MODEL 1
REMARK VINA RESULT:      -9.1      0.000      0.000
REMARK  Name = *****
REMARK                            x       y       z     vdW  Elec       q    Type
REMARK                         _______ _______ _______ _____ _____    ______ ____
ROOT
ATOM      1  C   LIG    1       28.814 -21.099   7.538  0.00  0.00    +0.403 C 
ATOM      2  N   LIG    1       27.535 -21.091   7.052  0.00  0.00    -0.281 N 
ATOM      3  H   LIG    1       27.428 -20.838   6.054  0.00  0.00    +0.152 HD
ATOM      4  O   LIG    1       29.095 -21.496   8.636  0.00  0.00    -0.226 OA
ENDROOT
BRANCH   1   5
ATOM      5  O   LIG    1       29.686 -20.508   6.669  0.00  0.00    -0.411 OA
BRANCH   5   6
ATOM      6  C   LIG    1       29.851 -19.102   6.941  0.00  0.00    +0.368 C 
ATOM      7  C   LIG    1       29.420 -18.323   5.711  0.00  0.00    +0.100 C 
BRANCH   6   8
ATOM      8  O   LIG    1       31.210 -18.740   7.214  0.00  0.00    -0.425 OA
BRANCH   8   9
ATOM      9  C   LIG    1       31.524 -18.676   8.536  0.00  0.00    +0.312 C 
ATOM     10  O   LIG    1       32.013 -19.586   9.194  0.00  0.00    -0.251 OA
BRANCH   9  12
ATOM     11  C   LIG    1       30.345 -17.645  10.447  0.00  0.00    +0.019 C 
ATOM     12  C   LIG    1       31.053 -17.363   9.124  0.00  0.00    +0.092 C 
ATOM     13  C   LIG    1       32.244 -16.432   9.327  0.00  0.00    +0.019 C 
ENDBRANCH   9  12
ENDBRANCH   8   9
ENDBRANCH   6   8
ENDBRANCH   5   6
ENDBRANCH   1   5
BRANCH   2  14
ATOM     14  C   LIG    1       26.365 -21.680   7.728  0.00  0.00    +0.115 C 
BRANCH  14  15
ATOM     15  C   LIG    1       25.316 -22.406   6.814  0.00  0.00    -0.004 C 
ATOM     16  C   LIG    1       23.884 -22.243   7.413  0.00  0.00    +0.009 C 
ATOM     17  C   LIG    1       23.295 -20.834   7.290  0.00  0.00    +0.001 C 
ATOM     18  C   LIG    1       23.292 -20.354   5.846  0.00  0.00    +0.000 C 
ATOM     19  C   LIG    1       24.693 -20.399   5.255  0.00  0.00    +0.001 C 
ATOM     20  C   LIG    1       25.313 -21.790   5.375  0.00  0.00    +0.009 C 
BRANCH  15  21
ATOM     21  C   LIG    1       25.610 -23.932   6.666  0.00  0.00    +0.128 C 
BRANCH  21  22
ATOM     22  C   LIG    1       24.596 -24.771   5.894  0.00  0.00    +0.305 C 
ATOM     23  O   LIG    1       23.644 -25.317   6.424  0.00  0.00    -0.251 OA
BRANCH  22  24
ATOM     24  O   LIG    1       24.817 -24.914   4.575  0.00  0.00    -0.481 OA
ATOM     25  H   LIG    1       24.224 -24.386   3.995  0.00  0.00    +0.295 HD
ENDBRANCH  22  24
ENDBRANCH  21  22
ENDBRANCH  15  21
ENDBRANCH  14  15
ENDBRANCH   2  14
TORSDOF 10
ENDMDL
MODEL 2
REMARK VINA RESULT:      -9.0      1.214      1.557
REMARK  Name = *****
REMARK                            x       y       z     vdW  Elec       q    Type
REMARK                         _______ _______ _______ _____ _____    ______ ____
ROOT
ATOM      1  C   LIG    1       27.769 -20.557   7.253  0.00  0.00    +0.403 C 
ATOM      2  N   LIG    1       26.813 -20.645   6.279  0.00  0.00    -0.281 N 
ATOM      3  H   LIG    1       27.153 -20.858   5.324  0.00  0.00    +0.152 HD
ATOM      4  O   LIG    1       27.508 -20.444   8.420  0.00  0.00    -0.226 OA
ENDROOT
BRANCH   1   5
ATOM      5  O   LIG    1       29.027 -20.506   6.722  0.00  0.00    -0.411 OA
BRANCH   5   6
ATOM      6  C   LIG    1       29.656 -19.228   6.944  0.00  0.00    +0.368 C 
ATOM      7  C   LIG    1       29.501 -18.394   5.685  0.00  0.00    +0.100 C 
BRANCH   6   8
ATOM      8  O   LIG    1       31.059 -19.333   7.210  0.00  0.00    -0.425 OA
BRANCH   8   9
ATOM      9  C   LIG    1       31.410 -19.097   8.503  0.00  0.00    +0.312 C 
ATOM     10  O   LIG    1       31.888 -19.924   9.271  0.00  0.00    -0.251 OA
BRANCH   9  12
ATOM     11  C   LIG    1       30.184 -17.788  10.202  0.00  0.00    +0.019 C 
ATOM     12  C   LIG    1       30.996 -17.700   8.912  0.00  0.00    +0.092 C 
ATOM     13  C   LIG    1       32.234 -16.830   9.102  0.00  0.00    +0.019 C 
ENDBRANCH   9  12
ENDBRANCH   8   9
ENDBRANCH   6   8
ENDBRANCH   5   6
ENDBRANCH   1   5
BRANCH   2  14
ATOM     14  C   LIG    1       25.363 -20.752   6.518  0.00  0.00    +0.115 C 
BRANCH  14  15
ATOM     15  C   LIG    1       24.495 -21.316   5.339  0.00  0.00    -0.004 C 
ATOM     16  C   LIG    1       22.984 -21.025   5.603  0.00  0.00    +0.009 C 
ATOM     17  C   LIG    1       22.578 -19.556   5.447  0.00  0.00    +0.001 C 
ATOM     18  C   LIG    1       22.962 -19.012   4.079  0.00  0.00    +0.000 C 
ATOM     19  C   LIG    1       24.452 -19.182   3.824  0.00  0.00    +0.001 C 
ATOM     20  C   LIG    1       24.890 -20.637   3.986  0.00  0.00    +0.009 C 
BRANCH  15  21
ATOM     21  C   LIG    1       24.668 -22.856   5.155  0.00  0.00    +0.128 C 
BRANCH  21  22
ATOM     22  C   LIG    1       24.393 -23.743   6.365  0.00  0.00    +0.305 C 
ATOM     23  O   LIG    1       25.222 -23.963   7.231  0.00  0.00    -0.251 OA
BRANCH  22  24
ATOM     24  O   LIG    1       23.177 -24.315   6.426  0.00  0.00    -0.481 OA
ATOM     25  H   LIG    1       23.090 -25.037   7.089  0.00  0.00    +0.295 HD
ENDBRANCH  22  24
ENDBRANCH  21  22
ENDBRANCH  15  21
ENDBRANCH  14  15
ENDBRANCH   2  14
TORSDOF 10
ENDMDL
MODEL 3
REMARK VINA RESULT:      -8.9      1.116      1.950
REMARK  Name = *****
REMARK                            x       y       z     vdW  Elec       q    Type
REMARK                         _______ _______ _______ _____ _____    ______ ____
ROOT
ATOM      1  C   LIG    1       28.630 -21.055   7.416  0.00  0.00    +0.403 C 
ATOM      2  N   LIG    1       27.290 -21.328   7.472  0.00  0.00    -0.281 N 
ATOM      3  H   LIG    1       26.914 -21.578   8.403  0.00  0.00    +0.152 HD
ATOM      4  O   LIG    1       29.172 -20.629   6.433  0.00  0.00    -0.226 OA
ENDROOT
BRANCH   1   5
ATOM      5  O   LIG    1       29.267 -21.427   8.566  0.00  0.00    -0.411 OA
BRANCH   5   6
ATOM      6  C   LIG    1       30.639 -20.985   8.590  0.00  0.00    +0.368 C 
ATOM      7  C   LIG    1       31.505 -22.140   9.059  0.00  0.00    +0.100 C 
BRANCH   6   8
ATOM      8  O   LIG    1       30.862 -19.897   9.494  0.00  0.00    -0.425 OA
BRANCH   8   9
ATOM      9  C   LIG    1       31.479 -18.818   8.942  0.00  0.00    +0.312 C 
ATOM     10  O   LIG    1       31.927 -18.762   7.803  0.00  0.00    -0.251 OA
BRANCH   9  12
ATOM     11  C   LIG    1       32.265 -16.503   9.300  0.00  0.00    +0.019 C 
ATOM     12  C   LIG    1       31.667 -17.733   9.980  0.00  0.00    +0.092 C 
ATOM     13  C   LIG    1       30.328 -17.404  10.631  0.00  0.00    +0.019 C 
ENDBRANCH   9  12
ENDBRANCH   8   9
ENDBRANCH   6   8
ENDBRANCH   5   6
ENDBRANCH   1   5
BRANCH   2  14
ATOM     14  C   LIG    1       26.316 -21.018   6.411  0.00  0.00    +0.115 C 
BRANCH  14  15
ATOM     15  C   LIG    1       25.123 -22.023   6.235  0.00  0.00    -0.004 C 
ATOM     16  C   LIG    1       23.961 -21.646   7.208  0.00  0.00    +0.009 C 
ATOM     17  C   LIG    1       23.192 -20.377   6.825  0.00  0.00    +0.001 C 
ATOM     18  C   LIG    1       22.652 -20.458   5.404  0.00  0.00    +0.000 C 
ATOM     19  C   LIG    1       23.773 -20.721   4.410  0.00  0.00    +0.001 C 
ATOM     20  C   LIG    1       24.568 -21.975   4.774  0.00  0.00    +0.009 C 
BRANCH  15  21
ATOM     21  C   LIG    1       25.540 -23.498   6.527  0.00  0.00    +0.128 C 
BRANCH  21  22
ATOM     22  C   LIG    1       24.778 -24.601   5.799  0.00  0.00    +0.305 C 
ATOM     23  O   LIG    1       25.236 -25.209   4.847  0.00  0.00    -0.251 OA
BRANCH  22  24
ATOM     24  O   LIG    1       23.534 -24.862   6.240  0.00  0.00    -0.481 OA
ATOM     25  H   LIG    1       23.426 -25.730   6.688  0.00  0.00    +0.295 HD
ENDBRANCH  22  24
ENDBRANCH  21  22
ENDBRANCH  15  21
ENDBRANCH  14  15
ENDBRANCH   2  14
TORSDOF 10
ENDMDL
MODEL 4
REMARK VINA RESULT:      -8.7      2.161      2.945
REMARK  Name = *****
REMARK                            x       y       z     vdW  Elec       q    Type
REMARK                         _______ _______ _______ _____ _____    ______ ____
ROOT
ATOM      1  C   LIG    1       27.811 -20.469   7.242  0.00  0.00    +0.403 C 
ATOM      2  N   LIG    1       26.871 -20.628   6.261  0.00  0.00    -0.281 N 
ATOM      3  H   LIG    1       27.228 -20.890   5.325  0.00  0.00    +0.152 HD
ATOM      4  O   LIG    1       27.531 -20.292   8.396  0.00  0.00    -0.226 OA
ENDROOT
BRANCH   1   5
ATOM      5  O   LIG    1       29.076 -20.429   6.726  0.00  0.00    -0.411 OA
BRANCH   5   6
ATOM      6  C   LIG    1       29.690 -19.137   6.902  0.00  0.00    +0.368 C 
ATOM      7  C   LIG    1       29.521 -18.348   5.616  0.00  0.00    +0.100 C 
BRANCH   6   8
ATOM      8  O   LIG    1       31.096 -19.216   7.165  0.00  0.00    -0.425 OA
BRANCH   8   9
ATOM      9  C   LIG    1       31.438 -19.050   8.471  0.00  0.00    +0.312 C 
ATOM     10  O   LIG    1       31.915 -19.914   9.196  0.00  0.00    -0.251 OA
BRANCH   9  12
ATOM     11  C   LIG    1       30.279 -17.830  10.281  0.00  0.00    +0.019 C 
ATOM     12  C   LIG    1       31.017 -17.678   8.952  0.00  0.00    +0.092 C 
ATOM     13  C   LIG    1       32.243 -16.785   9.106  0.00  0.00    +0.019 C 
ENDBRANCH   9  12
ENDBRANCH   8   9
ENDBRANCH   6   8
ENDBRANCH   5   6
ENDBRANCH   1   5
BRANCH   2  14
ATOM     14  C   LIG    1       25.419 -20.744   6.486  0.00  0.00    +0.115 C 
BRANCH  14  15
ATOM     15  C   LIG    1       24.602 -21.538   5.408  0.00  0.00    -0.004 C 
ATOM     16  C   LIG    1       25.062 -23.031   5.383  0.00  0.00    +0.009 C 
ATOM     17  C   LIG    1       24.621 -23.856   6.597  0.00  0.00    +0.001 C 
ATOM     18  C   LIG    1       23.113 -23.799   6.794  0.00  0.00    +0.000 C 
ATOM     19  C   LIG    1       22.636 -22.360   6.928  0.00  0.00    +0.001 C 
ATOM     20  C   LIG    1       23.073 -21.508   5.737  0.00  0.00    +0.009 C 
BRANCH  15  21
ATOM     21  C   LIG    1       24.781 -20.952   3.972  0.00  0.00    +0.128 C 
BRANCH  21  22
ATOM     22  C   LIG    1       24.776 -19.434   3.828  0.00  0.00    +0.305 C 
ATOM     23  O   LIG    1       23.753 -18.775   3.758  0.00  0.00    -0.251 OA
BRANCH  22  24
ATOM     24  O   LIG    1       25.978 -18.835   3.747  0.00  0.00    -0.481 OA
ATOM     25  H   LIG    1       26.045 -18.127   3.068  0.00  0.00    +0.295 HD
ENDBRANCH  22  24
ENDBRANCH  21  22
ENDBRANCH  15  21
ENDBRANCH  14  15
ENDBRANCH   2  14
TORSDOF 10
ENDMDL
MODEL 5
REMARK VINA RESULT:      -8.1      1.969      3.007
REMARK  Name = *****
REMARK                            x       y       z     vdW  Elec       q    Type
REMARK                         _______ _______ _______ _____ _____    ______ ____
ROOT
ATOM      1  C   LIG    1       28.174 -20.725   7.703  0.00  0.00    +0.403 C 
ATOM      2  N   LIG    1       26.915 -21.124   8.057  0.00  0.00    -0.281 N 
ATOM      3  H   LIG    1       26.851 -21.769   8.864  0.00  0.00    +0.152 HD
ATOM      4  O   LIG    1       28.387 -19.883   6.873  0.00  0.00    -0.226 OA
ENDROOT
BRANCH   1   5
ATOM      5  O   LIG    1       29.134 -21.472   8.327  0.00  0.00    -0.411 OA
BRANCH   5   6
ATOM      6  C   LIG    1       30.407 -20.798   8.359  0.00  0.00    +0.368 C 
ATOM      7  C   LIG    1       31.413 -21.708   9.040  0.00  0.00    +0.100 C 
BRANCH   6   8
ATOM      8  O   LIG    1       30.376 -19.574   9.102  0.00  0.00    -0.425 OA
BRANCH   8   9
ATOM      9  C   LIG    1       31.110 -18.564   8.562  0.00  0.00    +0.312 C 
ATOM     10  O   LIG    1       31.928 -18.685   7.658  0.00  0.00    -0.251 OA
BRANCH   9  12
ATOM     11  C   LIG    1       30.387 -17.631  10.733  0.00  0.00    +0.019 C 
ATOM     12  C   LIG    1       30.880 -17.280   9.331  0.00  0.00    +0.092 C 
ATOM     13  C   LIG    1       32.174 -16.476   9.391  0.00  0.00    +0.019 C 
ENDBRANCH   9  12
ENDBRANCH   8   9
ENDBRANCH   6   8
ENDBRANCH   5   6
ENDBRANCH   1   5
BRANCH   2  14
ATOM     14  C   LIG    1       25.664 -20.502   7.589  0.00  0.00    +0.115 C 
BRANCH  14  15
ATOM     15  C   LIG    1       25.070 -21.045   6.241  0.00  0.00    -0.004 C 
ATOM     16  C   LIG    1       25.507 -22.528   6.025  0.00  0.00    +0.009 C 
ATOM     17  C   LIG    1       24.821 -23.539   6.951  0.00  0.00    +0.001 C 
ATOM     18  C   LIG    1       23.305 -23.443   6.857  0.00  0.00    +0.000 C 
ATOM     19  C   LIG    1       22.829 -22.031   7.165  0.00  0.00    +0.001 C 
ATOM     20  C   LIG    1       23.506 -20.998   6.265  0.00  0.00    +0.009 C 
BRANCH  15  21
ATOM     21  C   LIG    1       25.542 -20.216   5.006  0.00  0.00    +0.128 C 
BRANCH  21  22
ATOM     22  C   LIG    1       24.554 -20.044   3.857  0.00  0.00    +0.305 C 
ATOM     23  O   LIG    1       24.217 -20.959   3.126  0.00  0.00    -0.251 OA
BRANCH  22  24
ATOM     24  O   LIG    1       24.080 -18.801   3.654  0.00  0.00    -0.481 OA
ATOM     25  H   LIG    1       23.762 -18.622   2.741  0.00  0.00    +0.295 HD
ENDBRANCH  22  24
ENDBRANCH  21  22
ENDBRANCH  15  21
ENDBRANCH  14  15
ENDBRANCH   2  14
TORSDOF 10
ENDMDL
MODEL 6
REMARK VINA RESULT:      -7.9      3.910      8.242
REMARK  Name = *****
REMARK                            x       y       z     vdW  Elec       q    Type
REMARK                         _______ _______ _______ _____ _____    ______ ____
ROOT
ATOM      1  C   LIG    1       24.856 -24.913   6.452  0.00  0.00    +0.403 C 
ATOM      2  N   LIG    1       25.487 -23.788   5.995  0.00  0.00    -0.281 N 
ATOM      3  H   LIG    1       26.519 -23.837   5.935  0.00  0.00    +0.152 HD
ATOM      4  O   LIG    1       23.662 -25.041   6.451  0.00  0.00    -0.226 OA
ENDROOT
BRANCH   1   5
ATOM      5  O   LIG    1       25.741 -25.802   6.995  0.00  0.00    -0.411 OA
BRANCH   5   6
ATOM      6  C   LIG    1       25.609 -27.116   6.418  0.00  0.00    +0.368 C 
ATOM      7  C   LIG    1       25.957 -27.028   4.944  0.00  0.00    +0.100 C 
BRANCH   6   8
ATOM      8  O   LIG    1       24.276 -27.635   6.506  0.00  0.00    -0.425 OA
BRANCH   8   9
ATOM      9  C   LIG    1       24.190 -28.990   6.426  0.00  0.00    +0.312 C 
ATOM     10  O   LIG    1       23.441 -29.612   5.682  0.00  0.00    -0.251 OA
BRANCH   9  12
ATOM     11  C   LIG    1       24.199 -29.867   8.737  0.00  0.00    +0.019 C 
ATOM     12  C   LIG    1       25.052 -29.634   7.491  0.00  0.00    +0.092 C 
ATOM     13  C   LIG    1       25.626 -30.946   6.967  0.00  0.00    +0.019 C 
ENDBRANCH   9  12
ENDBRANCH   8   9
ENDBRANCH   6   8
ENDBRANCH   5   6
ENDBRANCH   1   5
BRANCH   2  14
ATOM     14  C   LIG    1       24.825 -22.656   5.325  0.00  0.00    +0.115 C 
BRANCH  14  15
ATOM     15  C   LIG    1       25.105 -21.228   5.914  0.00  0.00    -0.004 C 
ATOM     16  C   LIG    1       25.421 -20.227   4.757  0.00  0.00    +0.009 C 
ATOM     17  C   LIG    1       24.213 -19.840   3.898  0.00  0.00    +0.001 C 
ATOM     18  C   LIG    1       23.078 -19.285   4.746  0.00  0.00    +0.000 C 
ATOM     19  C   LIG    1       22.668 -20.278   5.823  0.00  0.00    +0.001 C 
ATOM     20  C   LIG    1       23.856 -20.694   6.690  0.00  0.00    +0.009 C 
BRANCH  15  21
ATOM     21  C   LIG    1       26.309 -21.219   6.906  0.00  0.00    +0.128 C 
BRANCH  21  22
ATOM     22  C   LIG    1       25.997 -21.366   8.392  0.00  0.00    +0.305 C 
ATOM     23  O   LIG    1       26.010 -20.428   9.171  0.00  0.00    -0.251 OA
BRANCH  22  24
ATOM     24  O   LIG    1       25.729 -22.610   8.828  0.00  0.00    -0.481 OA
ATOM     25  H   LIG    1       26.082 -22.822   9.722  0.00  0.00    +0.295 HD
ENDBRANCH  22  24
ENDBRANCH  21  22
ENDBRANCH  15  21
ENDBRANCH  14  15
ENDBRANCH   2  14
TORSDOF 10
ENDMDL
MODEL 7
REMARK VINA RESULT:      -7.6      3.668      8.259
REMARK  Name = *****
REMARK                            x       y       z     vdW  Elec       q    Type
REMARK                         _______ _______ _______ _____ _____    ______ ____
ROOT
ATOM      1  C   LIG    1       25.133 -25.801   5.985  0.00  0.00    +0.403 C 
ATOM      2  N   LIG    1       24.412 -24.668   5.724  0.00  0.00    -0.281 N 
ATOM      3  H   LIG    1       23.413 -24.692   5.993  0.00  0.00    +0.152 HD
ATOM      4  O   LIG    1       26.324 -25.867   5.845  0.00  0.00    -0.226 OA
ENDROOT
BRANCH   1   5
ATOM      5  O   LIG    1       24.322 -26.851   6.313  0.00  0.00    -0.411 OA
BRANCH   5   6
ATOM      6  C   LIG    1       25.042 -28.098   6.354  0.00  0.00    +0.368 C 
ATOM      7  C   LIG    1       24.673 -28.904   5.122  0.00  0.00    +0.100 C 
BRANCH   6   8
ATOM      8  O   LIG    1       24.712 -28.899   7.495  0.00  0.00    -0.425 OA
BRANCH   8   9
ATOM      9  C   LIG    1       25.693 -28.977   8.434  0.00  0.00    +0.312 C 
ATOM     10  O   LIG    1       26.453 -28.068   8.745  0.00  0.00    -0.251 OA
BRANCH   9  12
ATOM     11  C   LIG    1       25.881 -31.346   7.757  0.00  0.00    +0.019 C 
ATOM     12  C   LIG    1       25.812 -30.395   8.951  0.00  0.00    +0.092 C 
ATOM     13  C   LIG    1       27.055 -30.523   9.825  0.00  0.00    +0.019 C 
ENDBRANCH   9  12
ENDBRANCH   8   9
ENDBRANCH   6   8
ENDBRANCH   5   6
ENDBRANCH   1   5
BRANCH   2  14
ATOM     14  C   LIG    1       24.987 -23.357   5.377  0.00  0.00    +0.115 C 
BRANCH  14  15
ATOM     15  C   LIG    1       24.879 -22.231   6.465  0.00  0.00    -0.004 C 
ATOM     16  C   LIG    1       25.494 -20.903   5.921  0.00  0.00    +0.009 C 
ATOM     17  C   LIG    1       24.655 -20.203   4.845  0.00  0.00    +0.001 C 
ATOM     18  C   LIG    1       23.236 -19.939   5.327  0.00  0.00    +0.000 C 
ATOM     19  C   LIG    1       22.563 -21.230   5.770  0.00  0.00    +0.001 C 
ATOM     20  C   LIG    1       23.383 -21.958   6.834  0.00  0.00    +0.009 C 
BRANCH  15  21
ATOM     21  C   LIG    1       25.623 -22.605   7.785  0.00  0.00    +0.128 C 
BRANCH  21  22
ATOM     22  C   LIG    1       26.452 -21.515   8.457  0.00  0.00    +0.305 C 
ATOM     23  O   LIG    1       27.651 -21.385   8.278  0.00  0.00    -0.251 OA
BRANCH  22  24
ATOM     24  O   LIG    1       25.798 -20.699   9.303  0.00  0.00    -0.481 OA
ATOM     25  H   LIG    1       24.863 -20.948   9.481  0.00  0.00    +0.295 HD
ENDBRANCH  22  24
ENDBRANCH  21  22
ENDBRANCH  15  21
ENDBRANCH  14  15
ENDBRANCH   2  14
TORSDOF 10
ENDMDL
MODEL 8
REMARK VINA RESULT:      -7.4      3.669      8.858
REMARK  Name = *****
REMARK                            x       y       z     vdW  Elec       q    Type
REMARK                         _______ _______ _______ _____ _____    ______ ____
ROOT
ATOM      1  C   LIG    1       24.744 -25.774   5.263  0.00  0.00    +0.403 C 
ATOM      2  N   LIG    1       24.317 -24.549   5.697  0.00  0.00    -0.281 N 
ATOM      3  H   LIG    1       23.590 -24.555   6.434  0.00  0.00    +0.152 HD
ATOM      4  O   LIG    1       25.668 -25.917   4.510  0.00  0.00    -0.226 OA
ENDROOT
BRANCH   1   5
ATOM      5  O   LIG    1       23.930 -26.778   5.706  0.00  0.00    -0.411 OA
BRANCH   5   6
ATOM      6  C   LIG    1       24.665 -27.803   6.403  0.00  0.00    +0.368 C 
ATOM      7  C   LIG    1       25.860 -27.157   7.081  0.00  0.00    +0.100 C 
BRANCH   6   8
ATOM      8  O   LIG    1       25.175 -28.819   5.531  0.00  0.00    -0.425 OA
BRANCH   8   9
ATOM      9  C   LIG    1       24.736 -30.076   5.809  0.00  0.00    +0.312 C 
ATOM     10  O   LIG    1       23.616 -30.364   6.212  0.00  0.00    -0.251 OA
BRANCH   9  12
ATOM     11  C   LIG    1       25.959 -31.877   6.979  0.00  0.00    +0.019 C 
ATOM     12  C   LIG    1       25.873 -31.067   5.686  0.00  0.00    +0.092 C 
ATOM     13  C   LIG    1       25.638 -31.977   4.485  0.00  0.00    +0.019 C 
ENDBRANCH   9  12
ENDBRANCH   8   9
ENDBRANCH   6   8
ENDBRANCH   5   6
ENDBRANCH   1   5
BRANCH   2  14
ATOM     14  C   LIG    1       24.992 -23.268   5.426  0.00  0.00    +0.115 C 
BRANCH  14  15
ATOM     15  C   LIG    1       24.809 -22.136   6.496  0.00  0.00    -0.004 C 
ATOM     16  C   LIG    1       25.441 -20.805   5.978  0.00  0.00    +0.009 C 
ATOM     17  C   LIG    1       24.659 -20.123   4.850  0.00  0.00    +0.001 C 
ATOM     18  C   LIG    1       23.212 -19.871   5.246  0.00  0.00    +0.000 C 
ATOM     19  C   LIG    1       22.527 -21.165   5.660  0.00  0.00    +0.001 C 
ATOM     20  C   LIG    1       23.292 -21.876   6.776  0.00  0.00    +0.009 C 
BRANCH  15  21
ATOM     21  C   LIG    1       25.480 -22.492   7.860  0.00  0.00    +0.128 C 
BRANCH  21  22
ATOM     22  C   LIG    1       26.332 -21.416   8.526  0.00  0.00    +0.305 C 
ATOM     23  O   LIG    1       25.869 -20.560   9.261  0.00  0.00    -0.251 OA
BRANCH  22  24
ATOM     24  O   LIG    1       27.646 -21.428   8.238  0.00  0.00    -0.481 OA
ATOM     25  H   LIG    1       28.137 -20.619   8.507  0.00  0.00    +0.295 HD
ENDBRANCH  22  24
ENDBRANCH  21  22
ENDBRANCH  15  21
ENDBRANCH  14  15
ENDBRANCH   2  14
TORSDOF 10
ENDMDL
MODEL 9
REMARK VINA RESULT:      -7.4      1.951      3.138
REMARK  Name = *****
REMARK                            x       y       z     vdW  Elec       q    Type
REMARK                         _______ _______ _______ _____ _____    ______ ____
ROOT
ATOM      1  C   LIG    1       27.504 -21.838   7.581  0.00  0.00    +0.403 C 
ATOM      2  N   LIG    1       26.697 -22.688   6.876  0.00  0.00    -0.281 N 
ATOM      3  H   LIG    1       27.098 -23.081   6.006  0.00  0.00    +0.152 HD
ATOM      4  O   LIG    1       27.219 -21.413   8.667  0.00  0.00    -0.226 OA
ENDROOT
BRANCH   1   5
ATOM      5  O   LIG    1       28.598 -21.461   6.854  0.00  0.00    -0.411 OA
BRANCH   5   6
ATOM      6  C   LIG    1       28.942 -20.079   7.072  0.00  0.00    +0.368 C 
ATOM      7  C   LIG    1       28.591 -19.295   5.820  0.00  0.00    +0.100 C 
BRANCH   6   8
ATOM      8  O   LIG    1       30.340 -19.881   7.314  0.00  0.00    -0.425 OA
BRANCH   8   9
ATOM      9  C   LIG    1       30.651 -19.552   8.597  0.00  0.00    +0.312 C 
ATOM     10  O   LIG    1       30.776 -20.343   9.524  0.00  0.00    -0.251 OA
BRANCH   9  12
ATOM     11  C   LIG    1       30.044 -17.683  10.096  0.00  0.00    +0.019 C 
ATOM     12  C   LIG    1       30.686 -18.047   8.758  0.00  0.00    +0.092 C 
ATOM     13  C   LIG    1       32.126 -17.553   8.689  0.00  0.00    +0.019 C 
ENDBRANCH   9  12
ENDBRANCH   8   9
ENDBRANCH   6   8
ENDBRANCH   5   6
ENDBRANCH   1   5
BRANCH   2  14
ATOM     14  C   LIG    1       25.460 -23.304   7.386  0.00  0.00    +0.115 C 
BRANCH  14  15
ATOM     15  C   LIG    1       24.278 -23.458   6.365  0.00  0.00    -0.004 C 
ATOM     16  C   LIG    1       24.843 -23.692   4.928  0.00  0.00    +0.009 C 
ATOM     17  C   LIG    1       25.465 -25.075   4.702  0.00  0.00    +0.001 C 
ATOM     18  C   LIG    1       24.489 -26.190   5.046  0.00  0.00    +0.000 C 
ATOM     19  C   LIG    1       23.993 -26.057   6.479  0.00  0.00    +0.001 C 
ATOM     20  C   LIG    1       23.378 -24.682   6.738  0.00  0.00    +0.009 C 
BRANCH  15  21
ATOM     21  C   LIG    1       23.357 -22.198   6.325  0.00  0.00    +0.128 C 
BRANCH  21  22
ATOM     22  C   LIG    1       23.949 -20.880   6.812  0.00  0.00    +0.305 C 
ATOM     23  O   LIG    1       23.630 -20.357   7.866  0.00  0.00    -0.251 OA
BRANCH  22  24
ATOM     24  O   LIG    1       24.837 -20.283   5.997  0.00  0.00    -0.481 OA
ATOM     25  H   LIG    1       24.444 -19.807   5.232  0.00  0.00    +0.295 HD
ENDBRANCH  22  24
ENDBRANCH  21  22
ENDBRANCH  15  21
ENDBRANCH  14  15
ENDBRANCH   2  14
TORSDOF 10
ENDMDL
