MODEL 1
REMARK VINA RESULT:      -8.6      0.000      0.000
REMARK  Name = *****
REMARK                            x       y       z     vdW  Elec       q    Type
REMARK                         _______ _______ _______ _____ _____    ______ ____
ROOT
ATOM      1  C   LIG    1       24.189 -20.741   7.864  0.00  0.00    +0.019 C 
ENDROOT
BRANCH   1   2
ATOM      2  C   LIG    1       23.606 -21.410   6.592  0.00  0.00    +0.085 C 
BRANCH   2   3
ATOM      3  N   LIG    1       24.541 -22.165   5.725  0.00  0.00    -0.300 NA
BRANCH   3   5
ATOM      4  C   LIG    1       24.900 -20.120   4.206  0.00  0.00    +0.020 C 
ATOM      5  C   LIG    1       24.559 -21.602   4.358  0.00  0.00    +0.081 C 
ENDBRANCH   3   5
BRANCH   3   6
ATOM      6  C   LIG    1       24.368 -23.646   5.774  0.00  0.00    +0.058 C 
ATOM      7  C   LIG    1       23.241 -24.103   6.729  0.00  0.00    +0.024 C 
BRANCH   6   8
ATOM      8  C   LIG    1       25.620 -24.505   6.118  0.00  0.00    +0.053 C 
BRANCH   8   9
ATOM      9  C   LIG    1       25.542 -26.013   6.079  0.00  0.00    -0.046 A 
ATOM     10  C   LIG    1       25.891 -26.722   7.237  0.00  0.00    +0.007 A 
ATOM     11  C   LIG    1       25.695 -28.099   7.327  0.00  0.00    +0.046 A 
ATOM     12  C   LIG    1       25.124 -28.795   6.267  0.00  0.00    +0.120 A 
ATOM     13  C   LIG    1       24.830 -28.112   5.084  0.00  0.00    +0.046 A 
ATOM     14  C   LIG    1       25.026 -26.725   4.990  0.00  0.00    +0.007 A 
BRANCH  12  15
ATOM     15  O   LIG    1       24.841 -30.135   6.287  0.00  0.00    -0.495 OA
ATOM     16  C   LIG    1       25.660 -30.929   5.430  0.00  0.00    +0.277 C 
ENDBRANCH  12  15
ENDBRANCH   8   9
ENDBRANCH   6   8
ENDBRANCH   3   6
ENDBRANCH   2   3
ENDBRANCH   1   2
BRANCH   1  17
ATOM     17  C   LIG    1       25.539 -21.283   8.370  0.00  0.00    +0.042 C 
BRANCH  17  18
ATOM     18  C   LIG    1       26.712 -20.381   8.014  0.00  0.00    +0.232 C 
BRANCH  18  19
ATOM     19  O   LIG    1       27.518 -20.794   6.894  0.00  0.00    -0.461 OA
BRANCH  19  20
ATOM     20  C   LIG    1       28.312 -19.887   6.297  0.00  0.00    +0.339 C 
ATOM     21  O   LIG    1       28.144 -19.386   5.178  0.00  0.00    -0.245 OA
BRANCH  20  22
ATOM     22  C   LIG    1       29.408 -19.503   7.239  0.00  0.00    +0.063 A 
ATOM     23  C   LIG    1       30.190 -20.482   7.879  0.00  0.00    +0.064 A 
ATOM     24  C   LIG    1       31.201 -20.128   8.780  0.00  0.00    +0.162 A 
ATOM     25  C   LIG    1       31.365 -18.785   9.146  0.00  0.00    +0.162 A 
ATOM     26  C   LIG    1       30.624 -17.802   8.476  0.00  0.00    +0.050 A 
ATOM     27  C   LIG    1       29.655 -18.152   7.527  0.00  0.00    +0.019 A 
BRANCH  24  28
ATOM     28  O   LIG    1       32.031 -21.065   9.335  0.00  0.00    -0.491 OA
ATOM     29  C   LIG    1       31.620 -22.421   9.222  0.00  0.00    +0.277 C 
ENDBRANCH  24  28
BRANCH  25  30
ATOM     30  O   LIG    1       32.228 -18.314  10.107  0.00  0.00    -0.491 OA
ATOM     31  C   LIG    1       32.584 -16.934   9.995  0.00  0.00    +0.277 C 
ENDBRANCH  25  30
ENDBRANCH  20  22
ENDBRANCH  19  20
ENDBRANCH  18  19
ENDBRANCH  17  18
ENDBRANCH   1  17
TORSDOF 14
ENDMDL
MODEL 2
REMARK VINA RESULT:      -8.6      1.953      9.123
REMARK  Name = *****
REMARK                            x       y       z     vdW  Elec       q    Type
REMARK                         _______ _______ _______ _____ _____    ______ ____
ROOT
ATOM      1  C   LIG    1       22.820 -23.227   6.583  0.00  0.00    +0.019 C 
ENDROOT
BRANCH   1   2
ATOM      2  C   LIG    1       23.312 -22.122   7.555  0.00  0.00    +0.085 C 
BRANCH   2   3
ATOM      3  N   LIG    1       24.090 -21.000   6.978  0.00  0.00    -0.300 NA
BRANCH   3   5
ATOM      4  C   LIG    1       22.692 -19.686   5.265  0.00  0.00    +0.020 C 
ATOM      5  C   LIG    1       23.720 -20.777   5.564  0.00  0.00    +0.081 C 
ENDBRANCH   3   5
BRANCH   3   6
ATOM      6  C   LIG    1       25.560 -21.080   7.220  0.00  0.00    +0.058 C 
ATOM      7  C   LIG    1       26.003 -20.426   8.549  0.00  0.00    +0.024 C 
BRANCH   6   8
ATOM      8  C   LIG    1       26.501 -20.522   6.112  0.00  0.00    +0.053 C 
BRANCH   8   9
ATOM      9  C   LIG    1       27.969 -20.308   6.399  0.00  0.00    -0.046 A 
ATOM     10  C   LIG    1       28.586 -19.167   5.867  0.00  0.00    +0.007 A 
ATOM     11  C   LIG    1       29.890 -18.823   6.216  0.00  0.00    +0.046 A 
ATOM     12  C   LIG    1       30.600 -19.602   7.123  0.00  0.00    +0.120 A 
ATOM     13  C   LIG    1       30.021 -20.776   7.612  0.00  0.00    +0.046 A 
ATOM     14  C   LIG    1       28.708 -21.125   7.263  0.00  0.00    +0.007 A 
BRANCH  12  15
ATOM     15  O   LIG    1       31.863 -19.309   7.569  0.00  0.00    -0.495 OA
ATOM     16  C   LIG    1       31.930 -18.219   8.488  0.00  0.00    +0.277 C 
ENDBRANCH  12  15
ENDBRANCH   8   9
ENDBRANCH   6   8
ENDBRANCH   3   6
ENDBRANCH   2   3
ENDBRANCH   1   2
BRANCH   1  17
ATOM     17  C   LIG    1       23.640 -24.530   6.550  0.00  0.00    +0.042 C 
BRANCH  17  18
ATOM     18  C   LIG    1       24.965 -24.378   5.816  0.00  0.00    +0.232 C 
BRANCH  18  19
ATOM     19  O   LIG    1       25.971 -25.369   6.103  0.00  0.00    -0.461 OA
BRANCH  19  20
ATOM     20  C   LIG    1       25.906 -26.558   5.478  0.00  0.00    +0.339 C 
ATOM     21  O   LIG    1       26.108 -26.769   4.275  0.00  0.00    -0.245 OA
BRANCH  20  22
ATOM     22  C   LIG    1       25.627 -27.626   6.488  0.00  0.00    +0.063 A 
ATOM     23  C   LIG    1       24.699 -28.649   6.223  0.00  0.00    +0.064 A 
ATOM     24  C   LIG    1       24.417 -29.637   7.174  0.00  0.00    +0.162 A 
ATOM     25  C   LIG    1       24.975 -29.544   8.456  0.00  0.00    +0.162 A 
ATOM     26  C   LIG    1       25.937 -28.556   8.710  0.00  0.00    +0.050 A 
ATOM     27  C   LIG    1       26.266 -27.605   7.736  0.00  0.00    +0.019 A 
BRANCH  24  28
ATOM     28  O   LIG    1       23.589 -30.691   6.894  0.00  0.00    -0.491 OA
ATOM     29  C   LIG    1       24.141 -31.736   6.105  0.00  0.00    +0.277 C 
ENDBRANCH  24  28
BRANCH  25  30
ATOM     30  O   LIG    1       24.687 -30.367   9.519  0.00  0.00    -0.491 OA
ATOM     31  C   LIG    1       25.767 -31.184   9.977  0.00  0.00    +0.277 C 
ENDBRANCH  25  30
ENDBRANCH  20  22
ENDBRANCH  19  20
ENDBRANCH  18  19
ENDBRANCH  17  18
ENDBRANCH   1  17
TORSDOF 14
ENDMDL
MODEL 3
REMARK VINA RESULT:      -8.4      2.402      5.429
REMARK  Name = *****
REMARK                            x       y       z     vdW  Elec       q    Type
REMARK                         _______ _______ _______ _____ _____    ______ ____
ROOT
ATOM      1  C   LIG    1       26.364 -21.877   8.427  0.00  0.00    +0.019 C 
ENDROOT
BRANCH   1   2
ATOM      2  C   LIG    1       26.608 -23.001   7.386  0.00  0.00    +0.085 C 
BRANCH   2   3
ATOM      3  N   LIG    1       25.486 -23.927   7.103  0.00  0.00    -0.300 NA
BRANCH   3   5
ATOM      4  C   LIG    1       25.963 -26.450   6.946  0.00  0.00    +0.020 C 
ATOM      5  C   LIG    1       25.944 -25.072   6.287  0.00  0.00    +0.081 C 
ENDBRANCH   3   5
BRANCH   3   6
ATOM      6  C   LIG    1       24.253 -23.264   6.588  0.00  0.00    +0.058 C 
ATOM      7  C   LIG    1       23.003 -24.173   6.627  0.00  0.00    +0.024 C 
BRANCH   6   8
ATOM      8  C   LIG    1       24.312 -22.648   5.159  0.00  0.00    +0.053 C 
BRANCH   8   9
ATOM      9  C   LIG    1       23.872 -21.222   4.928  0.00  0.00    -0.046 A 
ATOM     10  C   LIG    1       24.354 -20.558   3.791  0.00  0.00    +0.007 A 
ATOM     11  C   LIG    1       23.872 -19.302   3.430  0.00  0.00    +0.046 A 
ATOM     12  C   LIG    1       22.879 -18.689   4.187  0.00  0.00    +0.120 A 
ATOM     13  C   LIG    1       22.435 -19.310   5.358  0.00  0.00    +0.046 A 
ATOM     14  C   LIG    1       22.919 -20.576   5.724  0.00  0.00    +0.007 A 
BRANCH  12  15
ATOM     15  O   LIG    1       22.304 -17.485   3.877  0.00  0.00    -0.495 OA
ATOM     16  C   LIG    1       22.292 -16.539   4.947  0.00  0.00    +0.277 C 
ENDBRANCH  12  15
ENDBRANCH   8   9
ENDBRANCH   6   8
ENDBRANCH   3   6
ENDBRANCH   2   3
ENDBRANCH   1   2
BRANCH   1  17
ATOM     17  C   LIG    1       26.625 -20.434   7.956  0.00  0.00    +0.042 C 
BRANCH  17  18
ATOM     18  C   LIG    1       26.904 -20.339   6.462  0.00  0.00    +0.232 C 
BRANCH  18  19
ATOM     19  O   LIG    1       28.290 -20.358   6.069  0.00  0.00    -0.461 OA
BRANCH  19  20
ATOM     20  C   LIG    1       28.939 -19.189   5.922  0.00  0.00    +0.339 C 
ATOM     21  O   LIG    1       28.793 -18.379   4.997  0.00  0.00    -0.245 OA
BRANCH  20  22
ATOM     22  C   LIG    1       29.823 -18.969   7.108  0.00  0.00    +0.063 A 
ATOM     23  C   LIG    1       30.486 -20.044   7.728  0.00  0.00    +0.064 A 
ATOM     24  C   LIG    1       31.295 -19.846   8.852  0.00  0.00    +0.162 A 
ATOM     25  C   LIG    1       31.356 -18.578   9.448  0.00  0.00    +0.162 A 
ATOM     26  C   LIG    1       30.739 -17.494   8.807  0.00  0.00    +0.050 A 
ATOM     27  C   LIG    1       29.980 -17.683   7.645  0.00  0.00    +0.019 A 
BRANCH  24  28
ATOM     28  O   LIG    1       32.020 -20.866   9.406  0.00  0.00    -0.491 OA
ATOM     29  C   LIG    1       31.593 -22.186   9.098  0.00  0.00    +0.277 C 
ENDBRANCH  24  28
BRANCH  25  30
ATOM     30  O   LIG    1       32.007 -18.272  10.620  0.00  0.00    -0.491 OA
ATOM     31  C   LIG    1       31.776 -16.956  11.129  0.00  0.00    +0.277 C 
ENDBRANCH  25  30
ENDBRANCH  20  22
ENDBRANCH  19  20
ENDBRANCH  18  19
ENDBRANCH  17  18
ENDBRANCH   1  17
TORSDOF 14
ENDMDL
MODEL 4
REMARK VINA RESULT:      -8.4      0.851      1.297
REMARK  Name = *****
REMARK                            x       y       z     vdW  Elec       q    Type
REMARK                         _______ _______ _______ _____ _____    ______ ____
ROOT
ATOM      1  C   LIG    1       25.503 -21.371   8.126  0.00  0.00    +0.019 C 
ENDROOT
BRANCH   1   2
ATOM      2  C   LIG    1       24.270 -21.257   7.193  0.00  0.00    +0.085 C 
BRANCH   2   3
ATOM      3  N   LIG    1       24.382 -21.839   5.835  0.00  0.00    -0.300 NA
BRANCH   3   5
ATOM      4  C   LIG    1       22.669 -19.969   5.408  0.00  0.00    +0.020 C 
ATOM      5  C   LIG    1       23.597 -21.052   4.860  0.00  0.00    +0.081 C 
ENDBRANCH   3   5
BRANCH   3   6
ATOM      6  C   LIG    1       24.136 -23.310   5.772  0.00  0.00    +0.058 C 
ATOM      7  C   LIG    1       23.136 -23.813   6.838  0.00  0.00    +0.024 C 
BRANCH   6   8
ATOM      8  C   LIG    1       25.376 -24.249   5.844  0.00  0.00    +0.053 C 
BRANCH   8   9
ATOM      9  C   LIG    1       25.202 -25.711   6.182  0.00  0.00    -0.046 A 
ATOM     10  C   LIG    1       24.368 -26.484   5.361  0.00  0.00    +0.007 A 
ATOM     11  C   LIG    1       24.282 -27.866   5.515  0.00  0.00    +0.046 A 
ATOM     12  C   LIG    1       25.047 -28.510   6.482  0.00  0.00    +0.120 A 
ATOM     13  C   LIG    1       25.834 -27.747   7.348  0.00  0.00    +0.046 A 
ATOM     14  C   LIG    1       25.923 -26.354   7.195  0.00  0.00    +0.007 A 
BRANCH  12  15
ATOM     15  O   LIG    1       25.072 -29.868   6.668  0.00  0.00    -0.495 OA
ATOM     16  C   LIG    1       25.550 -30.611   5.546  0.00  0.00    +0.277 C 
ENDBRANCH  12  15
ENDBRANCH   8   9
ENDBRANCH   6   8
ENDBRANCH   3   6
ENDBRANCH   2   3
ENDBRANCH   1   2
BRANCH   1  17
ATOM     17  C   LIG    1       26.688 -20.436   7.820  0.00  0.00    +0.042 C 
BRANCH  17  18
ATOM     18  C   LIG    1       26.999 -20.342   6.333  0.00  0.00    +0.232 C 
BRANCH  18  19
ATOM     19  O   LIG    1       28.395 -20.319   5.972  0.00  0.00    -0.461 OA
BRANCH  19  20
ATOM     20  C   LIG    1       29.019 -19.131   5.876  0.00  0.00    +0.339 C 
ATOM     21  O   LIG    1       28.887 -18.303   4.965  0.00  0.00    -0.245 OA
BRANCH  20  22
ATOM     22  C   LIG    1       29.854 -18.918   7.098  0.00  0.00    +0.063 A 
ATOM     23  C   LIG    1       30.547 -19.985   7.698  0.00  0.00    +0.064 A 
ATOM     24  C   LIG    1       31.310 -19.795   8.856  0.00  0.00    +0.162 A 
ATOM     25  C   LIG    1       31.293 -18.551   9.501  0.00  0.00    +0.162 A 
ATOM     26  C   LIG    1       30.646 -17.472   8.882  0.00  0.00    +0.050 A 
ATOM     27  C   LIG    1       29.934 -17.648   7.689  0.00  0.00    +0.019 A 
BRANCH  24  28
ATOM     28  O   LIG    1       32.065 -20.802   9.394  0.00  0.00    -0.491 OA
ATOM     29  C   LIG    1       31.586 -22.126   9.198  0.00  0.00    +0.277 C 
ENDBRANCH  24  28
BRANCH  25  30
ATOM     30  O   LIG    1       31.890 -18.262  10.705  0.00  0.00    -0.491 OA
ATOM     31  C   LIG    1       31.289 -17.204  11.456  0.00  0.00    +0.277 C 
ENDBRANCH  25  30
ENDBRANCH  20  22
ENDBRANCH  19  20
ENDBRANCH  18  19
ENDBRANCH  17  18
ENDBRANCH   1  17
TORSDOF 14
ENDMDL
MODEL 5
REMARK VINA RESULT:      -8.4      1.882      9.230
REMARK  Name = *****
REMARK                            x       y       z     vdW  Elec       q    Type
REMARK                         _______ _______ _______ _____ _____    ______ ____
ROOT
ATOM      1  C   LIG    1       23.113 -22.278   7.314  0.00  0.00    +0.019 C 
ENDROOT
BRANCH   1   2
ATOM      2  C   LIG    1       23.463 -21.098   6.370  0.00  0.00    +0.085 C 
BRANCH   2   3
ATOM      3  N   LIG    1       24.856 -20.592   6.393  0.00  0.00    -0.300 NA
BRANCH   3   5
ATOM      4  C   LIG    1       24.405 -20.365   3.871  0.00  0.00    +0.020 C 
ATOM      5  C   LIG    1       25.402 -20.496   5.022  0.00  0.00    +0.081 C 
ENDBRANCH   3   5
BRANCH   3   6
ATOM      6  C   LIG    1       25.751 -21.292   7.359  0.00  0.00    +0.058 C 
ATOM      7  C   LIG    1       25.954 -20.519   8.683  0.00  0.00    +0.024 C 
BRANCH   6   8
ATOM      8  C   LIG    1       27.168 -21.701   6.859  0.00  0.00    +0.053 C 
BRANCH   8   9
ATOM      9  C   LIG    1       28.359 -20.817   7.146  0.00  0.00    -0.046 A 
ATOM     10  C   LIG    1       29.347 -21.302   8.015  0.00  0.00    +0.007 A 
ATOM     11  C   LIG    1       30.543 -20.613   8.205  0.00  0.00    +0.046 A 
ATOM     12  C   LIG    1       30.787 -19.432   7.512  0.00  0.00    +0.120 A 
ATOM     13  C   LIG    1       29.786 -18.904   6.692  0.00  0.00    +0.046 A 
ATOM     14  C   LIG    1       28.581 -19.596   6.499  0.00  0.00    +0.007 A 
BRANCH  12  15
ATOM     15  O   LIG    1       31.955 -18.719   7.590  0.00  0.00    -0.495 OA
ATOM     16  C   LIG    1       32.048 -17.854   8.721  0.00  0.00    +0.277 C 
ENDBRANCH  12  15
ENDBRANCH   8   9
ENDBRANCH   6   8
ENDBRANCH   3   6
ENDBRANCH   2   3
ENDBRANCH   1   2
BRANCH   1  17
ATOM     17  C   LIG    1       22.846 -23.639   6.646  0.00  0.00    +0.042 C 
BRANCH  17  18
ATOM     18  C   LIG    1       24.091 -24.512   6.561  0.00  0.00    +0.232 C 
BRANCH  18  19
ATOM     19  O   LIG    1       24.021 -25.637   5.663  0.00  0.00    -0.461 OA
BRANCH  19  20
ATOM     20  C   LIG    1       25.115 -26.401   5.496  0.00  0.00    +0.339 C 
ATOM     21  O   LIG    1       26.163 -26.070   4.926  0.00  0.00    -0.245 OA
BRANCH  20  22
ATOM     22  C   LIG    1       24.905 -27.711   6.186  0.00  0.00    +0.063 A 
ATOM     23  C   LIG    1       25.547 -28.000   7.404  0.00  0.00    +0.064 A 
ATOM     24  C   LIG    1       25.373 -29.234   8.042  0.00  0.00    +0.162 A 
ATOM     25  C   LIG    1       24.644 -30.247   7.405  0.00  0.00    +0.162 A 
ATOM     26  C   LIG    1       23.961 -29.950   6.216  0.00  0.00    +0.050 A 
ATOM     27  C   LIG    1       24.085 -28.693   5.610  0.00  0.00    +0.019 A 
BRANCH  24  28
ATOM     28  O   LIG    1       25.915 -29.491   9.273  0.00  0.00    -0.491 OA
ATOM     29  C   LIG    1       26.661 -28.438   9.869  0.00  0.00    +0.277 C 
ENDBRANCH  24  28
BRANCH  25  30
ATOM     30  O   LIG    1       24.499 -31.538   7.855  0.00  0.00    -0.491 OA
ATOM     31  C   LIG    1       23.760 -32.412   6.999  0.00  0.00    +0.277 C 
ENDBRANCH  25  30
ENDBRANCH  20  22
ENDBRANCH  19  20
ENDBRANCH  18  19
ENDBRANCH  17  18
ENDBRANCH   1  17
TORSDOF 14
ENDMDL
MODEL 6
REMARK VINA RESULT:      -8.2      1.069      2.583
REMARK  Name = *****
REMARK                            x       y       z     vdW  Elec       q    Type
REMARK                         _______ _______ _______ _____ _____    ______ ____
ROOT
ATOM      1  C   LIG    1       23.674 -20.846   5.251  0.00  0.00    +0.019 C 
ENDROOT
BRANCH   1   2
ATOM      2  C   LIG    1       24.139 -20.757   6.728  0.00  0.00    +0.085 C 
BRANCH   2   3
ATOM      3  N   LIG    1       24.416 -22.029   7.437  0.00  0.00    -0.300 NA
BRANCH   3   5
ATOM      4  C   LIG    1       26.008 -20.456   8.705  0.00  0.00    +0.020 C 
ATOM      5  C   LIG    1       25.562 -21.876   8.359  0.00  0.00    +0.081 C 
ENDBRANCH   3   5
BRANCH   3   6
ATOM      6  C   LIG    1       24.502 -23.225   6.548  0.00  0.00    +0.058 C 
ATOM      7  C   LIG    1       23.279 -24.165   6.661  0.00  0.00    +0.024 C 
BRANCH   6   8
ATOM      8  C   LIG    1       25.768 -24.122   6.673  0.00  0.00    +0.053 C 
BRANCH   8   9
ATOM      9  C   LIG    1       25.718 -25.570   6.244  0.00  0.00    -0.046 A 
ATOM     10  C   LIG    1       25.849 -26.556   7.232  0.00  0.00    +0.007 A 
ATOM     11  C   LIG    1       25.657 -27.904   6.937  0.00  0.00    +0.046 A 
ATOM     12  C   LIG    1       25.309 -28.295   5.649  0.00  0.00    +0.120 A 
ATOM     13  C   LIG    1       25.237 -27.330   4.640  0.00  0.00    +0.046 A 
ATOM     14  C   LIG    1       25.429 -25.972   4.935  0.00  0.00    +0.007 A 
BRANCH  12  15
ATOM     15  O   LIG    1       25.044 -29.588   5.280  0.00  0.00    -0.495 OA
ATOM     16  C   LIG    1       24.324 -30.347   6.251  0.00  0.00    +0.277 C 
ENDBRANCH  12  15
ENDBRANCH   8   9
ENDBRANCH   6   8
ENDBRANCH   3   6
ENDBRANCH   2   3
ENDBRANCH   1   2
BRANCH   1  17
ATOM     17  C   LIG    1       24.771 -20.735   4.175  0.00  0.00    +0.042 C 
BRANCH  17  18
ATOM     18  C   LIG    1       25.762 -19.613   4.453  0.00  0.00    +0.232 C 
BRANCH  18  19
ATOM     19  O   LIG    1       26.965 -19.984   5.156  0.00  0.00    -0.461 OA
BRANCH  19  20
ATOM     20  C   LIG    1       27.980 -19.103   5.211  0.00  0.00    +0.339 C 
ATOM     21  O   LIG    1       28.095 -18.071   4.538  0.00  0.00    -0.245 OA
BRANCH  20  22
ATOM     22  C   LIG    1       28.932 -19.522   6.286  0.00  0.00    +0.063 A 
ATOM     23  C   LIG    1       30.001 -18.693   6.670  0.00  0.00    +0.064 A 
ATOM     24  C   LIG    1       30.909 -19.091   7.659  0.00  0.00    +0.162 A 
ATOM     25  C   LIG    1       30.826 -20.383   8.196  0.00  0.00    +0.162 A 
ATOM     26  C   LIG    1       29.735 -21.194   7.855  0.00  0.00    +0.050 A 
ATOM     27  C   LIG    1       28.791 -20.770   6.910  0.00  0.00    +0.019 A 
BRANCH  24  28
ATOM     28  O   LIG    1       31.895 -18.256   8.110  0.00  0.00    -0.491 OA
ATOM     29  C   LIG    1       31.484 -17.184   8.947  0.00  0.00    +0.277 C 
ENDBRANCH  24  28
BRANCH  25  30
ATOM     30  O   LIG    1       31.720 -20.946   9.076  0.00  0.00    -0.491 OA
ATOM     31  C   LIG    1       31.478 -22.314   9.413  0.00  0.00    +0.277 C 
ENDBRANCH  25  30
ENDBRANCH  20  22
ENDBRANCH  19  20
ENDBRANCH  18  19
ENDBRANCH  17  18
ENDBRANCH   1  17
TORSDOF 14
ENDMDL
MODEL 7
REMARK VINA RESULT:      -8.1      2.365      9.336
REMARK  Name = *****
REMARK                            x       y       z     vdW  Elec       q    Type
REMARK                         _______ _______ _______ _____ _____    ______ ____
ROOT
ATOM      1  C   LIG    1       25.403 -24.147   6.800  0.00  0.00    +0.019 C 
ENDROOT
BRANCH   1   2
ATOM      2  C   LIG    1       24.248 -23.190   6.404  0.00  0.00    +0.085 C 
BRANCH   2   3
ATOM      3  N   LIG    1       24.461 -21.738   6.608  0.00  0.00    -0.300 NA
BRANCH   3   5
ATOM      4  C   LIG    1       22.553 -20.569   5.339  0.00  0.00    +0.020 C 
ATOM      5  C   LIG    1       24.026 -20.971   5.421  0.00  0.00    +0.081 C 
ENDBRANCH   3   5
BRANCH   3   6
ATOM      6  C   LIG    1       25.822 -21.377   7.103  0.00  0.00    +0.058 C 
ATOM      7  C   LIG    1       25.805 -20.579   8.427  0.00  0.00    +0.024 C 
BRANCH   6   8
ATOM      8  C   LIG    1       26.759 -20.605   6.128  0.00  0.00    +0.053 C 
BRANCH   8   9
ATOM      9  C   LIG    1       28.194 -20.331   6.511  0.00  0.00    -0.046 A 
ATOM     10  C   LIG    1       28.833 -19.227   5.930  0.00  0.00    +0.007 A 
ATOM     11  C   LIG    1       30.099 -18.821   6.349  0.00  0.00    +0.046 A 
ATOM     12  C   LIG    1       30.745 -19.500   7.377  0.00  0.00    +0.120 A 
ATOM     13  C   LIG    1       30.148 -20.639   7.922  0.00  0.00    +0.046 A 
ATOM     14  C   LIG    1       28.873 -21.050   7.501  0.00  0.00    +0.007 A 
BRANCH  12  15
ATOM     15  O   LIG    1       31.962 -19.139   7.895  0.00  0.00    -0.495 OA
ATOM     16  C   LIG    1       31.922 -18.019   8.779  0.00  0.00    +0.277 C 
ENDBRANCH  12  15
ENDBRANCH   8   9
ENDBRANCH   6   8
ENDBRANCH   3   6
ENDBRANCH   2   3
ENDBRANCH   1   2
BRANCH   1  17
ATOM     17  C   LIG    1       25.658 -25.343   5.864  0.00  0.00    +0.042 C 
BRANCH  17  18
ATOM     18  C   LIG    1       24.392 -26.122   5.540  0.00  0.00    +0.232 C 
BRANCH  18  19
ATOM     19  O   LIG    1       24.037 -27.175   6.458  0.00  0.00    -0.461 OA
BRANCH  19  20
ATOM     20  C   LIG    1       24.444 -28.430   6.194  0.00  0.00    +0.339 C 
ATOM     21  O   LIG    1       24.526 -28.956   5.077  0.00  0.00    -0.245 OA
BRANCH  20  22
ATOM     22  C   LIG    1       24.870 -29.083   7.470  0.00  0.00    +0.063 A 
ATOM     23  C   LIG    1       25.946 -28.574   8.221  0.00  0.00    +0.064 A 
ATOM     24  C   LIG    1       26.364 -29.196   9.403  0.00  0.00    +0.162 A 
ATOM     25  C   LIG    1       25.784 -30.413   9.789  0.00  0.00    +0.162 A 
ATOM     26  C   LIG    1       24.680 -30.898   9.074  0.00  0.00    +0.050 A 
ATOM     27  C   LIG    1       24.221 -30.240   7.925  0.00  0.00    +0.019 A 
BRANCH  24  28
ATOM     28  O   LIG    1       27.345 -28.658  10.192  0.00  0.00    -0.491 OA
ATOM     29  C   LIG    1       26.914 -27.804  11.243  0.00  0.00    +0.277 C 
ENDBRANCH  24  28
BRANCH  25  30
ATOM     30  O   LIG    1       26.181 -31.191  10.851  0.00  0.00    -0.491 OA
ATOM     31  C   LIG    1       25.397 -31.061  12.039  0.00  0.00    +0.277 C 
ENDBRANCH  25  30
ENDBRANCH  20  22
ENDBRANCH  19  20
ENDBRANCH  18  19
ENDBRANCH  17  18
ENDBRANCH   1  17
TORSDOF 14
ENDMDL
MODEL 8
REMARK VINA RESULT:      -8.0      2.422      9.348
REMARK  Name = *****
REMARK                            x       y       z     vdW  Elec       q    Type
REMARK                         _______ _______ _______ _____ _____    ______ ____
ROOT
ATOM      1  C   LIG    1       25.511 -24.358   6.881  0.00  0.00    +0.019 C 
ENDROOT
BRANCH   1   2
ATOM      2  C   LIG    1       24.459 -23.445   6.198  0.00  0.00    +0.085 C 
BRANCH   2   3
ATOM      3  N   LIG    1       24.475 -22.004   6.543  0.00  0.00    -0.300 NA
BRANCH   3   5
ATOM      4  C   LIG    1       22.879 -20.130   5.797  0.00  0.00    +0.020 C 
ATOM      5  C   LIG    1       23.917 -21.194   5.440  0.00  0.00    +0.081 C 
ENDBRANCH   3   5
BRANCH   3   6
ATOM      6  C   LIG    1       25.784 -21.509   7.063  0.00  0.00    +0.058 C 
ATOM      7  C   LIG    1       25.655 -20.672   8.357  0.00  0.00    +0.024 C 
BRANCH   6   8
ATOM      8  C   LIG    1       26.679 -20.689   6.088  0.00  0.00    +0.053 C 
BRANCH   8   9
ATOM      9  C   LIG    1       28.117 -20.394   6.445  0.00  0.00    -0.046 A 
ATOM     10  C   LIG    1       28.715 -19.254   5.889  0.00  0.00    +0.007 A 
ATOM     11  C   LIG    1       29.980 -18.833   6.291  0.00  0.00    +0.046 A 
ATOM     12  C   LIG    1       30.670 -19.532   7.277  0.00  0.00    +0.120 A 
ATOM     13  C   LIG    1       30.114 -20.705   7.794  0.00  0.00    +0.046 A 
ATOM     14  C   LIG    1       28.839 -21.131   7.391  0.00  0.00    +0.007 A 
BRANCH  12  15
ATOM     15  O   LIG    1       31.890 -19.159   7.777  0.00  0.00    -0.495 OA
ATOM     16  C   LIG    1       31.853 -18.037   8.658  0.00  0.00    +0.277 C 
ENDBRANCH  12  15
ENDBRANCH   8   9
ENDBRANCH   6   8
ENDBRANCH   3   6
ENDBRANCH   2   3
ENDBRANCH   1   2
BRANCH   1  17
ATOM     17  C   LIG    1       26.020 -25.557   6.059  0.00  0.00    +0.042 C 
BRANCH  17  18
ATOM     18  C   LIG    1       24.896 -26.349   5.406  0.00  0.00    +0.232 C 
BRANCH  18  19
ATOM     19  O   LIG    1       24.320 -27.408   6.195  0.00  0.00    -0.461 OA
BRANCH  19  20
ATOM     20  C   LIG    1       24.966 -28.585   6.271  0.00  0.00    +0.339 C 
ATOM     21  O   LIG    1       25.379 -29.259   5.318  0.00  0.00    -0.245 OA
BRANCH  20  22
ATOM     22  C   LIG    1       25.189 -28.928   7.709  0.00  0.00    +0.063 A 
ATOM     23  C   LIG    1       24.322 -29.803   8.388  0.00  0.00    +0.064 A 
ATOM     24  C   LIG    1       24.512 -30.109   9.741  0.00  0.00    +0.162 A 
ATOM     25  C   LIG    1       25.509 -29.444  10.468  0.00  0.00    +0.162 A 
ATOM     26  C   LIG    1       26.407 -28.610   9.787  0.00  0.00    +0.050 A 
ATOM     27  C   LIG    1       26.254 -28.354   8.418  0.00  0.00    +0.019 A 
BRANCH  24  28
ATOM     28  O   LIG    1       23.734 -31.031  10.388  0.00  0.00    -0.491 OA
ATOM     29  C   LIG    1       22.459 -30.585  10.830  0.00  0.00    +0.277 C 
ENDBRANCH  24  28
BRANCH  25  30
ATOM     30  O   LIG    1       25.724 -29.553  11.822  0.00  0.00    -0.491 OA
ATOM     31  C   LIG    1       25.280 -28.445  12.609  0.00  0.00    +0.277 C 
ENDBRANCH  25  30
ENDBRANCH  20  22
ENDBRANCH  19  20
ENDBRANCH  18  19
ENDBRANCH  17  18
ENDBRANCH   1  17
TORSDOF 14
ENDMDL
MODEL 9
REMARK VINA RESULT:      -7.8      2.076      8.968
REMARK  Name = *****
REMARK                            x       y       z     vdW  Elec       q    Type
REMARK                         _______ _______ _______ _____ _____    ______ ____
ROOT
ATOM      1  C   LIG    1       22.927 -21.855   6.786  0.00  0.00    +0.019 C 
ENDROOT
BRANCH   1   2
ATOM      2  C   LIG    1       22.615 -21.177   5.426  0.00  0.00    +0.085 C 
BRANCH   2   3
ATOM      3  N   LIG    1       23.147 -19.812   5.204  0.00  0.00    -0.300 NA
BRANCH   3   5
ATOM      4  C   LIG    1       22.353 -17.427   4.656  0.00  0.00    +0.020 C 
ATOM      5  C   LIG    1       22.114 -18.936   4.611  0.00  0.00    +0.081 C 
ENDBRANCH   3   5
BRANCH   3   6
ATOM      6  C   LIG    1       24.462 -19.769   4.498  0.00  0.00    +0.058 C 
ATOM      7  C   LIG    1       24.342 -19.904   2.963  0.00  0.00    +0.024 C 
BRANCH   6   8
ATOM      8  C   LIG    1       25.553 -20.784   4.951  0.00  0.00    +0.053 C 
BRANCH   8   9
ATOM      9  C   LIG    1       26.629 -20.359   5.923  0.00  0.00    -0.046 A 
ATOM     10  C   LIG    1       26.429 -20.623   7.285  0.00  0.00    +0.007 A 
ATOM     11  C   LIG    1       27.440 -20.403   8.219  0.00  0.00    +0.046 A 
ATOM     12  C   LIG    1       28.682 -19.932   7.807  0.00  0.00    +0.120 A 
ATOM     13  C   LIG    1       28.875 -19.605   6.462  0.00  0.00    +0.046 A 
ATOM     14  C   LIG    1       27.859 -19.826   5.520  0.00  0.00    +0.007 A 
BRANCH  12  15
ATOM     15  O   LIG    1       29.751 -19.742   8.643  0.00  0.00    -0.495 OA
ATOM     16  C   LIG    1       31.023 -19.768   7.995  0.00  0.00    +0.277 C 
ENDBRANCH  12  15
ENDBRANCH   8   9
ENDBRANCH   6   8
ENDBRANCH   3   6
ENDBRANCH   2   3
ENDBRANCH   1   2
BRANCH   1  17
ATOM     17  C   LIG    1       22.790 -23.388   6.838  0.00  0.00    +0.042 C 
BRANCH  17  18
ATOM     18  C   LIG    1       24.041 -24.112   6.362  0.00  0.00    +0.232 C 
BRANCH  18  19
ATOM     19  O   LIG    1       24.088 -25.532   6.603  0.00  0.00    -0.461 OA
BRANCH  19  20
ATOM     20  C   LIG    1       24.739 -26.318   5.726  0.00  0.00    +0.339 C 
ATOM     21  O   LIG    1       25.282 -25.953   4.675  0.00  0.00    -0.245 OA
BRANCH  20  22
ATOM     22  C   LIG    1       24.781 -27.714   6.259  0.00  0.00    +0.063 A 
ATOM     23  C   LIG    1       25.420 -28.006   7.478  0.00  0.00    +0.064 A 
ATOM     24  C   LIG    1       25.483 -29.315   7.969  0.00  0.00    +0.162 A 
ATOM     25  C   LIG    1       25.008 -30.374   7.183  0.00  0.00    +0.162 A 
ATOM     26  C   LIG    1       24.326 -30.086   5.992  0.00  0.00    +0.050 A 
ATOM     27  C   LIG    1       24.208 -28.768   5.532  0.00  0.00    +0.019 A 
BRANCH  24  28
ATOM     28  O   LIG    1       26.017 -29.599   9.197  0.00  0.00    -0.491 OA
ATOM     29  C   LIG    1       26.692 -28.535   9.854  0.00  0.00    +0.277 C 
ENDBRANCH  24  28
BRANCH  25  30
ATOM     30  O   LIG    1       25.120 -31.711   7.484  0.00  0.00    -0.491 OA
ATOM     31  C   LIG    1       24.715 -32.613   6.451  0.00  0.00    +0.277 C 
ENDBRANCH  25  30
ENDBRANCH  20  22
ENDBRANCH  19  20
ENDBRANCH  18  19
ENDBRANCH  17  18
ENDBRANCH   1  17
TORSDOF 14
ENDMDL
