MODEL 1
REMARK VINA RESULT:      -7.7      0.000      0.000
REMARK  Name = *****
REMARK                            x       y       z     vdW  Elec       q    Type
REMARK                         _______ _______ _______ _____ _____    ______ ____
ROOT
ATOM      1  C   LIG    1       25.010 -22.315   6.940  0.00  0.00    +0.087 C 
ATOM      2  N   LIG    1       25.105 -23.501   6.406  0.00  0.00    -0.089 NA
ENDROOT
BRANCH   1   3
ATOM      3  C   LIG    1       26.226 -21.442   6.915  0.00  0.00    -0.001 A 
ATOM      4  C   LIG    1       27.133 -21.394   7.977  0.00  0.00    +0.010 A 
ATOM      5  C   LIG    1       28.286 -20.603   7.881  0.00  0.00    +0.013 A 
ATOM      6  C   LIG    1       28.545 -19.848   6.727  0.00  0.00    +0.055 A 
ATOM      7  C   LIG    1       27.623 -19.890   5.671  0.00  0.00    +0.013 A 
ATOM      8  C   LIG    1       26.477 -20.682   5.764  0.00  0.00    +0.010 A 
BRANCH   6   9
ATOM      9  C   LIG    1       29.803 -19.021   6.621  0.00  0.00    +0.417 C 
ATOM     10  F   LIG    1       29.893 -18.082   7.604  0.00  0.00    -0.166 F 
ATOM     11  F   LIG    1       29.881 -18.339   5.445  0.00  0.00    -0.166 F 
ATOM     12  F   LIG    1       30.947 -19.757   6.703  0.00  0.00    -0.166 F 
ENDBRANCH   6   9
ENDBRANCH   1   3
BRANCH   1  13
ATOM     13  C   LIG    1       23.738 -21.788   7.590  0.00  0.00    +0.059 C 
BRANCH  13  14
ATOM     14  C   LIG    1       23.310 -20.463   6.962  0.00  0.00    +0.009 C 
BRANCH  14  15
ATOM     15  C   LIG    1       22.819 -20.666   5.527  0.00  0.00    +0.028 C 
BRANCH  15  16
ATOM     16  C   LIG    1       22.511 -19.340   4.839  0.00  0.00    +0.159 C 
BRANCH  16  18
ATOM     17  C   LIG    1       24.050 -20.300   3.335  0.00  0.00    +0.193 C 
ATOM     18  O   LIG    1       23.505 -19.093   3.847  0.00  0.00    -0.383 OA
ENDBRANCH  16  18
ENDBRANCH  15  16
ENDBRANCH  14  15
ENDBRANCH  13  14
ENDBRANCH   1  13
BRANCH   2  19
ATOM     19  O   LIG    1       23.909 -24.224   6.488  0.00  0.00    -0.392 OA
BRANCH  19  20
ATOM     20  C   LIG    1       24.160 -25.567   6.064  0.00  0.00    +0.277 C 
BRANCH  20  21
ATOM     21  C   LIG    1       25.254 -25.575   4.991  0.00  0.00    +0.121 C 
BRANCH  21  22
ATOM     22  N   LIG    1       26.474 -26.254   5.431  0.00  0.00    -0.327 NA
ATOM     23  H   LIG    1       26.831 -26.823   4.664  0.00  0.00    +0.118 HD
ATOM     24  H   LIG    1       27.196 -25.568   5.642  0.00  0.00    +0.118 HD
ENDBRANCH  21  22
ENDBRANCH  20  21
ENDBRANCH  19  20
ENDBRANCH   2  19
TORSDOF 11
ENDMDL
MODEL 2
REMARK VINA RESULT:      -7.7      3.974      6.009
REMARK  Name = *****
REMARK                            x       y       z     vdW  Elec       q    Type
REMARK                         _______ _______ _______ _____ _____    ______ ____
ROOT
ATOM      1  C   LIG    1       26.402 -21.630   7.380  0.00  0.00    +0.087 C 
ATOM      2  N   LIG    1       27.457 -20.912   7.651  0.00  0.00    -0.089 NA
ENDROOT
BRANCH   1   3
ATOM      3  C   LIG    1       25.305 -20.983   6.594  0.00  0.00    -0.001 A 
ATOM      4  C   LIG    1       24.012 -20.827   7.105  0.00  0.00    +0.010 A 
ATOM      5  C   LIG    1       23.035 -20.164   6.351  0.00  0.00    +0.013 A 
ATOM      6  C   LIG    1       23.334 -19.651   5.079  0.00  0.00    +0.055 A 
ATOM      7  C   LIG    1       24.627 -19.824   4.568  0.00  0.00    +0.013 A 
ATOM      8  C   LIG    1       25.603 -20.481   5.320  0.00  0.00    +0.010 A 
BRANCH   6   9
ATOM      9  C   LIG    1       22.282 -18.913   4.286  0.00  0.00    +0.417 C 
ATOM     10  F   LIG    1       21.101 -19.591   4.230  0.00  0.00    -0.166 F 
ATOM     11  F   LIG    1       22.655 -18.705   2.993  0.00  0.00    -0.166 F 
ATOM     12  F   LIG    1       21.981 -17.684   4.791  0.00  0.00    -0.166 F 
ENDBRANCH   6   9
ENDBRANCH   1   3
BRANCH   1  13
ATOM     13  C   LIG    1       26.233 -23.074   7.829  0.00  0.00    +0.059 C 
BRANCH  13  14
ATOM     14  C   LIG    1       25.932 -23.986   6.642  0.00  0.00    +0.009 C 
BRANCH  14  15
ATOM     15  C   LIG    1       24.478 -24.461   6.665  0.00  0.00    +0.028 C 
BRANCH  15  16
ATOM     16  C   LIG    1       24.267 -25.691   5.788  0.00  0.00    +0.159 C 
BRANCH  16  18
ATOM     17  C   LIG    1       25.839 -27.148   4.809  0.00  0.00    +0.193 C 
ATOM     18  O   LIG    1       25.367 -25.810   4.889  0.00  0.00    -0.383 OA
ENDBRANCH  16  18
ENDBRANCH  15  16
ENDBRANCH  14  15
ENDBRANCH  13  14
ENDBRANCH   1  13
BRANCH   2  19
ATOM     19  O   LIG    1       28.413 -21.621   8.388  0.00  0.00    -0.392 OA
BRANCH  19  20
ATOM     20  C   LIG    1       29.714 -21.251   7.920  0.00  0.00    +0.277 C 
BRANCH  20  21
ATOM     21  C   LIG    1       30.731 -21.386   9.058  0.00  0.00    +0.121 C 
BRANCH  21  22
ATOM     22  N   LIG    1       31.833 -22.292   8.728  0.00  0.00    -0.327 NA
ATOM     23  H   LIG    1       31.728 -23.151   9.267  0.00  0.00    +0.118 HD
ATOM     24  H   LIG    1       31.782 -22.558   7.747  0.00  0.00    +0.118 HD
ENDBRANCH  21  22
ENDBRANCH  20  21
ENDBRANCH  19  20
ENDBRANCH   2  19
TORSDOF 11
ENDMDL
MODEL 3
REMARK VINA RESULT:      -7.6      3.491      5.111
REMARK  Name = *****
REMARK                            x       y       z     vdW  Elec       q    Type
REMARK                         _______ _______ _______ _____ _____    ______ ____
ROOT
ATOM      1  C   LIG    1       25.196 -23.083   6.252  0.00  0.00    +0.087 C 
ATOM      2  N   LIG    1       24.842 -24.262   5.823  0.00  0.00    -0.089 NA
ENDROOT
BRANCH   1   3
ATOM      3  C   LIG    1       24.427 -21.900   5.750  0.00  0.00    -0.001 A 
ATOM      4  C   LIG    1       23.143 -21.594   6.213  0.00  0.00    +0.010 A 
ATOM      5  C   LIG    1       22.488 -20.444   5.753  0.00  0.00    +0.013 A 
ATOM      6  C   LIG    1       23.102 -19.589   4.825  0.00  0.00    +0.055 A 
ATOM      7  C   LIG    1       24.383 -19.911   4.355  0.00  0.00    +0.013 A 
ATOM      8  C   LIG    1       25.039 -21.054   4.816  0.00  0.00    +0.010 A 
BRANCH   6   9
ATOM      9  C   LIG    1       22.400 -18.337   4.357  0.00  0.00    +0.417 C 
ATOM     10  F   LIG    1       22.000 -17.547   5.392  0.00  0.00    -0.166 F 
ATOM     11  F   LIG    1       21.276 -18.608   3.638  0.00  0.00    -0.166 F 
ATOM     12  F   LIG    1       23.171 -17.545   3.561  0.00  0.00    -0.166 F 
ENDBRANCH   6   9
ENDBRANCH   1   3
BRANCH   1  13
ATOM     13  C   LIG    1       26.347 -22.854   7.221  0.00  0.00    +0.059 C 
BRANCH  13  14
ATOM     14  C   LIG    1       25.867 -22.152   8.489  0.00  0.00    +0.009 C 
BRANCH  14  15
ATOM     15  C   LIG    1       26.187 -20.656   8.447  0.00  0.00    +0.028 C 
BRANCH  15  16
ATOM     16  C   LIG    1       27.397 -20.358   7.568  0.00  0.00    +0.159 C 
BRANCH  16  18
ATOM     17  C   LIG    1       29.745 -20.503   7.706  0.00  0.00    +0.193 C 
ATOM     18  O   LIG    1       28.544 -20.199   8.400  0.00  0.00    -0.383 OA
ENDBRANCH  16  18
ENDBRANCH  15  16
ENDBRANCH  14  15
ENDBRANCH  13  14
ENDBRANCH   1  13
BRANCH   2  19
ATOM     19  O   LIG    1       25.630 -25.287   6.359  0.00  0.00    -0.392 OA
BRANCH  19  20
ATOM     20  C   LIG    1       24.968 -26.535   6.133  0.00  0.00    +0.277 C 
BRANCH  20  21
ATOM     21  C   LIG    1       25.731 -27.342   5.078  0.00  0.00    +0.121 C 
BRANCH  21  22
ATOM     22  N   LIG    1       27.175 -27.102   5.115  0.00  0.00    -0.327 NA
ATOM     23  H   LIG    1       27.471 -27.018   6.087  0.00  0.00    +0.118 HD
ATOM     24  H   LIG    1       27.670 -27.904   4.731  0.00  0.00    +0.118 HD
ENDBRANCH  21  22
ENDBRANCH  20  21
ENDBRANCH  19  20
ENDBRANCH   2  19
TORSDOF 11
ENDMDL
MODEL 4
REMARK VINA RESULT:      -7.4      1.917      4.103
REMARK  Name = *****
REMARK                            x       y       z     vdW  Elec       q    Type
REMARK                         _______ _______ _______ _____ _____    ______ ____
ROOT
ATOM      1  C   LIG    1       24.968 -21.384   6.668  0.00  0.00    +0.087 C 
ATOM      2  N   LIG    1       24.132 -20.797   5.858  0.00  0.00    -0.089 NA
ENDROOT
BRANCH   1   3
ATOM      3  C   LIG    1       26.343 -20.804   6.790  0.00  0.00    -0.001 A 
ATOM      4  C   LIG    1       27.096 -20.908   7.963  0.00  0.00    +0.010 A 
ATOM      5  C   LIG    1       28.400 -20.397   8.008  0.00  0.00    +0.013 A 
ATOM      6  C   LIG    1       28.967 -19.775   6.885  0.00  0.00    +0.055 A 
ATOM      7  C   LIG    1       28.200 -19.662   5.717  0.00  0.00    +0.013 A 
ATOM      8  C   LIG    1       26.902 -20.174   5.670  0.00  0.00    +0.010 A 
BRANCH   6   9
ATOM      9  C   LIG    1       30.383 -19.253   6.933  0.00  0.00    +0.417 C 
ATOM     10  F   LIG    1       30.879 -18.979   5.694  0.00  0.00    -0.166 F 
ATOM     11  F   LIG    1       31.247 -20.143   7.493  0.00  0.00    -0.166 F 
ATOM     12  F   LIG    1       30.515 -18.102   7.650  0.00  0.00    -0.166 F 
ENDBRANCH   6   9
ENDBRANCH   1   3
BRANCH   1  13
ATOM     13  C   LIG    1       24.618 -22.624   7.480  0.00  0.00    +0.059 C 
BRANCH  13  14
ATOM     14  C   LIG    1       25.128 -23.890   6.795  0.00  0.00    +0.009 C 
BRANCH  14  15
ATOM     15  C   LIG    1       23.971 -24.820   6.422  0.00  0.00    +0.028 C 
BRANCH  15  16
ATOM     16  C   LIG    1       24.384 -25.847   5.373  0.00  0.00    +0.159 C 
BRANCH  16  18
ATOM     17  C   LIG    1       26.400 -27.019   5.031  0.00  0.00    +0.193 C 
ATOM     18  O   LIG    1       25.789 -25.742   5.152  0.00  0.00    -0.383 OA
ENDBRANCH  16  18
ENDBRANCH  15  16
ENDBRANCH  14  15
ENDBRANCH  13  14
ENDBRANCH   1  13
BRANCH   2  19
ATOM     19  O   LIG    1       22.882 -21.426   5.828  0.00  0.00    -0.392 OA
BRANCH  19  20
ATOM     20  C   LIG    1       22.060 -20.757   4.866  0.00  0.00    +0.277 C 
BRANCH  20  21
ATOM     21  C   LIG    1       22.389 -19.261   4.856  0.00  0.00    +0.121 C 
BRANCH  21  22
ATOM     22  N   LIG    1       23.318 -18.892   3.785  0.00  0.00    -0.327 NA
ATOM     23  H   LIG    1       24.144 -19.487   3.845  0.00  0.00    +0.118 HD
ATOM     24  H   LIG    1       22.893 -19.078   2.879  0.00  0.00    +0.118 HD
ENDBRANCH  21  22
ENDBRANCH  20  21
ENDBRANCH  19  20
ENDBRANCH   2  19
TORSDOF 11
ENDMDL
MODEL 5
REMARK VINA RESULT:      -7.2      4.196      6.450
REMARK  Name = *****
REMARK                            x       y       z     vdW  Elec       q    Type
REMARK                         _______ _______ _______ _____ _____    ______ ____
ROOT
ATOM      1  C   LIG    1       24.026 -21.686   6.690  0.00  0.00    +0.087 C 
ATOM      2  N   LIG    1       23.033 -21.259   5.961  0.00  0.00    -0.089 NA
ENDROOT
BRANCH   1   3
ATOM      3  C   LIG    1       24.333 -23.151   6.659  0.00  0.00    -0.001 A 
ATOM      4  C   LIG    1       23.346 -24.115   6.435  0.00  0.00    +0.010 A 
ATOM      5  C   LIG    1       23.694 -25.471   6.358  0.00  0.00    +0.013 A 
ATOM      6  C   LIG    1       25.028 -25.879   6.508  0.00  0.00    +0.055 A 
ATOM      7  C   LIG    1       26.010 -24.908   6.746  0.00  0.00    +0.013 A 
ATOM      8  C   LIG    1       25.665 -23.557   6.818  0.00  0.00    +0.010 A 
BRANCH   6   9
ATOM      9  C   LIG    1       25.398 -27.339   6.396  0.00  0.00    +0.417 C 
ATOM     10  F   LIG    1       24.310 -28.138   6.208  0.00  0.00    -0.166 F 
ATOM     11  F   LIG    1       26.017 -27.807   7.514  0.00  0.00    -0.166 F 
ATOM     12  F   LIG    1       26.242 -27.610   5.360  0.00  0.00    -0.166 F 
ENDBRANCH   6   9
ENDBRANCH   1   3
BRANCH   1  13
ATOM     13  C   LIG    1       24.872 -20.775   7.569  0.00  0.00    +0.059 C 
BRANCH  13  14
ATOM     14  C   LIG    1       26.169 -20.382   6.865  0.00  0.00    +0.009 C 
BRANCH  14  15
ATOM     15  C   LIG    1       27.357 -20.433   7.828  0.00  0.00    +0.028 C 
BRANCH  15  16
ATOM     16  C   LIG    1       28.669 -20.697   7.097  0.00  0.00    +0.159 C 
BRANCH  16  18
ATOM     17  C   LIG    1       30.320 -19.124   6.501  0.00  0.00    +0.193 C 
ATOM     18  O   LIG    1       28.986 -19.564   6.291  0.00  0.00    -0.383 OA
ENDBRANCH  16  18
ENDBRANCH  15  16
ENDBRANCH  14  15
ENDBRANCH  13  14
ENDBRANCH   1  13
BRANCH   2  19
ATOM     19  O   LIG    1       22.841 -19.877   6.070  0.00  0.00    -0.392 OA
BRANCH  19  20
ATOM     20  C   LIG    1       22.454 -19.369   4.790  0.00  0.00    +0.277 C 
BRANCH  20  21
ATOM     21  C   LIG    1       23.700 -19.095   3.943  0.00  0.00    +0.121 C 
BRANCH  21  22
ATOM     22  N   LIG    1       24.269 -20.312   3.360  0.00  0.00    -0.327 NA
ATOM     23  H   LIG    1       25.233 -20.128   3.086  0.00  0.00    +0.118 HD
ATOM     24  H   LIG    1       24.303 -21.049   4.061  0.00  0.00    +0.118 HD
ENDBRANCH  21  22
ENDBRANCH  20  21
ENDBRANCH  19  20
ENDBRANCH   2  19
TORSDOF 11
ENDMDL
MODEL 6
REMARK VINA RESULT:      -7.0      4.484      6.284
REMARK  Name = *****
REMARK                            x       y       z     vdW  Elec       q    Type
REMARK                         _______ _______ _______ _____ _____    ______ ____
ROOT
ATOM      1  C   LIG    1       25.101 -22.612   6.942  0.00  0.00    +0.087 C 
ATOM      2  N   LIG    1       26.220 -21.966   6.769  0.00  0.00    -0.089 NA
ENDROOT
BRANCH   1   3
ATOM      3  C   LIG    1       25.084 -24.073   6.616  0.00  0.00    -0.001 A 
ATOM      4  C   LIG    1       26.237 -24.862   6.665  0.00  0.00    +0.010 A 
ATOM      5  C   LIG    1       26.159 -26.237   6.406  0.00  0.00    +0.013 A 
ATOM      6  C   LIG    1       24.931 -26.840   6.093  0.00  0.00    +0.055 A 
ATOM      7  C   LIG    1       23.781 -26.040   6.032  0.00  0.00    +0.013 A 
ATOM      8  C   LIG    1       23.858 -24.671   6.294  0.00  0.00    +0.010 A 
BRANCH   6   9
ATOM      9  C   LIG    1       24.851 -28.327   5.843  0.00  0.00    +0.417 C 
ATOM     10  F   LIG    1       25.954 -28.807   5.203  0.00  0.00    -0.166 F 
ATOM     11  F   LIG    1       23.789 -28.668   5.063  0.00  0.00    -0.166 F 
ATOM     12  F   LIG    1       24.731 -29.065   6.982  0.00  0.00    -0.166 F 
ENDBRANCH   6   9
ENDBRANCH   1   3
BRANCH   1  13
ATOM     13  C   LIG    1       23.822 -21.956   7.445  0.00  0.00    +0.059 C 
BRANCH  13  14
ATOM     14  C   LIG    1       22.900 -21.589   6.284  0.00  0.00    +0.009 C 
BRANCH  14  15
ATOM     15  C   LIG    1       22.904 -20.080   6.031  0.00  0.00    +0.028 C 
BRANCH  15  16
ATOM     16  C   LIG    1       22.934 -19.753   4.542  0.00  0.00    +0.159 C 
BRANCH  16  18
ATOM     17  C   LIG    1       25.101 -19.773   3.617  0.00  0.00    +0.193 C 
ATOM     18  O   LIG    1       23.945 -20.541   3.917  0.00  0.00    -0.383 OA
ENDBRANCH  16  18
ENDBRANCH  15  16
ENDBRANCH  14  15
ENDBRANCH  13  14
ENDBRANCH   1  13
BRANCH   2  19
ATOM     19  O   LIG    1       26.115 -20.611   7.105  0.00  0.00    -0.392 OA
BRANCH  19  20
ATOM     20  C   LIG    1       27.335 -20.202   7.731  0.00  0.00    +0.277 C 
BRANCH  20  21
ATOM     21  C   LIG    1       28.509 -20.431   6.774  0.00  0.00    +0.121 C 
BRANCH  21  22
ATOM     22  N   LIG    1       28.190 -20.075   5.390  0.00  0.00    -0.327 NA
ATOM     23  H   LIG    1       27.441 -20.681   5.056  0.00  0.00    +0.118 HD
ATOM     24  H   LIG    1       27.831 -19.123   5.351  0.00  0.00    +0.118 HD
ENDBRANCH  21  22
ENDBRANCH  20  21
ENDBRANCH  19  20
ENDBRANCH   2  19
TORSDOF 11
ENDMDL
MODEL 7
REMARK VINA RESULT:      -7.0      4.776      7.112
REMARK  Name = *****
REMARK                            x       y       z     vdW  Elec       q    Type
REMARK                         _______ _______ _______ _____ _____    ______ ____
ROOT
ATOM      1  C   LIG    1       24.991 -22.929   6.660  0.00  0.00    +0.087 C 
ATOM      2  N   LIG    1       24.334 -22.243   5.766  0.00  0.00    -0.089 NA
ENDROOT
BRANCH   1   3
ATOM      3  C   LIG    1       25.036 -24.416   6.499  0.00  0.00    -0.001 A 
ATOM      4  C   LIG    1       26.048 -25.198   7.064  0.00  0.00    +0.010 A 
ATOM      5  C   LIG    1       26.014 -26.593   6.933  0.00  0.00    +0.013 A 
ATOM      6  C   LIG    1       24.972 -27.223   6.235  0.00  0.00    +0.055 A 
ATOM      7  C   LIG    1       23.969 -26.432   5.659  0.00  0.00    +0.013 A 
ATOM      8  C   LIG    1       24.000 -25.043   5.793  0.00  0.00    +0.010 A 
BRANCH   6   9
ATOM      9  C   LIG    1       24.928 -28.728   6.123  0.00  0.00    +0.417 C 
ATOM     10  F   LIG    1       23.677 -29.194   5.853  0.00  0.00    -0.166 F 
ATOM     11  F   LIG    1       25.318 -29.348   7.270  0.00  0.00    -0.166 F 
ATOM     12  F   LIG    1       25.730 -29.225   5.139  0.00  0.00    -0.166 F 
ENDBRANCH   6   9
ENDBRANCH   1   3
BRANCH   1  13
ATOM     13  C   LIG    1       25.698 -22.295   7.850  0.00  0.00    +0.059 C 
BRANCH  13  14
ATOM     14  C   LIG    1       27.115 -21.862   7.480  0.00  0.00    +0.009 C 
BRANCH  14  15
ATOM     15  C   LIG    1       27.335 -20.378   7.781  0.00  0.00    +0.028 C 
BRANCH  15  16
ATOM     16  C   LIG    1       28.812 -20.003   7.745  0.00  0.00    +0.159 C 
BRANCH  16  18
ATOM     17  C   LIG    1       30.938 -20.662   8.520  0.00  0.00    +0.193 C 
ATOM     18  O   LIG    1       29.553 -20.973   8.484  0.00  0.00    -0.383 OA
ENDBRANCH  16  18
ENDBRANCH  15  16
ENDBRANCH  14  15
ENDBRANCH  13  14
ENDBRANCH   1  13
BRANCH   2  19
ATOM     19  O   LIG    1       24.362 -20.866   6.020  0.00  0.00    -0.392 OA
BRANCH  19  20
ATOM     20  C   LIG    1       23.824 -20.184   4.883  0.00  0.00    +0.277 C 
BRANCH  20  21
ATOM     21  C   LIG    1       24.911 -20.020   3.816  0.00  0.00    +0.121 C 
BRANCH  21  22
ATOM     22  N   LIG    1       26.264 -20.160   4.359  0.00  0.00    -0.327 NA
ATOM     23  H   LIG    1       26.918 -20.287   3.587  0.00  0.00    +0.118 HD
ATOM     24  H   LIG    1       26.538 -19.302   4.832  0.00  0.00    +0.118 HD
ENDBRANCH  21  22
ENDBRANCH  20  21
ENDBRANCH  19  20
ENDBRANCH   2  19
TORSDOF 11
ENDMDL
MODEL 8
REMARK VINA RESULT:      -6.8      1.407      2.003
REMARK  Name = *****
REMARK                            x       y       z     vdW  Elec       q    Type
REMARK                         _______ _______ _______ _____ _____    ______ ____
ROOT
ATOM      1  C   LIG    1       26.443 -21.977   6.747  0.00  0.00    +0.087 C 
ATOM      2  N   LIG    1       26.404 -23.212   7.164  0.00  0.00    -0.089 NA
ENDROOT
BRANCH   1   3
ATOM      3  C   LIG    1       27.699 -21.200   6.991  0.00  0.00    -0.001 A 
ATOM      4  C   LIG    1       27.986 -20.012   6.311  0.00  0.00    +0.010 A 
ATOM      5  C   LIG    1       29.149 -19.292   6.616  0.00  0.00    +0.013 A 
ATOM      6  C   LIG    1       30.039 -19.749   7.600  0.00  0.00    +0.055 A 
ATOM      7  C   LIG    1       29.752 -20.948   8.267  0.00  0.00    +0.013 A 
ATOM      8  C   LIG    1       28.592 -21.663   7.967  0.00  0.00    +0.010 A 
BRANCH   6   9
ATOM      9  C   LIG    1       31.275 -18.951   7.942  0.00  0.00    +0.417 C 
ATOM     10  F   LIG    1       30.998 -17.639   8.182  0.00  0.00    -0.166 F 
ATOM     11  F   LIG    1       32.196 -18.961   6.939  0.00  0.00    -0.166 F 
ATOM     12  F   LIG    1       31.925 -19.403   9.051  0.00  0.00    -0.166 F 
ENDBRANCH   6   9
ENDBRANCH   1   3
BRANCH   1  13
ATOM     13  C   LIG    1       25.281 -21.294   6.040  0.00  0.00    +0.059 C 
BRANCH  13  14
ATOM     14  C   LIG    1       24.320 -20.665   7.046  0.00  0.00    +0.009 C 
BRANCH  14  15
ATOM     15  C   LIG    1       22.863 -20.910   6.645  0.00  0.00    +0.028 C 
BRANCH  15  16
ATOM     16  C   LIG    1       22.655 -20.764   5.142  0.00  0.00    +0.159 C 
BRANCH  16  18
ATOM     17  C   LIG    1       23.319 -18.888   3.879  0.00  0.00    +0.193 C 
ATOM     18  O   LIG    1       22.404 -19.392   4.842  0.00  0.00    -0.383 OA
ENDBRANCH  16  18
ENDBRANCH  15  16
ENDBRANCH  14  15
ENDBRANCH  13  14
ENDBRANCH   1  13
BRANCH   2  19
ATOM     19  O   LIG    1       25.184 -23.836   6.881  0.00  0.00    -0.392 OA
BRANCH  19  20
ATOM     20  C   LIG    1       25.430 -25.223   6.631  0.00  0.00    +0.277 C 
BRANCH  20  21
ATOM     21  C   LIG    1       25.344 -25.500   5.127  0.00  0.00    +0.121 C 
BRANCH  21  22
ATOM     22  N   LIG    1       24.834 -24.357   4.367  0.00  0.00    -0.327 NA
ATOM     23  H   LIG    1       24.466 -23.664   5.019  0.00  0.00    +0.118 HD
ATOM     24  H   LIG    1       25.596 -23.906   3.866  0.00  0.00    +0.118 HD
ENDBRANCH  21  22
ENDBRANCH  20  21
ENDBRANCH  19  20
ENDBRANCH   2  19
TORSDOF 11
ENDMDL
MODEL 9
REMARK VINA RESULT:      -6.6      2.152      4.354
REMARK  Name = *****
REMARK                            x       y       z     vdW  Elec       q    Type
REMARK                         _______ _______ _______ _____ _____    ______ ____
ROOT
ATOM      1  C   LIG    1       25.965 -20.553   5.636  0.00  0.00    +0.087 C 
ATOM      2  N   LIG    1       25.638 -20.020   4.492  0.00  0.00    -0.089 NA
ENDROOT
BRANCH   1   3
ATOM      3  C   LIG    1       27.260 -20.128   6.256  0.00  0.00    -0.001 A 
ATOM      4  C   LIG    1       28.252 -19.461   5.530  0.00  0.00    +0.010 A 
ATOM      5  C   LIG    1       29.423 -19.034   6.170  0.00  0.00    +0.013 A 
ATOM      6  C   LIG    1       29.620 -19.270   7.539  0.00  0.00    +0.055 A 
ATOM      7  C   LIG    1       28.627 -19.953   8.257  0.00  0.00    +0.013 A 
ATOM      8  C   LIG    1       27.459 -20.374   7.621  0.00  0.00    +0.010 A 
BRANCH   6   9
ATOM      9  C   LIG    1       30.872 -18.782   8.227  0.00  0.00    +0.417 C 
ATOM     10  F   LIG    1       30.769 -17.487   8.638  0.00  0.00    -0.166 F 
ATOM     11  F   LIG    1       31.965 -18.830   7.416  0.00  0.00    -0.166 F 
ATOM     12  F   LIG    1       31.200 -19.500   9.338  0.00  0.00    -0.166 F 
ENDBRANCH   6   9
ENDBRANCH   1   3
BRANCH   1  13
ATOM     13  C   LIG    1       25.107 -21.582   6.357  0.00  0.00    +0.059 C 
BRANCH  13  14
ATOM     14  C   LIG    1       25.067 -22.901   5.588  0.00  0.00    +0.009 C 
BRANCH  14  15
ATOM     15  C   LIG    1       24.664 -24.061   6.501  0.00  0.00    +0.028 C 
BRANCH  15  16
ATOM     16  C   LIG    1       25.866 -24.905   6.911  0.00  0.00    +0.159 C 
BRANCH  16  18
ATOM     17  C   LIG    1       24.297 -26.445   6.062  0.00  0.00    +0.193 C 
ATOM     18  O   LIG    1       25.610 -26.267   6.574  0.00  0.00    -0.383 OA
ENDBRANCH  16  18
ENDBRANCH  15  16
ENDBRANCH  14  15
ENDBRANCH  13  14
ENDBRANCH   1  13
BRANCH   2  19
ATOM     19  O   LIG    1       24.411 -20.492   4.011  0.00  0.00    -0.392 OA
BRANCH  19  20
ATOM     20  C   LIG    1       23.480 -19.405   3.996  0.00  0.00    +0.277 C 
BRANCH  20  21
ATOM     21  C   LIG    1       22.296 -19.725   4.914  0.00  0.00    +0.121 C 
BRANCH  21  22
ATOM     22  N   LIG    1       21.921 -21.140   4.883  0.00  0.00    -0.327 NA
ATOM     23  H   LIG    1       21.792 -21.427   3.913  0.00  0.00    +0.118 HD
ATOM     24  H   LIG    1       22.679 -21.708   5.254  0.00  0.00    +0.118 HD
ENDBRANCH  21  22
ENDBRANCH  20  21
ENDBRANCH  19  20
ENDBRANCH   2  19
TORSDOF 11
ENDMDL
