MODEL 1
REMARK VINA RESULT:      -5.1      0.000      0.000
REMARK  Name = *****
REMARK                            x       y       z     vdW  Elec       q    Type
REMARK                         _______ _______ _______ _____ _____    ______ ____
ROOT
ATOM      1  C   LIG    1       23.747 -27.957  13.091  0.00  0.00    +0.062 A 
ATOM      2  C   LIG    1       22.521 -28.380  13.657  0.00  0.00    +0.058 A 
ATOM      3  I   LIG    1       21.408 -27.079  14.914  0.00  0.00    -0.040 I 
ATOM      4  C   LIG    1       21.935 -29.600  13.288  0.00  0.00    +0.065 A 
ATOM      5  C   LIG    1       22.418 -30.200  12.098  0.00  0.00    +0.049 A 
ATOM      6  I   LIG    1       20.906 -30.996  10.811  0.00  0.00    -0.041 I 
ATOM      7  C   LIG    1       23.702 -29.877  11.613  0.00  0.00    +0.067 A 
ATOM      8  C   LIG    1       24.414 -28.876  12.268  0.00  0.00    +0.049 A 
ATOM      9  I   LIG    1       26.500 -29.308  12.753  0.00  0.00    -0.041 I 
ENDROOT
BRANCH   1  12
ATOM     10  C   LIG    1       25.287 -24.701  14.311  0.00  0.00    +0.109 C 
ATOM     11  C   LIG    1       24.942 -26.175  14.408  0.00  0.00    +0.214 C 
ATOM     12  N   LIG    1       24.181 -26.627  13.335  0.00  0.00    -0.284 N 
ATOM     13  H   LIG    1       24.127 -26.006  12.541  0.00  0.00    +0.155 HD
ATOM     14  O   LIG    1       25.315 -26.821  15.342  0.00  0.00    -0.276 OA
ENDBRANCH   1  12
BRANCH   4  15
ATOM     15  N   LIG    1       21.317 -30.435  14.304  0.00  0.00    -0.273 N 
ATOM     16  C   LIG    1       19.916 -30.427  14.406  0.00  0.00    +0.216 C 
ATOM     17  O   LIG    1       19.199 -29.771  13.648  0.00  0.00    -0.276 OA
ATOM     18  C   LIG    1       19.280 -31.290  15.485  0.00  0.00    +0.110 C 
ATOM     19  C   LIG    1       22.167 -31.288  15.122  0.00  0.00    +0.138 C 
ENDBRANCH   4  15
BRANCH   7  20
ATOM     20  C   LIG    1       24.316 -30.593  10.457  0.00  0.00    +0.247 C 
ATOM     21  N   LIG    1       24.758 -29.864   9.357  0.00  0.00    -0.301 N 
ATOM     22  H   LIG    1       24.616 -28.877   9.350  0.00  0.00    +0.150 HD
ATOM     23  O   LIG    1       24.415 -31.817  10.461  0.00  0.00    -0.270 OA
BRANCH  21  24
ATOM     24  C   LIG    1       25.411 -30.527   8.223  0.00  0.00    +0.160 C 
ATOM     25  C   LIG    1       24.410 -31.089   7.219  0.00  0.00    +0.170 C 
ATOM     26  C   LIG    1       25.141 -31.739   6.038  0.00  0.00    +0.176 C 
ATOM     27  C   LIG    1       26.175 -32.770   6.520  0.00  0.00    +0.178 C 
ATOM     28  O   LIG    1       27.059 -32.191   7.490  0.00  0.00    -0.341 OA
ATOM     29  C   LIG    1       26.381 -31.679   8.636  0.00  0.00    +0.270 C 
BRANCH  25  30
ATOM     30  O   LIG    1       23.561 -30.068   6.670  0.00  0.00    -0.387 OA
ATOM     31  H   LIG    1       24.125 -29.413   6.217  0.00  0.00    +0.210 HD
ENDBRANCH  25  30
BRANCH  26  32
ATOM     32  O   LIG    1       24.185 -32.342   5.156  0.00  0.00    -0.387 OA
ATOM     33  H   LIG    1       24.417 -33.294   5.136  0.00  0.00    +0.210 HD
ENDBRANCH  26  32
BRANCH  29  34
ATOM     34  O   LIG    1       27.359 -31.247   9.570  0.00  0.00    -0.365 OA
ATOM     35  H   LIG    1       26.941 -30.558  10.126  0.00  0.00    +0.212 HD
ENDBRANCH  29  34
BRANCH  27  36
ATOM     36  C   LIG    1       27.018 -33.278   5.336  0.00  0.00    +0.190 C 
BRANCH  36  37
ATOM     37  O   LIG    1       26.656 -32.684   4.093  0.00  0.00    -0.392 OA
ATOM     38  H   LIG    1       26.722 -33.378   3.402  0.00  0.00    +0.209 HD
ENDBRANCH  36  37
ENDBRANCH  27  36
ENDBRANCH  21  24
ENDBRANCH   7  20
TORSDOF 9
ENDMDL
MODEL 2
REMARK VINA RESULT:      -4.9      1.594      2.351
REMARK  Name = *****
REMARK                            x       y       z     vdW  Elec       q    Type
REMARK                         _______ _______ _______ _____ _____    ______ ____
ROOT
ATOM      1  C   LIG    1       25.250 -28.080  12.707  0.00  0.00    +0.062 A 
ATOM      2  C   LIG    1       24.169 -28.589  13.464  0.00  0.00    +0.058 A 
ATOM      3  I   LIG    1       23.419 -27.509  15.133  0.00  0.00    -0.040 I 
ATOM      4  C   LIG    1       23.470 -29.732  13.050  0.00  0.00    +0.065 A 
ATOM      5  C   LIG    1       23.648 -30.130  11.702  0.00  0.00    +0.049 A 
ATOM      6  I   LIG    1       21.855 -30.706  10.686  0.00  0.00    -0.041 I 
ATOM      7  C   LIG    1       24.800 -29.733  10.993  0.00  0.00    +0.067 A 
ATOM      8  C   LIG    1       25.679 -28.853  11.617  0.00  0.00    +0.049 A 
ATOM      9  I   LIG    1       27.803 -29.359  11.537  0.00  0.00    -0.041 I 
ENDROOT
BRANCH   1  12
ATOM     10  C   LIG    1       27.159 -25.067  14.028  0.00  0.00    +0.109 C 
ATOM     11  C   LIG    1       26.797 -26.539  13.961  0.00  0.00    +0.214 C 
ATOM     12  N   LIG    1       25.778 -26.807  13.053  0.00  0.00    -0.284 N 
ATOM     13  H   LIG    1       25.551 -26.060  12.412  0.00  0.00    +0.155 HD
ATOM     14  O   LIG    1       27.366 -27.332  14.650  0.00  0.00    -0.276 OA
ENDBRANCH   1  12
BRANCH   4  15
ATOM     15  N   LIG    1       23.066 -30.721  14.036  0.00  0.00    -0.273 N 
ATOM     16  C   LIG    1       21.725 -30.730  14.455  0.00  0.00    +0.216 C 
ATOM     17  O   LIG    1       20.880 -29.960  13.994  0.00  0.00    -0.276 OA
ATOM     18  C   LIG    1       21.317 -31.758  15.499  0.00  0.00    +0.110 C 
ATOM     19  C   LIG    1       24.046 -31.695  14.493  0.00  0.00    +0.138 C 
ENDBRANCH   4  15
BRANCH   7  20
ATOM     20  C   LIG    1       25.110 -30.252   9.629  0.00  0.00    +0.247 C 
ATOM     21  N   LIG    1       25.124 -31.626   9.407  0.00  0.00    -0.301 N 
ATOM     22  H   LIG    1       24.963 -32.237  10.180  0.00  0.00    +0.150 HD
ATOM     23  O   LIG    1       25.374 -29.481   8.711  0.00  0.00    -0.270 OA
BRANCH  21  24
ATOM     24  C   LIG    1       25.377 -32.174   8.070  0.00  0.00    +0.160 C 
ATOM     25  C   LIG    1       26.862 -32.381   7.795  0.00  0.00    +0.170 C 
ATOM     26  C   LIG    1       27.070 -32.987   6.401  0.00  0.00    +0.176 C 
ATOM     27  C   LIG    1       26.353 -32.161   5.321  0.00  0.00    +0.178 C 
ATOM     28  O   LIG    1       24.972 -31.969   5.658  0.00  0.00    -0.341 OA
ATOM     29  C   LIG    1       24.785 -31.311   6.910  0.00  0.00    +0.270 C 
BRANCH  25  30
ATOM     30  O   LIG    1       27.467 -33.285   8.734  0.00  0.00    -0.387 OA
ATOM     31  H   LIG    1       28.278 -33.648   8.329  0.00  0.00    +0.210 HD
ENDBRANCH  25  30
BRANCH  26  32
ATOM     32  O   LIG    1       28.475 -33.085   6.128  0.00  0.00    -0.387 OA
ATOM     33  H   LIG    1       28.909 -33.084   7.007  0.00  0.00    +0.210 HD
ENDBRANCH  26  32
BRANCH  29  34
ATOM     34  O   LIG    1       23.396 -31.068   7.077  0.00  0.00    -0.365 OA
ATOM     35  H   LIG    1       23.260 -30.103   6.991  0.00  0.00    +0.212 HD
ENDBRANCH  29  34
BRANCH  27  36
ATOM     36  C   LIG    1       26.426 -32.880   3.961  0.00  0.00    +0.190 C 
BRANCH  36  37
ATOM     37  O   LIG    1       25.363 -32.524   3.081  0.00  0.00    -0.392 OA
ATOM     38  H   LIG    1       25.729 -31.906   2.411  0.00  0.00    +0.209 HD
ENDBRANCH  36  37
ENDBRANCH  27  36
ENDBRANCH  21  24
ENDBRANCH   7  20
TORSDOF 9
ENDMDL
MODEL 3
REMARK VINA RESULT:      -4.3      2.377      2.825
REMARK  Name = *****
REMARK                            x       y       z     vdW  Elec       q    Type
REMARK                         _______ _______ _______ _____ _____    ______ ____
ROOT
ATOM      1  C   LIG    1       24.051 -29.065  12.746  0.00  0.00    +0.062 A 
ATOM      2  C   LIG    1       23.637 -30.124  13.589  0.00  0.00    +0.058 A 
ATOM      3  I   LIG    1       22.739 -29.716  15.470  0.00  0.00    -0.040 I 
ATOM      4  C   LIG    1       23.666 -31.455  13.147  0.00  0.00    +0.065 A 
ATOM      5  C   LIG    1       23.778 -31.656  11.749  0.00  0.00    +0.049 A 
ATOM      6  I   LIG    1       22.497 -33.172  10.950  0.00  0.00    -0.041 I 
ATOM      7  C   LIG    1       24.323 -30.647  10.930  0.00  0.00    +0.067 A 
ATOM      8  C   LIG    1       24.629 -29.423  11.518  0.00  0.00    +0.049 A 
ATOM      9  I   LIG    1       26.588 -28.571  11.060  0.00  0.00    -0.041 I 
ENDROOT
BRANCH   1  12
ATOM     10  C   LIG    1       24.077 -25.514  14.106  0.00  0.00    +0.109 C 
ATOM     11  C   LIG    1       24.638 -26.909  13.907  0.00  0.00    +0.214 C 
ATOM     12  N   LIG    1       23.798 -27.731  13.162  0.00  0.00    -0.284 N 
ATOM     13  H   LIG    1       23.044 -27.267  12.678  0.00  0.00    +0.155 HD
ATOM     14  O   LIG    1       25.697 -27.206  14.373  0.00  0.00    -0.276 OA
ENDBRANCH   1  12
BRANCH   4  15
ATOM     15  N   LIG    1       24.111 -32.501  14.054  0.00  0.00    -0.273 N 
ATOM     16  C   LIG    1       25.485 -32.593  14.336  0.00  0.00    +0.216 C 
ATOM     17  O   LIG    1       26.312 -31.803  13.875  0.00  0.00    -0.276 OA
ATOM     18  C   LIG    1       25.942 -33.701  15.272  0.00  0.00    +0.110 C 
ATOM     19  C   LIG    1       23.114 -33.358  14.677  0.00  0.00    +0.138 C 
ENDBRANCH   4  15
BRANCH   7  20
ATOM     20  C   LIG    1       24.606 -30.867   9.482  0.00  0.00    +0.247 C 
ATOM     21  N   LIG    1       25.901 -31.177   9.078  0.00  0.00    -0.301 N 
ATOM     22  H   LIG    1       26.623 -31.205   9.766  0.00  0.00    +0.150 HD
ATOM     23  O   LIG    1       23.713 -30.757   8.646  0.00  0.00    -0.270 OA
BRANCH  21  24
ATOM     24  C   LIG    1       26.210 -31.448   7.669  0.00  0.00    +0.160 C 
ATOM     25  C   LIG    1       25.387 -30.589   6.715  0.00  0.00    +0.170 C 
ATOM     26  C   LIG    1       25.772 -30.884   5.260  0.00  0.00    +0.176 C 
ATOM     27  C   LIG    1       25.694 -32.389   4.957  0.00  0.00    +0.178 C 
ATOM     28  O   LIG    1       26.455 -33.142   5.911  0.00  0.00    -0.341 OA
ATOM     29  C   LIG    1       26.025 -32.943   7.257  0.00  0.00    +0.270 C 
BRANCH  25  30
ATOM     30  O   LIG    1       25.605 -29.184   6.924  0.00  0.00    -0.387 OA
ATOM     31  H   LIG    1       26.525 -29.060   7.229  0.00  0.00    +0.210 HD
ENDBRANCH  25  30
BRANCH  26  32
ATOM     32  O   LIG    1       24.923 -30.136   4.380  0.00  0.00    -0.387 OA
ATOM     33  H   LIG    1       24.176 -29.833   4.938  0.00  0.00    +0.210 HD
ENDBRANCH  26  32
BRANCH  29  34
ATOM     34  O   LIG    1       26.763 -33.824   8.091  0.00  0.00    -0.365 OA
ATOM     35  H   LIG    1       26.906 -34.648   7.582  0.00  0.00    +0.212 HD
ENDBRANCH  29  34
BRANCH  27  36
ATOM     36  C   LIG    1       26.252 -32.682   3.551  0.00  0.00    +0.190 C 
BRANCH  36  37
ATOM     37  O   LIG    1       25.335 -32.368   2.508  0.00  0.00    -0.392 OA
ATOM     38  H   LIG    1       24.882 -31.532   2.753  0.00  0.00    +0.209 HD
ENDBRANCH  36  37
ENDBRANCH  27  36
ENDBRANCH  21  24
ENDBRANCH   7  20
TORSDOF 9
ENDMDL
MODEL 4
REMARK VINA RESULT:      -4.3      2.584      8.254
REMARK  Name = *****
REMARK                            x       y       z     vdW  Elec       q    Type
REMARK                         _______ _______ _______ _____ _____    ______ ____
ROOT
ATOM      1  C   LIG    1       24.466 -30.618  10.152  0.00  0.00    +0.062 A 
ATOM      2  C   LIG    1       25.325 -29.558  10.527  0.00  0.00    +0.058 A 
ATOM      3  I   LIG    1       26.646 -28.688   9.109  0.00  0.00    -0.040 I 
ATOM      4  C   LIG    1       25.225 -28.956  11.790  0.00  0.00    +0.065 A 
ATOM      5  C   LIG    1       24.031 -29.198  12.513  0.00  0.00    +0.049 A 
ATOM      6  I   LIG    1       23.193 -27.479  13.474  0.00  0.00    -0.041 I 
ATOM      7  C   LIG    1       23.247 -30.335  12.227  0.00  0.00    +0.067 A 
ATOM      8  C   LIG    1       23.622 -31.131  11.148  0.00  0.00    +0.049 A 
ATOM      9  I   LIG    1       23.689 -33.288  11.490  0.00  0.00    -0.041 I 
ENDROOT
BRANCH   1  12
ATOM     10  C   LIG    1       24.972 -32.249   6.754  0.00  0.00    +0.109 C 
ATOM     11  C   LIG    1       25.300 -31.989   8.212  0.00  0.00    +0.214 C 
ATOM     12  N   LIG    1       24.466 -31.041   8.796  0.00  0.00    -0.284 N 
ATOM     13  H   LIG    1       23.638 -30.800   8.271  0.00  0.00    +0.155 HD
ATOM     14  O   LIG    1       26.199 -32.572   8.740  0.00  0.00    -0.276 OA
ENDBRANCH   1  12
BRANCH   4  15
ATOM     15  N   LIG    1       26.435 -28.603  12.513  0.00  0.00    -0.273 N 
ATOM     16  C   LIG    1       27.194 -29.640  13.081  0.00  0.00    +0.216 C 
ATOM     17  O   LIG    1       26.892 -30.829  12.958  0.00  0.00    -0.276 OA
ATOM     18  C   LIG    1       28.449 -29.258  13.851  0.00  0.00    +0.110 C 
ATOM     19  C   LIG    1       26.839 -27.205  12.561  0.00  0.00    +0.138 C 
ENDBRANCH   4  15
BRANCH   7  20
ATOM     20  C   LIG    1       22.071 -30.718  13.061  0.00  0.00    +0.247 C 
ATOM     21  N   LIG    1       20.787 -30.452  12.593  0.00  0.00    -0.301 N 
ATOM     22  H   LIG    1       20.684 -29.974  11.724  0.00  0.00    +0.150 HD
ATOM     23  O   LIG    1       22.226 -31.243  14.160  0.00  0.00    -0.270 OA
BRANCH  21  24
ATOM     24  C   LIG    1       19.604 -30.857  13.361  0.00  0.00    +0.160 C 
ATOM     25  C   LIG    1       18.455 -31.313  12.468  0.00  0.00    +0.170 C 
ATOM     26  C   LIG    1       17.259 -31.758  13.318  0.00  0.00    +0.176 C 
ATOM     27  C   LIG    1       16.858 -30.672  14.329  0.00  0.00    +0.178 C 
ATOM     28  O   LIG    1       17.988 -30.258  15.109  0.00  0.00    -0.341 OA
ATOM     29  C   LIG    1       19.061 -29.748  14.319  0.00  0.00    +0.270 C 
BRANCH  25  30
ATOM     30  O   LIG    1       18.819 -32.435  11.647  0.00  0.00    -0.387 OA
ATOM     31  H   LIG    1       18.761 -32.161  10.711  0.00  0.00    +0.210 HD
ENDBRANCH  25  30
BRANCH  26  32
ATOM     32  O   LIG    1       16.160 -32.093  12.459  0.00  0.00    -0.387 OA
ATOM     33  H   LIG    1       16.538 -32.114  11.554  0.00  0.00    +0.210 HD
ENDBRANCH  26  32
BRANCH  29  34
ATOM     34  O   LIG    1       20.064 -29.262  15.198  0.00  0.00    -0.365 OA
ATOM     35  H   LIG    1       20.805 -28.945  14.642  0.00  0.00    +0.212 HD
ENDBRANCH  29  34
BRANCH  27  36
ATOM     36  C   LIG    1       15.775 -31.203  15.287  0.00  0.00    +0.190 C 
BRANCH  36  37
ATOM     37  O   LIG    1       15.775 -32.623  15.400  0.00  0.00    -0.392 OA
ATOM     38  H   LIG    1       16.316 -32.979  14.662  0.00  0.00    +0.209 HD
ENDBRANCH  36  37
ENDBRANCH  27  36
ENDBRANCH  21  24
ENDBRANCH   7  20
TORSDOF 9
ENDMDL
MODEL 5
REMARK VINA RESULT:      -4.1      2.621      8.188
REMARK  Name = *****
REMARK                            x       y       z     vdW  Elec       q    Type
REMARK                         _______ _______ _______ _____ _____    ______ ____
ROOT
ATOM      1  C   LIG    1       24.700 -30.528   9.909  0.00  0.00    +0.062 A 
ATOM      2  C   LIG    1       25.497 -29.710  10.744  0.00  0.00    +0.058 A 
ATOM      3  I   LIG    1       27.317 -28.883  10.024  0.00  0.00    -0.040 I 
ATOM      4  C   LIG    1       25.041 -29.300  12.006  0.00  0.00    +0.065 A 
ATOM      5  C   LIG    1       23.652 -29.432  12.250  0.00  0.00    +0.049 A 
ATOM      6  I   LIG    1       22.745 -27.759  13.228  0.00  0.00    -0.041 I 
ATOM      7  C   LIG    1       22.886 -30.353  11.506  0.00  0.00    +0.067 A 
ATOM      8  C   LIG    1       23.511 -31.027  10.461  0.00  0.00    +0.049 A 
ATOM      9  I   LIG    1       23.202 -33.187  10.358  0.00  0.00    -0.041 I 
ENDROOT
BRANCH   1  12
ATOM     10  C   LIG    1       25.316 -30.533   6.156  0.00  0.00    +0.109 C 
ATOM     11  C   LIG    1       24.577 -30.147   7.423  0.00  0.00    +0.214 C 
ATOM     12  N   LIG    1       25.115 -30.730   8.566  0.00  0.00    -0.284 N 
ATOM     13  H   LIG    1       26.026 -31.152   8.457  0.00  0.00    +0.155 HD
ATOM     14  O   LIG    1       23.633 -29.417   7.371  0.00  0.00    -0.276 OA
ENDBRANCH   1  12
BRANCH   4  15
ATOM     15  N   LIG    1       25.962 -29.284  13.130  0.00  0.00    -0.273 N 
ATOM     16  C   LIG    1       26.531 -28.054  13.504  0.00  0.00    +0.216 C 
ATOM     17  O   LIG    1       26.250 -26.995  12.940  0.00  0.00    -0.276 OA
ATOM     18  C   LIG    1       27.506 -28.051  14.670  0.00  0.00    +0.110 C 
ATOM     19  C   LIG    1       26.202 -30.522  13.857  0.00  0.00    +0.138 C 
ENDBRANCH   4  15
BRANCH   7  20
ATOM     20  C   LIG    1       21.458 -30.641  11.830  0.00  0.00    +0.247 C 
ATOM     21  N   LIG    1       21.130 -31.143  13.086  0.00  0.00    -0.301 N 
ATOM     22  H   LIG    1       21.866 -31.337  13.731  0.00  0.00    +0.150 HD
ATOM     23  O   LIG    1       20.578 -30.460  10.993  0.00  0.00    -0.270 OA
BRANCH  21  24
ATOM     24  C   LIG    1       19.733 -31.394  13.458  0.00  0.00    +0.160 C 
ATOM     25  C   LIG    1       19.097 -30.207  14.174  0.00  0.00    +0.170 C 
ATOM     26  C   LIG    1       17.631 -30.505  14.510  0.00  0.00    +0.176 C 
ATOM     27  C   LIG    1       17.492 -31.832  15.273  0.00  0.00    +0.178 C 
ATOM     28  O   LIG    1       18.143 -32.898  14.568  0.00  0.00    -0.341 OA
ATOM     29  C   LIG    1       19.533 -32.661  14.349  0.00  0.00    +0.270 C 
BRANCH  25  30
ATOM     30  O   LIG    1       19.104 -29.018  13.367  0.00  0.00    -0.387 OA
ATOM     31  H   LIG    1       18.212 -28.903  12.986  0.00  0.00    +0.210 HD
ENDBRANCH  25  30
BRANCH  26  32
ATOM     32  O   LIG    1       17.082 -29.416  15.263  0.00  0.00    -0.387 OA
ATOM     33  H   LIG    1       16.502 -28.935  14.636  0.00  0.00    +0.210 HD
ENDBRANCH  26  32
BRANCH  29  34
ATOM     34  O   LIG    1       20.091 -33.825  13.758  0.00  0.00    -0.365 OA
ATOM     35  H   LIG    1       21.016 -33.612  13.521  0.00  0.00    +0.212 HD
ENDBRANCH  29  34
BRANCH  27  36
ATOM     36  C   LIG    1       16.005 -32.199  15.444  0.00  0.00    +0.190 C 
BRANCH  36  37
ATOM     37  O   LIG    1       15.775 -33.605  15.472  0.00  0.00    -0.392 OA
ATOM     38  H   LIG    1       15.310 -33.811  16.312  0.00  0.00    +0.209 HD
ENDBRANCH  36  37
ENDBRANCH  27  36
ENDBRANCH  21  24
ENDBRANCH   7  20
TORSDOF 9
ENDMDL
MODEL 6
REMARK VINA RESULT:      -3.9      3.209      8.465
REMARK  Name = *****
REMARK                            x       y       z     vdW  Elec       q    Type
REMARK                         _______ _______ _______ _____ _____    ______ ____
ROOT
ATOM      1  C   LIG    1       24.450 -31.729  12.240  0.00  0.00    +0.062 A 
ATOM      2  C   LIG    1       24.401 -32.425  11.010  0.00  0.00    +0.058 A 
ATOM      3  I   LIG    1       25.916 -33.825  10.503  0.00  0.00    -0.040 I 
ATOM      4  C   LIG    1       23.285 -32.327  10.165  0.00  0.00    +0.065 A 
ATOM      5  C   LIG    1       22.098 -31.811  10.742  0.00  0.00    +0.049 A 
ATOM      6  I   LIG    1       20.310 -32.864  10.220  0.00  0.00    -0.041 I 
ATOM      7  C   LIG    1       22.164 -31.000  11.893  0.00  0.00    +0.067 A 
ATOM      8  C   LIG    1       23.406 -30.827  12.499  0.00  0.00    +0.049 A 
ATOM      9  I   LIG    1       23.970 -28.784  13.026  0.00  0.00    -0.041 I 
ENDROOT
BRANCH   1  12
ATOM     10  C   LIG    1       26.752 -32.992  14.991  0.00  0.00    +0.109 C 
ATOM     11  C   LIG    1       25.415 -32.816  14.296  0.00  0.00    +0.214 C 
ATOM     12  N   LIG    1       25.498 -32.033  13.148  0.00  0.00    -0.284 N 
ATOM     13  H   LIG    1       26.430 -31.856  12.803  0.00  0.00    +0.155 HD
ATOM     14  O   LIG    1       24.431 -33.322  14.745  0.00  0.00    -0.276 OA
ENDBRANCH   1  12
BRANCH   4  15
ATOM     15  N   LIG    1       23.481 -32.223   8.729  0.00  0.00    -0.273 N 
ATOM     16  C   LIG    1       23.991 -31.019   8.215  0.00  0.00    +0.216 C 
ATOM     17  O   LIG    1       24.309 -30.071   8.936  0.00  0.00    -0.276 OA
ATOM     18  C   LIG    1       24.176 -30.914   6.709  0.00  0.00    +0.110 C 
ATOM     19  C   LIG    1       23.205 -33.386   7.898  0.00  0.00    +0.138 C 
ENDBRANCH   4  15
BRANCH   7  20
ATOM     20  C   LIG    1       20.964 -30.307  12.445  0.00  0.00    +0.247 C 
ATOM     21  N   LIG    1       20.501 -30.647  13.713  0.00  0.00    -0.301 N 
ATOM     22  H   LIG    1       20.962 -31.379  14.210  0.00  0.00    +0.150 HD
ATOM     23  O   LIG    1       20.372 -29.458  11.784  0.00  0.00    -0.270 OA
BRANCH  21  24
ATOM     24  C   LIG    1       19.354 -29.954  14.310  0.00  0.00    +0.160 C 
ATOM     25  C   LIG    1       18.096 -30.063  13.454  0.00  0.00    +0.170 C 
ATOM     26  C   LIG    1       16.920 -29.355  14.138  0.00  0.00    +0.176 C 
ATOM     27  C   LIG    1       17.282 -27.911  14.519  0.00  0.00    +0.178 C 
ATOM     28  O   LIG    1       18.493 -27.875  15.287  0.00  0.00    -0.341 OA
ATOM     29  C   LIG    1       19.610 -28.442  14.605  0.00  0.00    +0.270 C 
BRANCH  25  30
ATOM     30  O   LIG    1       17.696 -31.428  13.249  0.00  0.00    -0.387 OA
ATOM     31  H   LIG    1       17.898 -31.931  14.061  0.00  0.00    +0.210 HD
ENDBRANCH  25  30
BRANCH  26  32
ATOM     32  O   LIG    1       15.775 -29.389  13.275  0.00  0.00    -0.387 OA
ATOM     33  H   LIG    1       15.046 -28.993  13.798  0.00  0.00    +0.210 HD
ENDBRANCH  26  32
BRANCH  29  34
ATOM     34  O   LIG    1       20.765 -28.240  15.406  0.00  0.00    -0.365 OA
ATOM     35  H   LIG    1       21.018 -27.299  15.313  0.00  0.00    +0.212 HD
ENDBRANCH  29  34
BRANCH  27  36
ATOM     36  C   LIG    1       16.156 -27.279  15.358  0.00  0.00    +0.190 C 
BRANCH  36  37
ATOM     37  O   LIG    1       16.283 -25.866  15.493  0.00  0.00    -0.392 OA
ATOM     38  H   LIG    1       16.246 -25.656  16.451  0.00  0.00    +0.209 HD
ENDBRANCH  36  37
ENDBRANCH  27  36
ENDBRANCH  21  24
ENDBRANCH   7  20
TORSDOF 9
ENDMDL
MODEL 7
REMARK VINA RESULT:      -3.4      3.140      4.318
REMARK  Name = *****
REMARK                            x       y       z     vdW  Elec       q    Type
REMARK                         _______ _______ _______ _____ _____    ______ ____
ROOT
ATOM      1  C   LIG    1       23.840 -29.206  13.351  0.00  0.00    +0.062 A 
ATOM      2  C   LIG    1       23.661 -30.523  13.835  0.00  0.00    +0.058 A 
ATOM      3  I   LIG    1       22.395 -30.897  15.500  0.00  0.00    -0.040 I 
ATOM      4  C   LIG    1       24.188 -31.626  13.147  0.00  0.00    +0.065 A 
ATOM      5  C   LIG    1       24.577 -31.406  11.803  0.00  0.00    +0.049 A 
ATOM      6  I   LIG    1       23.996 -32.943  10.431  0.00  0.00    -0.041 I 
ATOM      7  C   LIG    1       24.889 -30.105  11.359  0.00  0.00    +0.067 A 
ATOM      8  C   LIG    1       24.688 -29.049  12.244  0.00  0.00    +0.049 A 
ATOM      9  I   LIG    1       26.314 -27.603  12.439  0.00  0.00    -0.041 I 
ENDROOT
BRANCH   1  12
ATOM     10  C   LIG    1       21.379 -26.523  14.451  0.00  0.00    +0.109 C 
ATOM     11  C   LIG    1       21.931 -27.572  13.503  0.00  0.00    +0.214 C 
ATOM     12  N   LIG    1       23.107 -28.155  13.963  0.00  0.00    -0.284 N 
ATOM     13  H   LIG    1       23.337 -27.979  14.930  0.00  0.00    +0.155 HD
ATOM     14  O   LIG    1       21.363 -27.819  12.481  0.00  0.00    -0.276 OA
ENDBRANCH   1  12
BRANCH   4  15
ATOM     15  N   LIG    1       24.797 -32.714  13.895  0.00  0.00    -0.273 N 
ATOM     16  C   LIG    1       26.159 -32.608  14.226  0.00  0.00    +0.216 C 
ATOM     17  O   LIG    1       26.838 -31.620  13.939  0.00  0.00    -0.276 OA
ATOM     18  C   LIG    1       26.791 -33.759  14.994  0.00  0.00    +0.110 C 
ATOM     19  C   LIG    1       23.960 -33.825  14.322  0.00  0.00    +0.138 C 
ENDBRANCH   4  15
BRANCH   7  20
ATOM     20  C   LIG    1       25.453 -29.842  10.003  0.00  0.00    +0.247 C 
ATOM     21  N   LIG    1       24.622 -29.350   9.001  0.00  0.00    -0.301 N 
ATOM     22  H   LIG    1       23.653 -29.221   9.203  0.00  0.00    +0.150 HD
ATOM     23  O   LIG    1       26.633 -30.076   9.760  0.00  0.00    -0.270 OA
BRANCH  21  24
ATOM     24  C   LIG    1       25.149 -29.034   7.669  0.00  0.00    +0.160 C 
ATOM     25  C   LIG    1       25.680 -27.608   7.574  0.00  0.00    +0.170 C 
ATOM     26  C   LIG    1       26.250 -27.339   6.176  0.00  0.00    +0.176 C 
ATOM     27  C   LIG    1       25.232 -27.691   5.080  0.00  0.00    +0.178 C 
ATOM     28  O   LIG    1       24.742 -29.029   5.249  0.00  0.00    -0.341 OA
ATOM     29  C   LIG    1       24.119 -29.245   6.514  0.00  0.00    +0.270 C 
BRANCH  25  30
ATOM     30  O   LIG    1       26.742 -27.361   8.509  0.00  0.00    -0.387 OA
ATOM     31  H   LIG    1       26.441 -26.679   9.141  0.00  0.00    +0.210 HD
ENDBRANCH  25  30
BRANCH  26  32
ATOM     32  O   LIG    1       26.657 -25.968   6.081  0.00  0.00    -0.387 OA
ATOM     33  H   LIG    1       25.874 -25.447   6.357  0.00  0.00    +0.210 HD
ENDBRANCH  26  32
BRANCH  29  34
ATOM     34  O   LIG    1       23.571 -30.555   6.517  0.00  0.00    -0.365 OA
ATOM     35  H   LIG    1       22.632 -30.474   6.253  0.00  0.00    +0.212 HD
ENDBRANCH  29  34
BRANCH  27  36
ATOM     36  C   LIG    1       25.882 -27.584   3.688  0.00  0.00    +0.190 C 
BRANCH  36  37
ATOM     37  O   LIG    1       25.985 -26.243   3.219  0.00  0.00    -0.392 OA
ATOM     38  H   LIG    1       26.939 -26.011   3.193  0.00  0.00    +0.209 HD
ENDBRANCH  36  37
ENDBRANCH  27  36
ENDBRANCH  21  24
ENDBRANCH   7  20
TORSDOF 9
ENDMDL
MODEL 8
REMARK VINA RESULT:      -3.1      3.049      7.989
REMARK  Name = *****
REMARK                            x       y       z     vdW  Elec       q    Type
REMARK                         _______ _______ _______ _____ _____    ______ ____
ROOT
ATOM      1  C   LIG    1       24.751 -30.395   8.474  0.00  0.00    +0.062 A 
ATOM      2  C   LIG    1       25.465 -29.342   9.094  0.00  0.00    +0.058 A 
ATOM      3  I   LIG    1       26.415 -27.847   7.921  0.00  0.00    -0.040 I 
ATOM      4  C   LIG    1       25.439 -29.171  10.486  0.00  0.00    +0.065 A 
ATOM      5  C   LIG    1       24.413 -29.849  11.188  0.00  0.00    +0.049 A 
ATOM      6  I   LIG    1       23.441 -28.693  12.704  0.00  0.00    -0.041 I 
ATOM      7  C   LIG    1       23.798 -30.985  10.623  0.00  0.00    +0.067 A 
ATOM      8  C   LIG    1       24.148 -31.336   9.322  0.00  0.00    +0.049 A 
ATOM      9  I   LIG    1       24.620 -33.439   8.962  0.00  0.00    -0.041 I 
ENDROOT
BRANCH   1  12
ATOM     10  C   LIG    1       25.018 -30.860   4.709  0.00  0.00    +0.109 C 
ATOM     11  C   LIG    1       25.486 -31.005   6.145  0.00  0.00    +0.214 C 
ATOM     12  N   LIG    1       24.635 -30.391   7.058  0.00  0.00    -0.284 N 
ATOM     13  H   LIG    1       23.732 -30.117   6.702  0.00  0.00    +0.155 HD
ATOM     14  O   LIG    1       26.495 -31.595   6.393  0.00  0.00    -0.276 OA
ENDBRANCH   1  12
BRANCH   4  15
ATOM     15  N   LIG    1       26.661 -28.810  11.186  0.00  0.00    -0.273 N 
ATOM     16  C   LIG    1       27.737 -29.713  11.149  0.00  0.00    +0.216 C 
ATOM     17  O   LIG    1       27.694 -30.773  10.520  0.00  0.00    -0.276 OA
ATOM     18  C   LIG    1       29.005 -29.334  11.899  0.00  0.00    +0.110 C 
ATOM     19  C   LIG    1       26.739 -27.509  11.834  0.00  0.00    +0.138 C 
ENDBRANCH   4  15
BRANCH   7  20
ATOM     20  C   LIG    1       22.827 -31.823  11.384  0.00  0.00    +0.247 C 
ATOM     21  N   LIG    1       21.495 -31.427  11.460  0.00  0.00    -0.301 N 
ATOM     22  H   LIG    1       21.227 -30.566  11.035  0.00  0.00    +0.150 HD
ATOM     23  O   LIG    1       23.197 -32.843  11.959  0.00  0.00    -0.270 OA
BRANCH  21  24
ATOM     24  C   LIG    1       20.500 -32.250  12.159  0.00  0.00    +0.160 C 
ATOM     25  C   LIG    1       19.267 -32.525  11.305  0.00  0.00    +0.170 C 
ATOM     26  C   LIG    1       18.276 -33.415  12.065  0.00  0.00    +0.176 C 
ATOM     27  C   LIG    1       17.950 -32.832  13.449  0.00  0.00    +0.178 C 
ATOM     28  O   LIG    1       19.151 -32.559  14.185  0.00  0.00    -0.341 OA
ATOM     29  C   LIG    1       20.024 -31.647  13.519  0.00  0.00    +0.270 C 
BRANCH  25  30
ATOM     30  O   LIG    1       19.593 -33.214  10.087  0.00  0.00    -0.387 OA
ATOM     31  H   LIG    1       20.543 -33.081   9.905  0.00  0.00    +0.210 HD
ENDBRANCH  25  30
BRANCH  26  32
ATOM     32  O   LIG    1       17.087 -33.584  11.283  0.00  0.00    -0.387 OA
ATOM     33  H   LIG    1       16.695 -32.687  11.213  0.00  0.00    +0.210 HD
ENDBRANCH  26  32
BRANCH  29  34
ATOM     34  O   LIG    1       21.109 -31.362  14.388  0.00  0.00    -0.365 OA
ATOM     35  H   LIG    1       20.731 -31.204  15.277  0.00  0.00    +0.212 HD
ENDBRANCH  29  34
BRANCH  27  36
ATOM     36  C   LIG    1       17.098 -33.824  14.262  0.00  0.00    +0.190 C 
BRANCH  36  37
ATOM     37  O   LIG    1       15.776 -33.355  14.512  0.00  0.00    -0.392 OA
ATOM     38  H   LIG    1       15.246 -33.519  13.702  0.00  0.00    +0.209 HD
ENDBRANCH  36  37
ENDBRANCH  27  36
ENDBRANCH  21  24
ENDBRANCH   7  20
TORSDOF 9
ENDMDL
MODEL 9
REMARK VINA RESULT:      -3.1      4.999      8.268
REMARK  Name = *****
REMARK                            x       y       z     vdW  Elec       q    Type
REMARK                         _______ _______ _______ _____ _____    ______ ____
ROOT
ATOM      1  C   LIG    1       23.778 -30.931   8.470  0.00  0.00    +0.062 A 
ATOM      2  C   LIG    1       24.056 -31.758   7.356  0.00  0.00    +0.058 A 
ATOM      3  I   LIG    1       23.110 -33.649   7.155  0.00  0.00    -0.040 I 
ATOM      4  C   LIG    1       24.839 -31.296   6.287  0.00  0.00    +0.065 A 
ATOM      5  C   LIG    1       25.029 -29.895   6.202  0.00  0.00    +0.049 A 
ATOM      6  I   LIG    1       24.839 -29.076   4.234  0.00  0.00    -0.041 I 
ATOM      7  C   LIG    1       24.886 -29.089   7.350  0.00  0.00    +0.067 A 
ATOM      8  C   LIG    1       24.442 -29.696   8.521  0.00  0.00    +0.049 A 
ATOM      9  I   LIG    1       25.552 -29.243  10.348  0.00  0.00    -0.041 I 
ENDROOT
BRANCH   1  12
ATOM     10  C   LIG    1       21.776 -32.381  11.359  0.00  0.00    +0.109 C 
ATOM     11  C   LIG    1       23.027 -32.172  10.528  0.00  0.00    +0.214 C 
ATOM     12  N   LIG    1       22.810 -31.369   9.412  0.00  0.00    -0.284 N 
ATOM     13  H   LIG    1       21.938 -30.862   9.397  0.00  0.00    +0.155 HD
ATOM     14  O   LIG    1       24.059 -32.678  10.853  0.00  0.00    -0.276 OA
ENDBRANCH   1  12
BRANCH   4  15
ATOM     15  N   LIG    1       25.814 -32.184   5.676  0.00  0.00    -0.273 N 
ATOM     16  C   LIG    1       26.950 -32.537   6.426  0.00  0.00    +0.216 C 
ATOM     17  O   LIG    1       27.128 -32.152   7.583  0.00  0.00    -0.276 OA
ATOM     18  C   LIG    1       27.972 -33.453   5.771  0.00  0.00    +0.110 C 
ATOM     19  C   LIG    1       25.540 -32.719   4.351  0.00  0.00    +0.138 C 
ENDBRANCH   4  15
BRANCH   7  20
ATOM     20  C   LIG    1       25.227 -27.637   7.347  0.00  0.00    +0.247 C 
ATOM     21  N   LIG    1       24.430 -26.748   6.630  0.00  0.00    -0.301 N 
ATOM     22  H   LIG    1       23.667 -27.112   6.099  0.00  0.00    +0.150 HD
ATOM     23  O   LIG    1       26.212 -27.224   7.952  0.00  0.00    -0.270 OA
BRANCH  21  24
ATOM     24  C   LIG    1       24.704 -25.307   6.642  0.00  0.00    +0.160 C 
ATOM     25  C   LIG    1       23.481 -24.477   6.267  0.00  0.00    +0.170 C 
ATOM     26  C   LIG    1       23.810 -22.980   6.329  0.00  0.00    +0.176 C 
ATOM     27  C   LIG    1       25.059 -22.648   5.497  0.00  0.00    +0.178 C 
ATOM     28  O   LIG    1       26.159 -23.489   5.870  0.00  0.00    -0.341 OA
ATOM     29  C   LIG    1       25.884 -24.880   5.713  0.00  0.00    +0.270 C 
BRANCH  25  30
ATOM     30  O   LIG    1       22.380 -24.697   7.164  0.00  0.00    -0.387 OA
ATOM     31  H   LIG    1       22.672 -24.470   8.068  0.00  0.00    +0.210 HD
ENDBRANCH  25  30
BRANCH  26  32
ATOM     32  O   LIG    1       22.677 -22.223   5.883  0.00  0.00    -0.387 OA
ATOM     33  H   LIG    1       21.898 -22.666   6.282  0.00  0.00    +0.210 HD
ENDBRANCH  26  32
BRANCH  29  34
ATOM     34  O   LIG    1       27.075 -25.599   5.993  0.00  0.00    -0.365 OA
ATOM     35  H   LIG    1       27.672 -24.991   6.474  0.00  0.00    +0.212 HD
ENDBRANCH  29  34
BRANCH  27  36
ATOM     36  C   LIG    1       25.473 -21.180   5.714  0.00  0.00    +0.190 C 
BRANCH  36  37
ATOM     37  O   LIG    1       26.092 -20.598   4.572  0.00  0.00    -0.392 OA
ATOM     38  H   LIG    1       27.063 -20.612   4.721  0.00  0.00    +0.209 HD
ENDBRANCH  36  37
ENDBRANCH  27  36
ENDBRANCH  21  24
ENDBRANCH   7  20
TORSDOF 9
ENDMDL
