MODEL 1
REMARK VINA RESULT:      -6.7      0.000      0.000
REMARK  Name = *****
REMARK                            x       y       z     vdW  Elec       q    Type
REMARK                         _______ _______ _______ _____ _____    ______ ____
ROOT
ATOM      1  C   LIG    1       30.381 -19.458   7.475  0.00  0.00    +0.059 A 
ATOM      2  C   LIG    1       30.092 -18.587   6.418  0.00  0.00    +0.017 A 
ATOM      3  C   LIG    1       28.992 -18.830   5.589  0.00  0.00    +0.023 A 
ATOM      4  C   LIG    1       28.198 -19.966   5.769  0.00  0.00    +0.025 A 
ATOM      5  C   LIG    1       28.464 -20.807   6.852  0.00  0.00    +0.023 A 
ATOM      6  C   LIG    1       29.559 -20.571   7.687  0.00  0.00    +0.017 A 
ENDROOT
BRANCH   4   7
ATOM      7  N   LIG    1       27.022 -20.130   5.030  0.00  0.00    -0.358 N 
ATOM      8  H   LIG    1       26.460 -19.288   4.956  0.00  0.00    +0.142 HD
ATOM      9  H   LIG    1       27.164 -20.577   4.128  0.00  0.00    +0.142 HD
ENDBRANCH   4   7
BRANCH   1  10
ATOM     10  C   LIG    1       31.535 -19.148   8.359  0.00  0.00    +0.339 C 
ATOM     11  O   LIG    1       32.014 -19.938   9.159  0.00  0.00    -0.245 OA
BRANCH  10  12
ATOM     12  O   LIG    1       31.960 -17.880   8.135  0.00  0.00    -0.461 OA
BRANCH  12  14
ATOM     13  C   LIG    1       30.729 -16.768   9.892  0.00  0.00    +0.048 C 
ATOM     14  C   LIG    1       32.092 -17.041   9.289  0.00  0.00    +0.229 C 
ENDBRANCH  12  14
ENDBRANCH  10  12
ENDBRANCH   1  10
TORSDOF 4
ENDMDL
MODEL 2
REMARK VINA RESULT:      -6.4      4.562      5.917
REMARK  Name = *****
REMARK                            x       y       z     vdW  Elec       q    Type
REMARK                         _______ _______ _______ _____ _____    ______ ____
ROOT
ATOM      1  C   LIG    1       25.337 -22.125   7.662  0.00  0.00    +0.059 A 
ATOM      2  C   LIG    1       26.172 -23.197   7.324  0.00  0.00    +0.017 A 
ATOM      3  C   LIG    1       25.641 -24.330   6.698  0.00  0.00    +0.023 A 
ATOM      4  C   LIG    1       24.270 -24.430   6.445  0.00  0.00    +0.025 A 
ATOM      5  C   LIG    1       23.450 -23.340   6.743  0.00  0.00    +0.023 A 
ATOM      6  C   LIG    1       23.971 -22.204   7.366  0.00  0.00    +0.017 A 
ENDROOT
BRANCH   4   7
ATOM      7  N   LIG    1       23.767 -25.498   5.695  0.00  0.00    -0.358 N 
ATOM      8  H   LIG    1       24.364 -25.777   4.923  0.00  0.00    +0.142 HD
ATOM      9  H   LIG    1       23.471 -26.291   6.258  0.00  0.00    +0.142 HD
ENDBRANCH   4   7
BRANCH   1  10
ATOM     10  C   LIG    1       25.941 -20.922   8.293  0.00  0.00    +0.339 C 
ATOM     11  O   LIG    1       25.802 -20.625   9.470  0.00  0.00    -0.245 OA
BRANCH  10  12
ATOM     12  O   LIG    1       26.656 -20.230   7.372  0.00  0.00    -0.461 OA
BRANCH  12  14
ATOM     13  C   LIG    1       28.872 -20.670   6.513  0.00  0.00    +0.048 C 
ATOM     14  C   LIG    1       28.055 -20.073   7.641  0.00  0.00    +0.229 C 
ENDBRANCH  12  14
ENDBRANCH  10  12
ENDBRANCH   1  10
TORSDOF 4
ENDMDL
MODEL 3
REMARK VINA RESULT:      -6.2      6.946      8.021
REMARK  Name = *****
REMARK                            x       y       z     vdW  Elec       q    Type
REMARK                         _______ _______ _______ _____ _____    ______ ____
ROOT
ATOM      1  C   LIG    1       24.003 -22.869   6.856  0.00  0.00    +0.059 A 
ATOM      2  C   LIG    1       25.391 -22.928   7.026  0.00  0.00    +0.017 A 
ATOM      3  C   LIG    1       26.067 -24.142   6.868  0.00  0.00    +0.023 A 
ATOM      4  C   LIG    1       25.367 -25.319   6.587  0.00  0.00    +0.025 A 
ATOM      5  C   LIG    1       23.989 -25.246   6.374  0.00  0.00    +0.023 A 
ATOM      6  C   LIG    1       23.305 -24.038   6.528  0.00  0.00    +0.017 A 
ENDROOT
BRANCH   4   7
ATOM      7  N   LIG    1       26.059 -26.498   6.292  0.00  0.00    -0.358 N 
ATOM      8  H   LIG    1       25.906 -27.245   6.963  0.00  0.00    +0.142 HD
ATOM      9  H   LIG    1       25.942 -26.813   5.333  0.00  0.00    +0.142 HD
ENDBRANCH   4   7
BRANCH   1  10
ATOM     10  C   LIG    1       23.321 -21.555   6.994  0.00  0.00    +0.339 C 
ATOM     11  O   LIG    1       23.444 -20.820   7.962  0.00  0.00    -0.245 OA
BRANCH  10  12
ATOM     12  O   LIG    1       22.564 -21.312   5.896  0.00  0.00    -0.461 OA
BRANCH  12  14
ATOM     13  C   LIG    1       22.434 -19.139   4.847  0.00  0.00    +0.048 C 
ATOM     14  C   LIG    1       23.152 -20.473   4.893  0.00  0.00    +0.229 C 
ENDBRANCH  12  14
ENDBRANCH  10  12
ENDBRANCH   1  10
TORSDOF 4
ENDMDL
MODEL 4
REMARK VINA RESULT:      -6.1      3.830      5.069
REMARK  Name = *****
REMARK                            x       y       z     vdW  Elec       q    Type
REMARK                         _______ _______ _______ _____ _____    ______ ____
ROOT
ATOM      1  C   LIG    1       25.749 -20.589   6.693  0.00  0.00    +0.059 A 
ATOM      2  C   LIG    1       24.640 -20.852   7.506  0.00  0.00    +0.017 A 
ATOM      3  C   LIG    1       23.380 -21.048   6.932  0.00  0.00    +0.023 A 
ATOM      4  C   LIG    1       23.198 -20.936   5.550  0.00  0.00    +0.025 A 
ATOM      5  C   LIG    1       24.314 -20.718   4.741  0.00  0.00    +0.023 A 
ATOM      6  C   LIG    1       25.578 -20.523   5.305  0.00  0.00    +0.017 A 
ENDROOT
BRANCH   4   7
ATOM      7  N   LIG    1       21.969 -21.271   4.971  0.00  0.00    -0.358 N 
ATOM      8  H   LIG    1       21.288 -21.634   5.630  0.00  0.00    +0.142 HD
ATOM      9  H   LIG    1       21.582 -20.540   4.381  0.00  0.00    +0.142 HD
ENDBRANCH   4   7
BRANCH   1  10
ATOM     10  C   LIG    1       27.080 -20.423   7.333  0.00  0.00    +0.339 C 
ATOM     11  O   LIG    1       27.245 -20.244   8.530  0.00  0.00    -0.245 OA
BRANCH  10  12
ATOM     12  O   LIG    1       28.055 -20.505   6.394  0.00  0.00    -0.461 OA
BRANCH  12  14
ATOM     13  C   LIG    1       29.420 -18.587   5.848  0.00  0.00    +0.048 C 
ATOM     14  C   LIG    1       29.286 -19.836   6.696  0.00  0.00    +0.229 C 
ENDBRANCH  12  14
ENDBRANCH  10  12
ENDBRANCH   1  10
TORSDOF 4
ENDMDL
MODEL 5
REMARK VINA RESULT:      -6.0      3.107      5.052
REMARK  Name = *****
REMARK                            x       y       z     vdW  Elec       q    Type
REMARK                         _______ _______ _______ _____ _____    ______ ____
ROOT
ATOM      1  C   LIG    1       31.187 -17.945   8.826  0.00  0.00    +0.059 A 
ATOM      2  C   LIG    1       32.317 -17.143   9.028  0.00  0.00    +0.017 A 
ATOM      3  C   LIG    1       32.463 -16.423  10.218  0.00  0.00    +0.023 A 
ATOM      4  C   LIG    1       31.466 -16.452  11.198  0.00  0.00    +0.025 A 
ATOM      5  C   LIG    1       30.364 -17.288  11.010  0.00  0.00    +0.023 A 
ATOM      6  C   LIG    1       30.211 -18.013   9.826  0.00  0.00    +0.017 A 
ENDROOT
BRANCH   4   7
ATOM      7  N   LIG    1       31.680 -15.845  12.440  0.00  0.00    -0.358 N 
ATOM      8  H   LIG    1       31.010 -15.115  12.663  0.00  0.00    +0.142 HD
ATOM      9  H   LIG    1       31.798 -16.504  13.204  0.00  0.00    +0.142 HD
ENDBRANCH   4   7
BRANCH   1  10
ATOM     10  C   LIG    1       31.083 -18.726   7.566  0.00  0.00    +0.339 C 
ATOM     11  O   LIG    1       31.838 -19.637   7.262  0.00  0.00    -0.245 OA
BRANCH  10  12
ATOM     12  O   LIG    1       30.036 -18.277   6.832  0.00  0.00    -0.461 OA
BRANCH  12  14
ATOM     13  C   LIG    1       28.373 -19.986   7.224  0.00  0.00    +0.048 C 
ATOM     14  C   LIG    1       29.231 -19.277   6.195  0.00  0.00    +0.229 C 
ENDBRANCH  12  14
ENDBRANCH  10  12
ENDBRANCH   1  10
TORSDOF 4
ENDMDL
MODEL 6
REMARK VINA RESULT:      -6.0      4.825      6.567
REMARK  Name = *****
REMARK                            x       y       z     vdW  Elec       q    Type
REMARK                         _______ _______ _______ _____ _____    ______ ____
ROOT
ATOM      1  C   LIG    1       25.567 -20.659   6.817  0.00  0.00    +0.059 A 
ATOM      2  C   LIG    1       26.204 -20.276   5.630  0.00  0.00    +0.017 A 
ATOM      3  C   LIG    1       27.591 -20.097   5.605  0.00  0.00    +0.023 A 
ATOM      4  C   LIG    1       28.353 -20.249   6.767  0.00  0.00    +0.025 A 
ATOM      5  C   LIG    1       27.719 -20.674   7.935  0.00  0.00    +0.023 A 
ATOM      6  C   LIG    1       26.334 -20.857   7.970  0.00  0.00    +0.017 A 
ENDROOT
BRANCH   4   7
ATOM      7  N   LIG    1       29.750 -20.207   6.705  0.00  0.00    -0.358 N 
ATOM      8  H   LIG    1       30.116 -19.433   6.159  0.00  0.00    +0.142 HD
ATOM      9  H   LIG    1       30.203 -20.286   7.611  0.00  0.00    +0.142 HD
ENDBRANCH   4   7
BRANCH   1  10
ATOM     10  C   LIG    1       24.096 -20.876   6.799  0.00  0.00    +0.339 C 
ATOM     11  O   LIG    1       23.385 -20.816   7.791  0.00  0.00    -0.245 OA
BRANCH  10  12
ATOM     12  O   LIG    1       23.686 -21.140   5.534  0.00  0.00    -0.461 OA
BRANCH  12  14
ATOM     13  C   LIG    1       22.494 -19.157   4.837  0.00  0.00    +0.048 C 
ATOM     14  C   LIG    1       22.397 -20.633   5.166  0.00  0.00    +0.229 C 
ENDBRANCH  12  14
ENDBRANCH  10  12
ENDBRANCH   1  10
TORSDOF 4
ENDMDL
MODEL 7
REMARK VINA RESULT:      -5.9      6.825      9.037
REMARK  Name = *****
REMARK                            x       y       z     vdW  Elec       q    Type
REMARK                         _______ _______ _______ _____ _____    ______ ____
ROOT
ATOM      1  C   LIG    1       25.009 -24.724   6.449  0.00  0.00    +0.059 A 
ATOM      2  C   LIG    1       23.635 -24.459   6.408  0.00  0.00    +0.017 A 
ATOM      3  C   LIG    1       23.143 -23.232   6.863  0.00  0.00    +0.023 A 
ATOM      4  C   LIG    1       24.003 -22.275   7.409  0.00  0.00    +0.025 A 
ATOM      5  C   LIG    1       25.377 -22.526   7.405  0.00  0.00    +0.023 A 
ATOM      6  C   LIG    1       25.878 -23.748   6.950  0.00  0.00    +0.017 A 
ENDROOT
BRANCH   4   7
ATOM      7  N   LIG    1       23.526 -21.000   7.731  0.00  0.00    -0.358 N 
ATOM      8  H   LIG    1       23.097 -20.940   8.649  0.00  0.00    +0.142 HD
ATOM      9  H   LIG    1       24.202 -20.257   7.575  0.00  0.00    +0.142 HD
ENDBRANCH   4   7
BRANCH   1  10
ATOM     10  C   LIG    1       25.502 -26.024   5.922  0.00  0.00    +0.339 C 
ATOM     11  O   LIG    1       26.682 -26.286   5.744  0.00  0.00    -0.245 OA
BRANCH  10  12
ATOM     12  O   LIG    1       24.454 -26.850   5.683  0.00  0.00    -0.461 OA
BRANCH  12  14
ATOM     13  C   LIG    1       24.399 -29.064   6.649  0.00  0.00    +0.048 C 
ATOM     14  C   LIG    1       24.772 -28.226   5.442  0.00  0.00    +0.229 C 
ENDBRANCH  12  14
ENDBRANCH  10  12
ENDBRANCH   1  10
TORSDOF 4
ENDMDL
MODEL 8
REMARK VINA RESULT:      -5.9      2.834      3.777
REMARK  Name = *****
REMARK                            x       y       z     vdW  Elec       q    Type
REMARK                         _______ _______ _______ _____ _____    ______ ____
ROOT
ATOM      1  C   LIG    1       27.344 -20.174   6.637  0.00  0.00    +0.059 A 
ATOM      2  C   LIG    1       26.332 -20.357   5.687  0.00  0.00    +0.017 A 
ATOM      3  C   LIG    1       25.057 -20.766   6.089  0.00  0.00    +0.023 A 
ATOM      4  C   LIG    1       24.786 -21.045   7.432  0.00  0.00    +0.025 A 
ATOM      5  C   LIG    1       25.785 -20.818   8.380  0.00  0.00    +0.023 A 
ATOM      6  C   LIG    1       27.061 -20.407   7.988  0.00  0.00    +0.017 A 
ENDROOT
BRANCH   4   7
ATOM      7  N   LIG    1       23.478 -21.316   7.846  0.00  0.00    -0.358 N 
ATOM      8  H   LIG    1       22.776 -20.726   7.410  0.00  0.00    +0.142 HD
ATOM      9  H   LIG    1       23.230 -22.301   7.804  0.00  0.00    +0.142 HD
ENDBRANCH   4   7
BRANCH   1  10
ATOM     10  C   LIG    1       28.677 -19.702   6.179  0.00  0.00    +0.339 C 
ATOM     11  O   LIG    1       28.842 -18.856   5.313  0.00  0.00    -0.245 OA
BRANCH  10  12
ATOM     12  O   LIG    1       29.653 -20.345   6.867  0.00  0.00    -0.461 OA
BRANCH  12  14
ATOM     13  C   LIG    1       30.361 -18.667   8.455  0.00  0.00    +0.048 C 
ATOM     14  C   LIG    1       30.765 -19.545   7.287  0.00  0.00    +0.229 C 
ENDBRANCH  12  14
ENDBRANCH  10  12
ENDBRANCH   1  10
TORSDOF 4
ENDMDL
MODEL 9
REMARK VINA RESULT:      -5.8      2.793      3.937
REMARK  Name = *****
REMARK                            x       y       z     vdW  Elec       q    Type
REMARK                         _______ _______ _______ _____ _____    ______ ____
ROOT
ATOM      1  C   LIG    1       27.494 -20.323   7.235  0.00  0.00    +0.059 A 
ATOM      2  C   LIG    1       26.893 -20.517   8.484  0.00  0.00    +0.017 A 
ATOM      3  C   LIG    1       25.528 -20.811   8.569  0.00  0.00    +0.023 A 
ATOM      4  C   LIG    1       24.737 -20.867   7.418  0.00  0.00    +0.025 A 
ATOM      5  C   LIG    1       25.350 -20.718   6.173  0.00  0.00    +0.023 A 
ATOM      6  C   LIG    1       26.712 -20.426   6.078  0.00  0.00    +0.017 A 
ENDROOT
BRANCH   4   7
ATOM      7  N   LIG    1       23.408 -21.298   7.496  0.00  0.00    -0.358 N 
ATOM      8  H   LIG    1       23.240 -22.197   7.054  0.00  0.00    +0.142 HD
ATOM      9  H   LIG    1       23.016 -21.251   8.432  0.00  0.00    +0.142 HD
ENDBRANCH   4   7
BRANCH   1  10
ATOM     10  C   LIG    1       28.954 -20.049   7.180  0.00  0.00    +0.339 C 
ATOM     11  O   LIG    1       29.552 -19.735   6.162  0.00  0.00    -0.245 OA
BRANCH  10  12
ATOM     12  O   LIG    1       29.496 -20.196   8.414  0.00  0.00    -0.461 OA
BRANCH  12  14
ATOM     13  C   LIG    1       31.057 -21.897   9.128  0.00  0.00    +0.048 C 
ATOM     14  C   LIG    1       30.885 -20.548   8.459  0.00  0.00    +0.229 C 
ENDBRANCH  12  14
ENDBRANCH  10  12
ENDBRANCH   1  10
TORSDOF 4
ENDMDL
