MODEL 1
REMARK VINA RESULT:      -6.3      0.000      0.000
REMARK  Name = *****
REMARK                            x       y       z     vdW  Elec       q    Type
REMARK                         _______ _______ _______ _____ _____    ______ ____
ROOT
ATOM      1  CA  LIG    1       26.253 -26.584   6.202  0.00  0.00    +0.191 C 
ATOM      2  C   LIG    1       26.649 -27.769   7.137  0.00  0.00    +0.169 C 
ATOM      3  N   LIG    1       25.585 -28.527   6.523  0.00  0.00    -0.249 N 
ATOM      4  CA  LIG    1       25.088 -29.718   6.974  0.00  0.00    +0.125 C 
ATOM      5  C   LIG    1       25.378 -30.156   8.225  0.00  0.00    +0.006 C 
ATOM      6  C   LIG    1       26.208 -29.367   9.222  0.00  0.00    +0.107 C 
ATOM      7  S   LIG    1       26.295 -27.580   8.900  0.00  0.00    -0.131 S 
ATOM      8  C   LIG    1       25.108 -27.541   5.732  0.00  0.00    +0.244 C 
ATOM      9  O   LIG    1       24.102 -27.448   5.052  0.00  0.00    -0.273 OA
ENDROOT
BRANCH   1  11
ATOM     10  C   LIG    1       25.321 -24.268   6.016  0.00  0.00    +0.268 C 
ATOM     11  N   LIG    1       25.847 -25.275   6.811  0.00  0.00    -0.296 N 
ATOM     12  H   LIG    1       26.095 -25.031   7.769  0.00  0.00    +0.150 HD
ATOM     13  O   LIG    1       25.142 -24.388   4.811  0.00  0.00    -0.268 OA
BRANCH  10  15
ATOM     14  N   LIG    1       25.463 -22.809   7.939  0.00  0.00    -0.078 NA
ATOM     15  C   LIG    1       25.016 -22.931   6.714  0.00  0.00    +0.190 C 
BRANCH  15  16
ATOM     16  C   LIG    1       24.301 -21.870   5.980  0.00  0.00    +0.107 A 
ATOM     17  N   LIG    1       24.969 -20.991   5.119  0.00  0.00    -0.223 NA
ATOM     18  C   LIG    1       24.138 -20.151   4.560  0.00  0.00    +0.156 A 
ATOM     19  S   LIG    1       22.498 -20.336   5.016  0.00  0.00    -0.060 S 
ATOM     20  C   LIG    1       22.933 -21.656   6.024  0.00  0.00    +0.078 A 
BRANCH  18  21
ATOM     21  N   LIG    1       24.537 -19.199   3.702  0.00  0.00    -0.338 N 
ATOM     22  H   LIG    1       24.458 -19.441   2.721  0.00  0.00    +0.144 HD
ATOM     23  H   LIG    1       25.355 -18.652   3.936  0.00  0.00    +0.144 HD
ENDBRANCH  18  21
ENDBRANCH  15  16
BRANCH  14  25
ATOM     24  C   LIG    1       26.227 -20.720   8.578  0.00  0.00    +0.313 C 
ATOM     25  O   LIG    1       25.097 -21.577   8.510  0.00  0.00    -0.396 OA
ENDBRANCH  14  25
ENDBRANCH  10  15
ENDBRANCH   1  11
BRANCH   4  26
ATOM     26  C   LIG    1       24.248 -30.527   6.026  0.00  0.00    +0.351 C 
ATOM     27  O   LIG    1       24.510 -31.617   5.548  0.00  0.00    -0.244 OA
BRANCH  26  28
ATOM     28  OXT LIG    1       23.118 -29.881   5.679  0.00  0.00    -0.476 OA
ATOM     29  HXT LIG    1       23.408 -28.955   5.546  0.00  0.00    +0.295 HD
ENDBRANCH  26  28
ENDBRANCH   4  26
BRANCH   5  30
ATOM     30  C   LIG    1       24.926 -31.483   8.812  0.00  0.00    +0.266 C 
BRANCH  30  31
ATOM     31  O   LIG    1       24.390 -31.248  10.122  0.00  0.00    -0.460 OA
BRANCH  31  32
ATOM     32  C   LIG    1       23.095 -30.830  10.137  0.00  0.00    +0.304 C 
ATOM     33  O   LIG    1       22.213 -31.199   9.377  0.00  0.00    -0.251 OA
ATOM     34  C   LIG    1       22.890 -29.863  11.258  0.00  0.00    +0.136 C 
ENDBRANCH  31  32
ENDBRANCH  30  31
ENDBRANCH   5  30
TORSDOF 10
ENDMDL
MODEL 2
REMARK VINA RESULT:      -6.1      1.185      1.903
REMARK  Name = *****
REMARK                            x       y       z     vdW  Elec       q    Type
REMARK                         _______ _______ _______ _____ _____    ______ ____
ROOT
ATOM      1  CA  LIG    1       26.284 -26.546   6.172  0.00  0.00    +0.191 C 
ATOM      2  C   LIG    1       26.664 -27.742   7.100  0.00  0.00    +0.169 C 
ATOM      3  N   LIG    1       25.616 -28.495   6.453  0.00  0.00    -0.249 N 
ATOM      4  CA  LIG    1       25.113 -29.694   6.877  0.00  0.00    +0.125 C 
ATOM      5  C   LIG    1       25.378 -30.147   8.128  0.00  0.00    +0.006 C 
ATOM      6  C   LIG    1       26.183 -29.369   9.153  0.00  0.00    +0.107 C 
ATOM      7  S   LIG    1       26.271 -27.578   8.857  0.00  0.00    -0.131 S 
ATOM      8  C   LIG    1       25.152 -27.500   5.664  0.00  0.00    +0.244 C 
ATOM      9  O   LIG    1       24.161 -27.401   4.965  0.00  0.00    -0.273 OA
ENDROOT
BRANCH   1  11
ATOM     10  C   LIG    1       25.321 -24.242   6.001  0.00  0.00    +0.268 C 
ATOM     11  N   LIG    1       25.860 -25.247   6.790  0.00  0.00    -0.296 N 
ATOM     12  H   LIG    1       26.104 -25.006   7.750  0.00  0.00    +0.150 HD
ATOM     13  O   LIG    1       25.144 -24.356   4.796  0.00  0.00    -0.268 OA
BRANCH  10  15
ATOM     14  N   LIG    1       25.430 -22.799   7.939  0.00  0.00    -0.078 NA
ATOM     15  C   LIG    1       24.997 -22.914   6.708  0.00  0.00    +0.190 C 
BRANCH  15  16
ATOM     16  C   LIG    1       24.282 -21.851   5.976  0.00  0.00    +0.107 A 
ATOM     17  N   LIG    1       24.948 -20.977   5.108  0.00  0.00    -0.223 NA
ATOM     18  C   LIG    1       24.117 -20.135   4.553  0.00  0.00    +0.156 A 
ATOM     19  S   LIG    1       22.479 -20.312   5.019  0.00  0.00    -0.060 S 
ATOM     20  C   LIG    1       22.916 -21.632   6.027  0.00  0.00    +0.078 A 
BRANCH  18  21
ATOM     21  N   LIG    1       24.515 -19.187   3.690  0.00  0.00    -0.338 N 
ATOM     22  H   LIG    1       23.777 -18.591   3.333  0.00  0.00    +0.144 HD
ATOM     23  H   LIG    1       25.230 -19.419   3.015  0.00  0.00    +0.144 HD
ENDBRANCH  18  21
ENDBRANCH  15  16
BRANCH  14  25
ATOM     24  C   LIG    1       26.173 -20.715   8.616  0.00  0.00    +0.313 C 
ATOM     25  O   LIG    1       25.048 -21.575   8.517  0.00  0.00    -0.396 OA
ENDBRANCH  14  25
ENDBRANCH  10  15
ENDBRANCH   1  11
BRANCH   4  26
ATOM     26  C   LIG    1       24.297 -30.493   5.900  0.00  0.00    +0.351 C 
ATOM     27  O   LIG    1       24.622 -31.517   5.325  0.00  0.00    -0.244 OA
BRANCH  26  28
ATOM     28  OXT LIG    1       23.105 -29.917   5.651  0.00  0.00    -0.476 OA
ATOM     29  HXT LIG    1       22.492 -30.371   6.265  0.00  0.00    +0.295 HD
ENDBRANCH  26  28
ENDBRANCH   4  26
BRANCH   5  30
ATOM     30  C   LIG    1       24.918 -31.484   8.687  0.00  0.00    +0.266 C 
BRANCH  30  31
ATOM     31  O   LIG    1       25.550 -32.536   7.942  0.00  0.00    -0.460 OA
BRANCH  31  32
ATOM     32  C   LIG    1       26.872 -32.705   8.214  0.00  0.00    +0.304 C 
ATOM     33  O   LIG    1       27.378 -32.750   9.325  0.00  0.00    -0.251 OA
ATOM     34  C   LIG    1       27.632 -32.868   6.937  0.00  0.00    +0.136 C 
ENDBRANCH  31  32
ENDBRANCH  30  31
ENDBRANCH   5  30
TORSDOF 10
ENDMDL
MODEL 3
REMARK VINA RESULT:      -6.0      1.966      2.464
REMARK  Name = *****
REMARK                            x       y       z     vdW  Elec       q    Type
REMARK                         _______ _______ _______ _____ _____    ______ ____
ROOT
ATOM      1  CA  LIG    1       25.178 -28.212   5.942  0.00  0.00    +0.191 C 
ATOM      2  C   LIG    1       26.076 -28.944   6.988  0.00  0.00    +0.169 C 
ATOM      3  N   LIG    1       25.167 -30.061   6.894  0.00  0.00    -0.249 N 
ATOM      4  CA  LIG    1       25.130 -31.136   7.738  0.00  0.00    +0.125 C 
ATOM      5  C   LIG    1       25.783 -31.100   8.927  0.00  0.00    +0.006 C 
ATOM      6  C   LIG    1       26.542 -29.888   9.434  0.00  0.00    +0.107 C 
ATOM      7  S   LIG    1       26.053 -28.308   8.680  0.00  0.00    -0.131 S 
ATOM      8  C   LIG    1       24.278 -29.487   6.052  0.00  0.00    +0.244 C 
ATOM      9  O   LIG    1       23.170 -29.822   5.676  0.00  0.00    -0.273 OA
ENDROOT
BRANCH   1  11
ATOM     10  C   LIG    1       25.200 -25.709   6.000  0.00  0.00    +0.268 C 
ATOM     11  N   LIG    1       24.554 -26.898   6.305  0.00  0.00    -0.296 N 
ATOM     12  H   LIG    1       23.742 -26.843   6.920  0.00  0.00    +0.150 HD
ATOM     13  O   LIG    1       26.273 -25.660   5.415  0.00  0.00    -0.268 OA
BRANCH  10  15
ATOM     14  N   LIG    1       23.230 -24.481   6.679  0.00  0.00    -0.078 NA
ATOM     15  C   LIG    1       24.525 -24.416   6.489  0.00  0.00    +0.190 C 
BRANCH  15  16
ATOM     16  C   LIG    1       25.345 -23.221   6.760  0.00  0.00    +0.107 A 
ATOM     17  N   LIG    1       25.544 -22.228   5.792  0.00  0.00    -0.223 NA
ATOM     18  C   LIG    1       26.281 -21.254   6.255  0.00  0.00    +0.156 A 
ATOM     19  S   LIG    1       26.802 -21.441   7.876  0.00  0.00    -0.060 S 
ATOM     20  C   LIG    1       25.956 -22.932   7.969  0.00  0.00    +0.078 A 
BRANCH  18  21
ATOM     21  N   LIG    1       26.624 -20.188   5.515  0.00  0.00    -0.338 N 
ATOM     22  H   LIG    1       26.625 -19.302   6.007  0.00  0.00    +0.144 HD
ATOM     23  H   LIG    1       26.293 -20.138   4.561  0.00  0.00    +0.144 HD
ENDBRANCH  18  21
ENDBRANCH  15  16
BRANCH  14  25
ATOM     24  C   LIG    1       22.045 -22.620   5.983  0.00  0.00    +0.313 C 
ATOM     25  O   LIG    1       22.696 -23.243   7.080  0.00  0.00    -0.396 OA
ENDBRANCH  14  25
ENDBRANCH  10  15
ENDBRANCH   1  11
BRANCH   4  26
ATOM     26  C   LIG    1       24.376 -32.355   7.283  0.00  0.00    +0.351 C 
ATOM     27  O   LIG    1       24.806 -33.292   6.634  0.00  0.00    -0.244 OA
BRANCH  26  28
ATOM     28  OXT LIG    1       23.077 -32.301   7.633  0.00  0.00    -0.476 OA
ATOM     29  HXT LIG    1       22.727 -33.179   7.373  0.00  0.00    +0.295 HD
ENDBRANCH  26  28
ENDBRANCH   4  26
BRANCH   5  30
ATOM     30  C   LIG    1       25.854 -32.251   9.918  0.00  0.00    +0.266 C 
BRANCH  30  31
ATOM     31  O   LIG    1       25.195 -31.856  11.129  0.00  0.00    -0.460 OA
BRANCH  31  32
ATOM     32  C   LIG    1       23.836 -31.830  11.051  0.00  0.00    +0.304 C 
ATOM     33  O   LIG    1       23.123 -32.734  10.641  0.00  0.00    -0.251 OA
ATOM     34  C   LIG    1       23.325 -30.531  11.582  0.00  0.00    +0.136 C 
ENDBRANCH  31  32
ENDBRANCH  30  31
ENDBRANCH   5  30
TORSDOF 10
ENDMDL
MODEL 4
REMARK VINA RESULT:      -5.7      4.139      7.687
REMARK  Name = *****
REMARK                            x       y       z     vdW  Elec       q    Type
REMARK                         _______ _______ _______ _____ _____    ______ ____
ROOT
ATOM      1  CA  LIG    1       24.780 -30.041  11.267  0.00  0.00    +0.191 C 
ATOM      2  C   LIG    1       25.684 -29.376  12.350  0.00  0.00    +0.169 C 
ATOM      3  N   LIG    1       24.487 -28.780  12.895  0.00  0.00    -0.249 N 
ATOM      4  CA  LIG    1       24.442 -27.784  13.830  0.00  0.00    +0.125 C 
ATOM      5  C   LIG    1       25.555 -27.066  14.124  0.00  0.00    +0.006 C 
ATOM      6  C   LIG    1       26.891 -27.260  13.429  0.00  0.00    +0.107 C 
ATOM      7  S   LIG    1       26.797 -28.061  11.801  0.00  0.00    -0.131 S 
ATOM      8  C   LIG    1       23.628 -29.237  11.956  0.00  0.00    +0.244 C 
ATOM      9  O   LIG    1       22.463 -28.980  11.715  0.00  0.00    -0.273 OA
ENDROOT
BRANCH   1  11
ATOM     10  C   LIG    1       24.149 -30.184   8.848  0.00  0.00    +0.268 C 
ATOM     11  N   LIG    1       25.043 -29.756   9.818  0.00  0.00    -0.296 N 
ATOM     12  H   LIG    1       25.943 -29.400   9.498  0.00  0.00    +0.150 HD
ATOM     13  O   LIG    1       23.113 -30.782   9.107  0.00  0.00    -0.268 OA
BRANCH  10  15
ATOM     14  N   LIG    1       24.534 -30.966   6.593  0.00  0.00    -0.078 NA
ATOM     15  C   LIG    1       24.546 -29.923   7.385  0.00  0.00    +0.190 C 
BRANCH  15  16
ATOM     16  C   LIG    1       24.865 -28.551   6.948  0.00  0.00    +0.107 A 
ATOM     17  N   LIG    1       24.000 -27.820   6.125  0.00  0.00    -0.223 NA
ATOM     18  C   LIG    1       24.470 -26.625   5.883  0.00  0.00    +0.156 A 
ATOM     19  S   LIG    1       25.980 -26.275   6.612  0.00  0.00    -0.060 S 
ATOM     20  C   LIG    1       25.993 -27.839   7.321  0.00  0.00    +0.078 A 
BRANCH  18  21
ATOM     21  N   LIG    1       23.830 -25.736   5.108  0.00  0.00    -0.338 N 
ATOM     22  H   LIG    1       22.841 -25.914   4.971  0.00  0.00    +0.144 HD
ATOM     23  H   LIG    1       24.308 -25.374   4.294  0.00  0.00    +0.144 HD
ENDBRANCH  18  21
ENDBRANCH  15  16
BRANCH  14  25
ATOM     24  C   LIG    1       25.875 -31.616   4.822  0.00  0.00    +0.313 C 
ATOM     25  O   LIG    1       24.956 -30.640   5.291  0.00  0.00    -0.396 OA
ENDBRANCH  14  25
ENDBRANCH  10  15
ENDBRANCH   1  11
BRANCH   4  26
ATOM     26  C   LIG    1       23.135 -27.545  14.533  0.00  0.00    +0.351 C 
ATOM     27  O   LIG    1       22.689 -28.151  15.492  0.00  0.00    -0.244 OA
BRANCH  26  28
ATOM     28  OXT LIG    1       22.419 -26.568  13.945  0.00  0.00    -0.476 OA
ATOM     29  HXT LIG    1       22.472 -25.824  14.579  0.00  0.00    +0.295 HD
ENDBRANCH  26  28
ENDBRANCH   4  26
BRANCH   5  30
ATOM     30  C   LIG    1       25.636 -25.975  15.179  0.00  0.00    +0.266 C 
BRANCH  30  31
ATOM     31  O   LIG    1       25.090 -24.765  14.632  0.00  0.00    -0.460 OA
BRANCH  31  32
ATOM     32  C   LIG    1       25.849 -23.656  14.845  0.00  0.00    +0.304 C 
ATOM     33  O   LIG    1       25.520 -22.504  14.607  0.00  0.00    -0.251 OA
ATOM     34  C   LIG    1       27.155 -24.048  15.457  0.00  0.00    +0.136 C 
ENDBRANCH  31  32
ENDBRANCH  30  31
ENDBRANCH   5  30
TORSDOF 10
ENDMDL
MODEL 5
REMARK VINA RESULT:      -5.7      5.626      8.836
REMARK  Name = *****
REMARK                            x       y       z     vdW  Elec       q    Type
REMARK                         _______ _______ _______ _____ _____    ______ ____
ROOT
ATOM      1  CA  LIG    1       21.635 -31.723  11.903  0.00  0.00    +0.191 C 
ATOM      2  C   LIG    1       20.956 -31.179  13.199  0.00  0.00    +0.169 C 
ATOM      3  N   LIG    1       19.689 -31.328  12.523  0.00  0.00    -0.249 N 
ATOM      4  CA  LIG    1       18.491 -30.821  12.945  0.00  0.00    +0.125 C 
ATOM      5  C   LIG    1       18.450 -29.876  13.918  0.00  0.00    +0.006 C 
ATOM      6  C   LIG    1       19.686 -29.279  14.566  0.00  0.00    +0.107 C 
ATOM      7  S   LIG    1       21.211 -29.432  13.590  0.00  0.00    -0.131 S 
ATOM      8  C   LIG    1       20.179 -31.728  11.328  0.00  0.00    +0.244 C 
ATOM      9  O   LIG    1       19.661 -31.879  10.237  0.00  0.00    -0.273 OA
ENDROOT
BRANCH   1  11
ATOM     10  C   LIG    1       23.321 -31.367  10.088  0.00  0.00    +0.268 C 
ATOM     11  N   LIG    1       22.649 -30.874  11.196  0.00  0.00    -0.296 N 
ATOM     12  H   LIG    1       22.988 -30.001  11.597  0.00  0.00    +0.150 HD
ATOM     13  O   LIG    1       23.121 -32.480   9.621  0.00  0.00    -0.268 OA
BRANCH  10  15
ATOM     14  N   LIG    1       25.129 -29.780  10.339  0.00  0.00    -0.078 NA
ATOM     15  C   LIG    1       24.405 -30.458   9.483  0.00  0.00    +0.190 C 
BRANCH  15  16
ATOM     16  C   LIG    1       24.604 -30.430   8.022  0.00  0.00    +0.107 A 
ATOM     17  N   LIG    1       23.943 -29.505   7.205  0.00  0.00    -0.223 NA
ATOM     18  C   LIG    1       24.286 -29.647   5.952  0.00  0.00    +0.156 A 
ATOM     19  S   LIG    1       25.418 -30.895   5.643  0.00  0.00    -0.060 S 
ATOM     20  C   LIG    1       25.467 -31.257   7.321  0.00  0.00    +0.078 A 
BRANCH  18  21
ATOM     21  N   LIG    1       23.780 -28.885   4.970  0.00  0.00    -0.338 N 
ATOM     22  H   LIG    1       23.680 -27.901   5.194  0.00  0.00    +0.144 HD
ATOM     23  H   LIG    1       23.034 -29.264   4.402  0.00  0.00    +0.144 HD
ENDBRANCH  18  21
ENDBRANCH  15  16
BRANCH  14  25
ATOM     24  C   LIG    1       26.823 -28.237  10.659  0.00  0.00    +0.313 C 
ATOM     25  O   LIG    1       26.059 -28.944   9.694  0.00  0.00    -0.396 OA
ENDBRANCH  14  25
ENDBRANCH  10  15
ENDBRANCH   1  11
BRANCH   4  26
ATOM     26  C   LIG    1       17.241 -31.373  12.320  0.00  0.00    +0.351 C 
ATOM     27  O   LIG    1       16.498 -32.224  12.777  0.00  0.00    -0.244 OA
BRANCH  26  28
ATOM     28  OXT LIG    1       17.015 -30.848  11.101  0.00  0.00    -0.476 OA
ATOM     29  HXT LIG    1       17.759 -31.184  10.559  0.00  0.00    +0.295 HD
ENDBRANCH  26  28
ENDBRANCH   4  26
BRANCH   5  30
ATOM     30  C   LIG    1       17.178 -29.281  14.502  0.00  0.00    +0.266 C 
BRANCH  30  31
ATOM     31  O   LIG    1       17.488 -27.997  15.063  0.00  0.00    -0.460 OA
BRANCH  31  32
ATOM     32  C   LIG    1       16.961 -26.941  14.385  0.00  0.00    +0.304 C 
ATOM     33  O   LIG    1       15.777 -26.757  14.149  0.00  0.00    -0.251 OA
ATOM     34  C   LIG    1       18.053 -26.000  13.991  0.00  0.00    +0.136 C 
ENDBRANCH  31  32
ENDBRANCH  30  31
ENDBRANCH   5  30
TORSDOF 10
ENDMDL
MODEL 6
REMARK VINA RESULT:      -5.7      2.593      9.022
REMARK  Name = *****
REMARK                            x       y       z     vdW  Elec       q    Type
REMARK                         _______ _______ _______ _____ _____    ______ ____
ROOT
ATOM      1  CA  LIG    1       25.815 -25.184   6.058  0.00  0.00    +0.191 C 
ATOM      2  C   LIG    1       24.637 -24.282   5.576  0.00  0.00    +0.169 C 
ATOM      3  N   LIG    1       25.371 -23.153   6.094  0.00  0.00    -0.249 N 
ATOM      4  CA  LIG    1       24.879 -21.889   6.269  0.00  0.00    +0.125 C 
ATOM      5  C   LIG    1       23.542 -21.660   6.225  0.00  0.00    +0.006 C 
ATOM      6  C   LIG    1       22.505 -22.753   6.039  0.00  0.00    +0.107 C 
ATOM      7  S   LIG    1       23.071 -24.425   6.470  0.00  0.00    -0.131 S 
ATOM      8  C   LIG    1       26.402 -23.848   6.624  0.00  0.00    +0.244 C 
ATOM      9  O   LIG    1       27.318 -23.527   7.357  0.00  0.00    -0.273 OA
ENDROOT
BRANCH   1  11
ATOM     10  C   LIG    1       25.547 -27.607   6.626  0.00  0.00    +0.268 C 
ATOM     11  N   LIG    1       25.541 -26.283   7.040  0.00  0.00    -0.296 N 
ATOM     12  H   LIG    1       25.186 -26.089   7.975  0.00  0.00    +0.150 HD
ATOM     13  O   LIG    1       25.789 -27.950   5.477  0.00  0.00    -0.268 OA
BRANCH  10  15
ATOM     14  N   LIG    1       24.079 -29.346   7.446  0.00  0.00    -0.078 NA
ATOM     15  C   LIG    1       25.169 -28.659   7.684  0.00  0.00    +0.190 C 
BRANCH  15  16
ATOM     16  C   LIG    1       26.046 -28.870   8.851  0.00  0.00    +0.107 A 
ATOM     17  N   LIG    1       26.234 -27.878   9.821  0.00  0.00    -0.223 NA
ATOM     18  C   LIG    1       27.030 -28.290  10.773  0.00  0.00    +0.156 A 
ATOM     19  S   LIG    1       27.621 -29.886  10.589  0.00  0.00    -0.060 S 
ATOM     20  C   LIG    1       26.725 -30.044   9.133  0.00  0.00    +0.078 A 
BRANCH  18  21
ATOM     21  N   LIG    1       27.375 -27.517  11.814  0.00  0.00    -0.338 N 
ATOM     22  H   LIG    1       26.611 -27.021  12.257  0.00  0.00    +0.144 HD
ATOM     23  H   LIG    1       28.240 -26.995  11.760  0.00  0.00    +0.144 HD
ENDBRANCH  18  21
ENDBRANCH  15  16
BRANCH  14  25
ATOM     24  C   LIG    1       23.676 -31.563   7.969  0.00  0.00    +0.313 C 
ATOM     25  O   LIG    1       23.789 -30.246   8.487  0.00  0.00    -0.396 OA
ENDBRANCH  14  25
ENDBRANCH  10  15
ENDBRANCH   1  11
BRANCH   4  26
ATOM     26  C   LIG    1       25.869 -20.776   6.472  0.00  0.00    +0.351 C 
ATOM     27  O   LIG    1       26.229 -20.289   7.529  0.00  0.00    -0.244 OA
BRANCH  26  28
ATOM     28  OXT LIG    1       26.324 -20.289   5.302  0.00  0.00    -0.476 OA
ATOM     29  HXT LIG    1       25.509 -20.096   4.794  0.00  0.00    +0.295 HD
ENDBRANCH  26  28
ENDBRANCH   4  26
BRANCH   5  30
ATOM     30  C   LIG    1       22.887 -20.294   6.353  0.00  0.00    +0.266 C 
BRANCH  30  31
ATOM     31  O   LIG    1       22.264 -19.964   5.103  0.00  0.00    -0.460 OA
BRANCH  31  32
ATOM     32  C   LIG    1       22.935 -19.039   4.364  0.00  0.00    +0.304 C 
ATOM     33  O   LIG    1       23.942 -19.241   3.702  0.00  0.00    -0.251 OA
ATOM     34  C   LIG    1       22.234 -17.722   4.447  0.00  0.00    +0.136 C 
ENDBRANCH  31  32
ENDBRANCH  30  31
ENDBRANCH   5  30
TORSDOF 10
ENDMDL
MODEL 7
REMARK VINA RESULT:      -5.3      1.921      2.592
REMARK  Name = *****
REMARK                            x       y       z     vdW  Elec       q    Type
REMARK                         _______ _______ _______ _____ _____    ______ ____
ROOT
ATOM      1  CA  LIG    1       26.291 -26.671   6.194  0.00  0.00    +0.191 C 
ATOM      2  C   LIG    1       26.688 -27.856   7.128  0.00  0.00    +0.169 C 
ATOM      3  N   LIG    1       25.633 -28.619   6.506  0.00  0.00    -0.249 N 
ATOM      4  CA  LIG    1       25.139 -29.815   6.950  0.00  0.00    +0.125 C 
ATOM      5  C   LIG    1       25.424 -30.254   8.202  0.00  0.00    +0.006 C 
ATOM      6  C   LIG    1       26.242 -29.462   9.206  0.00  0.00    +0.107 C 
ATOM      7  S   LIG    1       26.321 -27.675   8.890  0.00  0.00    -0.131 S 
ATOM      8  C   LIG    1       25.155 -27.634   5.713  0.00  0.00    +0.244 C 
ATOM      9  O   LIG    1       24.153 -27.545   5.028  0.00  0.00    -0.273 OA
ENDROOT
BRANCH   1  11
ATOM     10  C   LIG    1       25.335 -24.365   6.009  0.00  0.00    +0.268 C 
ATOM     11  N   LIG    1       25.874 -25.367   6.804  0.00  0.00    -0.296 N 
ATOM     12  H   LIG    1       26.121 -25.120   7.761  0.00  0.00    +0.150 HD
ATOM     13  O   LIG    1       25.154 -24.487   4.805  0.00  0.00    -0.268 OA
BRANCH  10  15
ATOM     14  N   LIG    1       23.798 -22.902   7.169  0.00  0.00    -0.078 NA
ATOM     15  C   LIG    1       25.018 -23.032   6.708  0.00  0.00    +0.190 C 
BRANCH  15  16
ATOM     16  C   LIG    1       26.077 -22.018   6.863  0.00  0.00    +0.107 A 
ATOM     17  N   LIG    1       26.447 -21.170   5.812  0.00  0.00    -0.223 NA
ATOM     18  C   LIG    1       27.386 -20.339   6.179  0.00  0.00    +0.156 A 
ATOM     19  S   LIG    1       27.907 -20.500   7.803  0.00  0.00    -0.060 S 
ATOM     20  C   LIG    1       26.772 -21.767   8.035  0.00  0.00    +0.078 A 
BRANCH  18  21
ATOM     21  N   LIG    1       27.920 -19.433   5.346  0.00  0.00    -0.338 N 
ATOM     22  H   LIG    1       28.100 -19.764   4.405  0.00  0.00    +0.144 HD
ATOM     23  H   LIG    1       28.617 -18.797   5.708  0.00  0.00    +0.144 HD
ENDBRANCH  18  21
ENDBRANCH  15  16
BRANCH  14  25
ATOM     24  C   LIG    1       23.071 -20.741   6.775  0.00  0.00    +0.313 C 
ATOM     25  O   LIG    1       23.589 -21.636   7.747  0.00  0.00    -0.396 OA
ENDBRANCH  14  25
ENDBRANCH  10  15
ENDBRANCH   1  11
BRANCH   4  26
ATOM     26  C   LIG    1       24.311 -30.626   5.994  0.00  0.00    +0.351 C 
ATOM     27  O   LIG    1       23.101 -30.770   6.000  0.00  0.00    -0.244 OA
BRANCH  26  28
ATOM     28  OXT LIG    1       25.073 -31.271   5.090  0.00  0.00    -0.476 OA
ATOM     29  HXT LIG    1       25.825 -31.612   5.617  0.00  0.00    +0.295 HD
ENDBRANCH  26  28
ENDBRANCH   4  26
BRANCH   5  30
ATOM     30  C   LIG    1       24.976 -31.585   8.782  0.00  0.00    +0.266 C 
BRANCH  30  31
ATOM     31  O   LIG    1       25.847 -32.616   8.294  0.00  0.00    -0.460 OA
BRANCH  31  32
ATOM     32  C   LIG    1       26.468 -33.339   9.266  0.00  0.00    +0.304 C 
ATOM     33  O   LIG    1       27.634 -33.704   9.255  0.00  0.00    -0.251 OA
ATOM     34  C   LIG    1       25.516 -33.597  10.388  0.00  0.00    +0.136 C 
ENDBRANCH  31  32
ENDBRANCH  30  31
ENDBRANCH   5  30
TORSDOF 10
ENDMDL
MODEL 8
REMARK VINA RESULT:      -5.2      2.675      9.088
REMARK  Name = *****
REMARK                            x       y       z     vdW  Elec       q    Type
REMARK                         _______ _______ _______ _____ _____    ______ ____
ROOT
ATOM      1  CA  LIG    1       25.934 -25.053   5.887  0.00  0.00    +0.191 C 
ATOM      2  C   LIG    1       24.683 -24.197   5.516  0.00  0.00    +0.169 C 
ATOM      3  N   LIG    1       25.410 -23.044   5.990  0.00  0.00    -0.249 N 
ATOM      4  CA  LIG    1       24.881 -21.804   6.223  0.00  0.00    +0.125 C 
ATOM      5  C   LIG    1       23.537 -21.632   6.293  0.00  0.00    +0.006 C 
ATOM      6  C   LIG    1       22.535 -22.766   6.175  0.00  0.00    +0.107 C 
ATOM      7  S   LIG    1       23.204 -24.417   6.533  0.00  0.00    -0.131 S 
ATOM      8  C   LIG    1       26.509 -23.701   6.423  0.00  0.00    +0.244 C 
ATOM      9  O   LIG    1       27.468 -23.349   7.084  0.00  0.00    -0.273 OA
ENDROOT
BRANCH   1  11
ATOM     10  C   LIG    1       25.891 -27.492   6.450  0.00  0.00    +0.268 C 
ATOM     11  N   LIG    1       25.787 -26.175   6.871  0.00  0.00    -0.296 N 
ATOM     12  H   LIG    1       25.449 -26.014   7.820  0.00  0.00    +0.150 HD
ATOM     13  O   LIG    1       26.121 -27.811   5.291  0.00  0.00    -0.268 OA
BRANCH  10  15
ATOM     14  N   LIG    1       25.833 -28.212   8.758  0.00  0.00    -0.078 NA
ATOM     15  C   LIG    1       25.639 -28.575   7.514  0.00  0.00    +0.190 C 
BRANCH  15  16
ATOM     16  C   LIG    1       25.161 -29.908   7.102  0.00  0.00    +0.107 A 
ATOM     17  N   LIG    1       25.979 -31.041   7.180  0.00  0.00    -0.223 NA
ATOM     18  C   LIG    1       25.344 -32.114   6.787  0.00  0.00    +0.156 A 
ATOM     19  S   LIG    1       23.726 -31.860   6.288  0.00  0.00    -0.060 S 
ATOM     20  C   LIG    1       23.883 -30.189   6.647  0.00  0.00    +0.078 A 
BRANCH  18  21
ATOM     21  N   LIG    1       25.918 -33.327   6.757  0.00  0.00    -0.338 N 
ATOM     22  H   LIG    1       25.504 -33.985   6.107  0.00  0.00    +0.144 HD
ATOM     23  H   LIG    1       26.226 -33.735   7.629  0.00  0.00    +0.144 HD
ENDBRANCH  18  21
ENDBRANCH  15  16
BRANCH  14  25
ATOM     24  C   LIG    1       26.802 -29.507  10.414  0.00  0.00    +0.313 C 
ATOM     25  O   LIG    1       25.625 -29.278   9.653  0.00  0.00    -0.396 OA
ENDBRANCH  14  25
ENDBRANCH  10  15
ENDBRANCH   1  11
BRANCH   4  26
ATOM     26  C   LIG    1       25.837 -20.653   6.362  0.00  0.00    +0.351 C 
ATOM     27  O   LIG    1       26.189 -20.101   7.390  0.00  0.00    -0.244 OA
BRANCH  26  28
ATOM     28  OXT LIG    1       26.271 -20.213   5.165  0.00  0.00    -0.476 OA
ATOM     29  HXT LIG    1       25.507 -19.714   4.807  0.00  0.00    +0.295 HD
ENDBRANCH  26  28
ENDBRANCH   4  26
BRANCH   5  30
ATOM     30  C   LIG    1       22.839 -20.297   6.494  0.00  0.00    +0.266 C 
BRANCH  30  31
ATOM     31  O   LIG    1       22.138 -19.958   5.288  0.00  0.00    -0.460 OA
BRANCH  31  32
ATOM     32  C   LIG    1       22.808 -19.104   4.467  0.00  0.00    +0.304 C 
ATOM     33  O   LIG    1       23.749 -19.393   3.743  0.00  0.00    -0.251 OA
ATOM     34  C   LIG    1       22.196 -17.743   4.547  0.00  0.00    +0.136 C 
ENDBRANCH  31  32
ENDBRANCH  30  31
ENDBRANCH   5  30
TORSDOF 10
ENDMDL
MODEL 9
REMARK VINA RESULT:      -5.2      5.064      8.714
REMARK  Name = *****
REMARK                            x       y       z     vdW  Elec       q    Type
REMARK                         _______ _______ _______ _____ _____    ______ ____
ROOT
ATOM      1  CA  LIG    1       24.214 -32.588   9.390  0.00  0.00    +0.191 C 
ATOM      2  C   LIG    1       23.815 -31.336   8.549  0.00  0.00    +0.169 C 
ATOM      3  N   LIG    1       24.566 -31.907   7.457  0.00  0.00    -0.249 N 
ATOM      4  CA  LIG    1       24.921 -31.262   6.304  0.00  0.00    +0.125 C 
ATOM      5  C   LIG    1       24.827 -29.911   6.216  0.00  0.00    +0.006 C 
ATOM      6  C   LIG    1       24.388 -29.020   7.363  0.00  0.00    +0.107 C 
ATOM      7  S   LIG    1       24.564 -29.757   9.015  0.00  0.00    -0.131 S 
ATOM      8  C   LIG    1       25.038 -32.987   8.120  0.00  0.00    +0.244 C 
ATOM      9  O   LIG    1       25.876 -33.823   7.837  0.00  0.00    -0.273 OA
ENDROOT
BRANCH   1  11
ATOM     10  C   LIG    1       24.295 -32.185  11.859  0.00  0.00    +0.268 C 
ATOM     11  N   LIG    1       24.974 -32.398  10.669  0.00  0.00    -0.296 N 
ATOM     12  H   LIG    1       25.983 -32.255  10.676  0.00  0.00    +0.150 HD
ATOM     13  O   LIG    1       23.075 -32.160  11.941  0.00  0.00    -0.268 OA
BRANCH  10  15
ATOM     14  N   LIG    1       25.129 -32.834  14.035  0.00  0.00    -0.078 NA
ATOM     15  C   LIG    1       25.160 -31.914  13.103  0.00  0.00    +0.190 C 
BRANCH  15  16
ATOM     16  C   LIG    1       25.991 -30.697  13.164  0.00  0.00    +0.107 A 
ATOM     17  N   LIG    1       27.135 -30.544  12.372  0.00  0.00    -0.223 NA
ATOM     18  C   LIG    1       27.700 -29.383  12.572  0.00  0.00    +0.156 A 
ATOM     19  S   LIG    1       26.920 -28.381  13.721  0.00  0.00    -0.060 S 
ATOM     20  C   LIG    1       25.721 -29.589  13.951  0.00  0.00    +0.078 A 
BRANCH  18  21
ATOM     21  N   LIG    1       28.821 -29.003  11.939  0.00  0.00    -0.338 N 
ATOM     22  H   LIG    1       28.681 -28.388  11.145  0.00  0.00    +0.144 HD
ATOM     23  H   LIG    1       29.560 -29.682  11.820  0.00  0.00    +0.144 HD
ENDBRANCH  18  21
ENDBRANCH  15  16
BRANCH  14  25
ATOM     24  C   LIG    1       26.877 -33.486  15.403  0.00  0.00    +0.313 C 
ATOM     25  O   LIG    1       25.910 -32.479  15.149  0.00  0.00    -0.396 OA
ENDBRANCH  14  25
ENDBRANCH  10  15
ENDBRANCH   1  11
BRANCH   4  26
ATOM     26  C   LIG    1       25.376 -32.104   5.145  0.00  0.00    +0.351 C 
ATOM     27  O   LIG    1       26.523 -32.324   4.795  0.00  0.00    -0.244 OA
BRANCH  26  28
ATOM     28  OXT LIG    1       24.338 -32.593   4.440  0.00  0.00    -0.476 OA
ATOM     29  HXT LIG    1       24.749 -33.252   3.843  0.00  0.00    +0.295 HD
ENDBRANCH  26  28
ENDBRANCH   4  26
BRANCH   5  30
ATOM     30  C   LIG    1       25.142 -29.095   4.972  0.00  0.00    +0.266 C 
BRANCH  30  31
ATOM     31  O   LIG    1       24.745 -27.735   5.202  0.00  0.00    -0.460 OA
BRANCH  31  32
ATOM     32  C   LIG    1       25.725 -26.816   4.988  0.00  0.00    +0.304 C 
ATOM     33  O   LIG    1       26.908 -27.059   4.797  0.00  0.00    -0.251 OA
ATOM     34  C   LIG    1       25.137 -25.443   4.983  0.00  0.00    +0.136 C 
ENDBRANCH  31  32
ENDBRANCH  30  31
ENDBRANCH   5  30
TORSDOF 10
ENDMDL
