MODEL 1
REMARK VINA RESULT:      -7.3      0.000      0.000
REMARK  Name = *****
REMARK                            x       y       z     vdW  Elec       q    Type
REMARK                         _______ _______ _______ _____ _____    ______ ____
ROOT
ATOM      1  C   LIG    1       26.551 -21.835   8.056  0.00  0.00    +0.165 C 
ENDROOT
BRANCH   1   4
ATOM      2  C   LIG    1       24.906 -25.006   6.610  0.00  0.00    +0.121 A 
ATOM      3  C   LIG    1       25.838 -24.102   7.123  0.00  0.00    +0.055 A 
ATOM      4  C   LIG    1       25.494 -22.776   7.473  0.00  0.00    +0.027 A 
ATOM      5  C   LIG    1       24.147 -22.384   7.291  0.00  0.00    +0.126 A 
ATOM      6  C   LIG    1       23.213 -23.317   6.815  0.00  0.00    +0.049 A 
ATOM      7  C   LIG    1       23.588 -24.608   6.472  0.00  0.00    +0.049 A 
BRANCH   2   9
ATOM      8  C   LIG    1       24.422 -27.180   5.838  0.00  0.00    +0.277 C 
ATOM      9  O   LIG    1       25.393 -26.240   6.283  0.00  0.00    -0.495 OA
ENDBRANCH   2   9
BRANCH   5  10
ATOM     10  O   LIG    1       23.800 -21.081   7.567  0.00  0.00    -0.495 OA
ATOM     11  C   LIG    1       23.226 -20.355   6.469  0.00  0.00    +0.277 C 
ENDBRANCH   5  10
ENDBRANCH   1   4
BRANCH   1  12
ATOM     12  O   LIG    1       25.991 -21.028   9.102  0.00  0.00    -0.386 OA
ATOM     13  H   LIG    1       26.024 -21.576   9.908  0.00  0.00    +0.210 HD
ENDBRANCH   1  12
BRANCH   1  14
ATOM     14  C   LIG    1       27.217 -20.882   7.029  0.00  0.00    +0.140 C 
BRANCH  14  15
ATOM     15  N   LIG    1       28.670 -20.882   7.072  0.00  0.00    -0.311 N 
ATOM     16  H   LIG    1       29.133 -21.673   6.633  0.00  0.00    +0.149 HD
ATOM     17  C   LIG    1       29.339 -20.144   8.027  0.00  0.00    +0.227 C 
ATOM     18  O   LIG    1       28.771 -19.315   8.759  0.00  0.00    -0.274 OA
BRANCH  17  19
ATOM     19  C   LIG    1       30.853 -20.373   8.064  0.00  0.00    +0.174 C 
BRANCH  19  20
ATOM     20  N   LIG    1       31.516 -19.673   6.957  0.00  0.00    -0.323 NA
ATOM     21  H   LIG    1       32.521 -19.658   7.106  0.00  0.00    +0.119 HD
ATOM     22  H   LIG    1       31.349 -20.212   6.102  0.00  0.00    +0.119 HD
ENDBRANCH  19  20
ENDBRANCH  17  19
ENDBRANCH  14  15
ENDBRANCH   1  14
TORSDOF 8
ENDMDL
MODEL 2
REMARK VINA RESULT:      -7.2      3.280      6.315
REMARK  Name = *****
REMARK                            x       y       z     vdW  Elec       q    Type
REMARK                         _______ _______ _______ _____ _____    ______ ____
ROOT
ATOM      1  C   LIG    1       25.084 -24.184   5.713  0.00  0.00    +0.165 C 
ENDROOT
BRANCH   1   4
ATOM      2  C   LIG    1       26.718 -21.601   8.060  0.00  0.00    +0.121 A 
ATOM      3  C   LIG    1       26.493 -22.726   7.266  0.00  0.00    +0.055 A 
ATOM      4  C   LIG    1       25.268 -22.944   6.593  0.00  0.00    +0.027 A 
ATOM      5  C   LIG    1       24.259 -21.965   6.745  0.00  0.00    +0.126 A 
ATOM      6  C   LIG    1       24.517 -20.819   7.511  0.00  0.00    +0.049 A 
ATOM      7  C   LIG    1       25.727 -20.642   8.167  0.00  0.00    +0.049 A 
BRANCH   2   9
ATOM      8  C   LIG    1       29.034 -21.218   7.833  0.00  0.00    +0.277 C 
ATOM      9  O   LIG    1       27.936 -21.545   8.678  0.00  0.00    -0.495 OA
ENDBRANCH   2   9
BRANCH   5  10
ATOM     10  O   LIG    1       23.037 -22.184   6.149  0.00  0.00    -0.495 OA
ATOM     11  C   LIG    1       22.537 -21.095   5.359  0.00  0.00    +0.277 C 
ENDBRANCH   5  10
ENDBRANCH   1   4
BRANCH   1  12
ATOM     12  O   LIG    1       24.673 -23.810   4.390  0.00  0.00    -0.386 OA
ATOM     13  H   LIG    1       23.888 -23.243   4.505  0.00  0.00    +0.210 HD
ENDBRANCH   1  12
BRANCH   1  14
ATOM     14  C   LIG    1       24.064 -25.221   6.249  0.00  0.00    +0.140 C 
BRANCH  14  15
ATOM     15  N   LIG    1       24.116 -26.509   5.576  0.00  0.00    -0.311 N 
ATOM     16  H   LIG    1       23.340 -26.725   4.956  0.00  0.00    +0.149 HD
ATOM     17  C   LIG    1       24.881 -27.534   6.091  0.00  0.00    +0.227 C 
ATOM     18  O   LIG    1       25.694 -27.370   7.018  0.00  0.00    -0.274 OA
BRANCH  17  19
ATOM     19  C   LIG    1       24.708 -28.879   5.380  0.00  0.00    +0.174 C 
BRANCH  19  20
ATOM     20  N   LIG    1       23.302 -29.301   5.391  0.00  0.00    -0.323 NA
ATOM     21  H   LIG    1       22.843 -28.963   6.232  0.00  0.00    +0.119 HD
ATOM     22  H   LIG    1       22.835 -28.854   4.596  0.00  0.00    +0.119 HD
ENDBRANCH  19  20
ENDBRANCH  17  19
ENDBRANCH  14  15
ENDBRANCH   1  14
TORSDOF 8
ENDMDL
MODEL 3
REMARK VINA RESULT:      -7.1      1.382      3.401
REMARK  Name = *****
REMARK                            x       y       z     vdW  Elec       q    Type
REMARK                         _______ _______ _______ _____ _____    ______ ____
ROOT
ATOM      1  C   LIG    1       27.136 -21.591   7.287  0.00  0.00    +0.165 C 
ENDROOT
BRANCH   1   4
ATOM      2  C   LIG    1       23.431 -20.989   6.413  0.00  0.00    +0.121 A 
ATOM      3  C   LIG    1       24.784 -20.792   6.695  0.00  0.00    +0.055 A 
ATOM      4  C   LIG    1       25.654 -21.862   7.011  0.00  0.00    +0.027 A 
ATOM      5  C   LIG    1       25.105 -23.165   7.026  0.00  0.00    +0.126 A 
ATOM      6  C   LIG    1       23.754 -23.350   6.698  0.00  0.00    +0.049 A 
ATOM      7  C   LIG    1       22.925 -22.276   6.403  0.00  0.00    +0.049 A 
BRANCH   2   9
ATOM      8  C   LIG    1       22.548 -19.526   4.788  0.00  0.00    +0.277 C 
ATOM      9  O   LIG    1       22.706 -19.857   6.163  0.00  0.00    -0.495 OA
ENDBRANCH   2   9
BRANCH   5  10
ATOM     10  O   LIG    1       25.917 -24.215   7.389  0.00  0.00    -0.495 OA
ATOM     11  C   LIG    1       25.910 -25.334   6.490  0.00  0.00    +0.277 C 
ENDBRANCH   5  10
ENDBRANCH   1   4
BRANCH   1  12
ATOM     12  O   LIG    1       27.408 -21.645   8.695  0.00  0.00    -0.386 OA
ATOM     13  H   LIG    1       26.769 -21.038   9.113  0.00  0.00    +0.210 HD
ENDBRANCH   1  12
BRANCH   1  14
ATOM     14  C   LIG    1       27.663 -20.233   6.756  0.00  0.00    +0.140 C 
BRANCH  14  15
ATOM     15  N   LIG    1       29.113 -20.121   6.743  0.00  0.00    -0.311 N 
ATOM     16  H   LIG    1       29.603 -20.702   6.068  0.00  0.00    +0.149 HD
ATOM     17  C   LIG    1       29.785 -19.647   7.850  0.00  0.00    +0.227 C 
ATOM     18  O   LIG    1       29.205 -19.126   8.819  0.00  0.00    -0.274 OA
BRANCH  17  19
ATOM     19  C   LIG    1       31.310 -19.745   7.761  0.00  0.00    +0.174 C 
BRANCH  19  20
ATOM     20  N   LIG    1       31.917 -19.721   9.098  0.00  0.00    -0.323 NA
ATOM     21  H   LIG    1       31.303 -19.242   9.751  0.00  0.00    +0.119 HD
ATOM     22  H   LIG    1       31.999 -20.690   9.421  0.00  0.00    +0.119 HD
ENDBRANCH  19  20
ENDBRANCH  17  19
ENDBRANCH  14  15
ENDBRANCH   1  14
TORSDOF 8
ENDMDL
MODEL 4
REMARK VINA RESULT:      -6.6      2.419      4.100
REMARK  Name = *****
REMARK                            x       y       z     vdW  Elec       q    Type
REMARK                         _______ _______ _______ _____ _____    ______ ____
ROOT
ATOM      1  C   LIG    1       26.854 -21.058   6.894  0.00  0.00    +0.165 C 
ENDROOT
BRANCH   1   4
ATOM      2  C   LIG    1       24.977 -19.559   3.881  0.00  0.00    +0.121 A 
ATOM      3  C   LIG    1       25.968 -19.875   4.812  0.00  0.00    +0.055 A 
ATOM      4  C   LIG    1       25.724 -20.724   5.917  0.00  0.00    +0.027 A 
ATOM      5  C   LIG    1       24.422 -21.262   6.049  0.00  0.00    +0.126 A 
ATOM      6  C   LIG    1       23.451 -20.969   5.081  0.00  0.00    +0.049 A 
ATOM      7  C   LIG    1       23.721 -20.123   4.015  0.00  0.00    +0.049 A 
BRANCH   2   9
ATOM      8  C   LIG    1       25.894 -17.457   3.331  0.00  0.00    +0.277 C 
ATOM      9  O   LIG    1       25.349 -18.695   2.889  0.00  0.00    -0.495 OA
ENDBRANCH   2   9
BRANCH   5  10
ATOM     10  O   LIG    1       24.144 -22.043   7.148  0.00  0.00    -0.495 OA
ATOM     11  C   LIG    1       23.105 -23.016   6.961  0.00  0.00    +0.277 C 
ENDBRANCH   5  10
ENDBRANCH   1   4
BRANCH   1  12
ATOM     12  O   LIG    1       26.595 -20.486   8.184  0.00  0.00    -0.386 OA
ATOM     13  H   LIG    1       25.822 -19.903   8.066  0.00  0.00    +0.210 HD
ENDBRANCH   1  12
BRANCH   1  14
ATOM     14  C   LIG    1       28.264 -20.593   6.446  0.00  0.00    +0.140 C 
BRANCH  14  15
ATOM     15  N   LIG    1       29.357 -21.308   7.087  0.00  0.00    -0.311 N 
ATOM     16  H   LIG    1       29.465 -22.286   6.835  0.00  0.00    +0.149 HD
ATOM     17  C   LIG    1       29.890 -20.846   8.273  0.00  0.00    +0.227 C 
ATOM     18  O   LIG    1       29.612 -19.732   8.749  0.00  0.00    -0.274 OA
BRANCH  17  19
ATOM     19  C   LIG    1       30.912 -21.785   8.920  0.00  0.00    +0.174 C 
BRANCH  19  20
ATOM     20  N   LIG    1       32.123 -21.053   9.312  0.00  0.00    -0.323 NA
ATOM     21  H   LIG    1       32.912 -21.690   9.368  0.00  0.00    +0.119 HD
ATOM     22  H   LIG    1       32.334 -20.378   8.571  0.00  0.00    +0.119 HD
ENDBRANCH  19  20
ENDBRANCH  17  19
ENDBRANCH  14  15
ENDBRANCH   1  14
TORSDOF 8
ENDMDL
MODEL 5
REMARK VINA RESULT:      -6.4      3.571      6.650
REMARK  Name = *****
REMARK                            x       y       z     vdW  Elec       q    Type
REMARK                         _______ _______ _______ _____ _____    ______ ____
ROOT
ATOM      1  C   LIG    1       24.854 -24.190   5.766  0.00  0.00    +0.165 C 
ENDROOT
BRANCH   1   4
ATOM      2  C   LIG    1       22.959 -20.834   5.741  0.00  0.00    +0.121 A 
ATOM      3  C   LIG    1       23.410 -22.114   5.413  0.00  0.00    +0.055 A 
ATOM      4  C   LIG    1       24.417 -22.775   6.155  0.00  0.00    +0.027 A 
ATOM      5  C   LIG    1       24.960 -22.091   7.267  0.00  0.00    +0.126 A 
ATOM      6  C   LIG    1       24.466 -20.824   7.608  0.00  0.00    +0.049 A 
ATOM      7  C   LIG    1       23.485 -20.199   6.852  0.00  0.00    +0.049 A 
BRANCH   2   9
ATOM      8  C   LIG    1       22.215 -18.952   4.531  0.00  0.00    +0.277 C 
ATOM      9  O   LIG    1       22.010 -20.308   4.910  0.00  0.00    -0.495 OA
ENDBRANCH   2   9
BRANCH   5  10
ATOM     10  O   LIG    1       25.983 -22.688   7.968  0.00  0.00    -0.495 OA
ATOM     11  C   LIG    1       27.192 -21.919   8.062  0.00  0.00    +0.277 C 
ENDBRANCH   5  10
ENDBRANCH   1   4
BRANCH   1  12
ATOM     12  O   LIG    1       24.887 -24.336   4.338  0.00  0.00    -0.386 OA
ATOM     13  H   LIG    1       25.231 -23.492   3.992  0.00  0.00    +0.210 HD
ENDBRANCH   1  12
BRANCH   1  14
ATOM     14  C   LIG    1       23.969 -25.328   6.336  0.00  0.00    +0.140 C 
BRANCH  14  15
ATOM     15  N   LIG    1       24.065 -26.581   5.603  0.00  0.00    -0.311 N 
ATOM     16  H   LIG    1       23.315 -26.777   4.946  0.00  0.00    +0.149 HD
ATOM     17  C   LIG    1       24.830 -27.618   6.094  0.00  0.00    +0.227 C 
ATOM     18  O   LIG    1       25.607 -27.488   7.056  0.00  0.00    -0.274 OA
BRANCH  17  19
ATOM     19  C   LIG    1       24.703 -28.929   5.313  0.00  0.00    +0.174 C 
BRANCH  19  20
ATOM     20  N   LIG    1       23.344 -29.474   5.419  0.00  0.00    -0.323 NA
ATOM     21  H   LIG    1       22.683 -28.856   4.956  0.00  0.00    +0.119 HD
ATOM     22  H   LIG    1       23.323 -30.365   4.915  0.00  0.00    +0.119 HD
ENDBRANCH  19  20
ENDBRANCH  17  19
ENDBRANCH  14  15
ENDBRANCH   1  14
TORSDOF 8
ENDMDL
MODEL 6
REMARK VINA RESULT:      -6.4      2.448      5.832
REMARK  Name = *****
REMARK                            x       y       z     vdW  Elec       q    Type
REMARK                         _______ _______ _______ _____ _____    ______ ____
ROOT
ATOM      1  C   LIG    1       25.078 -21.345   7.952  0.00  0.00    +0.165 C 
ENDROOT
BRANCH   1   4
ATOM      2  C   LIG    1       28.735 -20.237   7.457  0.00  0.00    +0.121 A 
ATOM      3  C   LIG    1       27.553 -20.723   8.018  0.00  0.00    +0.055 A 
ATOM      4  C   LIG    1       26.339 -20.778   7.295  0.00  0.00    +0.027 A 
ATOM      5  C   LIG    1       26.358 -20.324   5.956  0.00  0.00    +0.126 A 
ATOM      6  C   LIG    1       27.564 -19.879   5.393  0.00  0.00    +0.049 A 
ATOM      7  C   LIG    1       28.735 -19.829   6.135  0.00  0.00    +0.049 A 
BRANCH   2   9
ATOM      8  C   LIG    1       31.006 -19.663   7.724  0.00  0.00    +0.277 C 
ATOM      9  O   LIG    1       29.820 -20.210   8.288  0.00  0.00    -0.495 OA
ENDBRANCH   2   9
BRANCH   5  10
ATOM     10  O   LIG    1       25.176 -20.311   5.250  0.00  0.00    -0.495 OA
ATOM     11  C   LIG    1       25.281 -19.875   3.886  0.00  0.00    +0.277 C 
ENDBRANCH   5  10
ENDBRANCH   1   4
BRANCH   1  12
ATOM     12  O   LIG    1       25.342 -21.729   9.310  0.00  0.00    -0.386 OA
ATOM     13  H   LIG    1       24.997 -22.636   9.402  0.00  0.00    +0.210 HD
ENDBRANCH   1  12
BRANCH   1  14
ATOM     14  C   LIG    1       24.457 -22.569   7.229  0.00  0.00    +0.140 C 
BRANCH  14  15
ATOM     15  N   LIG    1       25.365 -23.694   7.076  0.00  0.00    -0.311 N 
ATOM     16  H   LIG    1       26.354 -23.469   7.012  0.00  0.00    +0.149 HD
ATOM     17  C   LIG    1       24.907 -24.897   6.581  0.00  0.00    +0.227 C 
ATOM     18  O   LIG    1       23.699 -25.145   6.422  0.00  0.00    -0.274 OA
BRANCH  17  19
ATOM     19  C   LIG    1       26.000 -25.934   6.311  0.00  0.00    +0.174 C 
BRANCH  19  20
ATOM     20  N   LIG    1       26.005 -26.337   4.900  0.00  0.00    -0.323 NA
ATOM     21  H   LIG    1       26.083 -27.348   4.826  0.00  0.00    +0.119 HD
ATOM     22  H   LIG    1       25.101 -26.076   4.497  0.00  0.00    +0.119 HD
ENDBRANCH  19  20
ENDBRANCH  17  19
ENDBRANCH  14  15
ENDBRANCH   1  14
TORSDOF 8
ENDMDL
MODEL 7
REMARK VINA RESULT:      -6.3      2.020      2.691
REMARK  Name = *****
REMARK                            x       y       z     vdW  Elec       q    Type
REMARK                         _______ _______ _______ _____ _____    ______ ____
ROOT
ATOM      1  C   LIG    1       26.695 -22.190   7.920  0.00  0.00    +0.165 C 
ENDROOT
BRANCH   1   4
ATOM      2  C   LIG    1       24.836 -25.245   6.484  0.00  0.00    +0.121 A 
ATOM      3  C   LIG    1       25.833 -24.398   6.969  0.00  0.00    +0.055 A 
ATOM      4  C   LIG    1       25.567 -23.068   7.371  0.00  0.00    +0.027 A 
ATOM      5  C   LIG    1       24.231 -22.614   7.273  0.00  0.00    +0.126 A 
ATOM      6  C   LIG    1       23.233 -23.492   6.825  0.00  0.00    +0.049 A 
ATOM      7  C   LIG    1       23.531 -24.788   6.428  0.00  0.00    +0.049 A 
BRANCH   2   9
ATOM      8  C   LIG    1       25.756 -26.579   4.771  0.00  0.00    +0.277 C 
ATOM      9  O   LIG    1       25.250 -26.489   6.098  0.00  0.00    -0.495 OA
ENDBRANCH   2   9
BRANCH   5  10
ATOM     10  O   LIG    1       23.957 -21.305   7.602  0.00  0.00    -0.495 OA
ATOM     11  C   LIG    1       23.143 -20.594   6.657  0.00  0.00    +0.277 C 
ENDBRANCH   5  10
ENDBRANCH   1   4
BRANCH   1  12
ATOM     12  O   LIG    1       26.232 -21.404   9.029  0.00  0.00    -0.386 OA
ATOM     13  H   LIG    1       26.334 -20.474   8.755  0.00  0.00    +0.210 HD
ENDBRANCH   1  12
BRANCH   1  14
ATOM     14  C   LIG    1       27.332 -21.223   6.889  0.00  0.00    +0.140 C 
BRANCH  14  15
ATOM     15  N   LIG    1       26.398 -20.708   5.900  0.00  0.00    -0.311 N 
ATOM     16  H   LIG    1       25.607 -21.304   5.674  0.00  0.00    +0.149 HD
ATOM     17  C   LIG    1       26.796 -19.735   5.007  0.00  0.00    +0.227 C 
ATOM     18  O   LIG    1       27.875 -19.125   5.109  0.00  0.00    -0.274 OA
BRANCH  17  19
ATOM     19  C   LIG    1       25.770 -19.412   3.917  0.00  0.00    +0.174 C 
BRANCH  19  20
ATOM     20  N   LIG    1       26.107 -18.156   3.235  0.00  0.00    -0.323 NA
ATOM     21  H   LIG    1       26.627 -17.548   3.861  0.00  0.00    +0.119 HD
ATOM     22  H   LIG    1       26.728 -18.382   2.453  0.00  0.00    +0.119 HD
ENDBRANCH  19  20
ENDBRANCH  17  19
ENDBRANCH  14  15
ENDBRANCH   1  14
TORSDOF 8
ENDMDL
MODEL 8
REMARK VINA RESULT:      -6.2      3.868      5.984
REMARK  Name = *****
REMARK                            x       y       z     vdW  Elec       q    Type
REMARK                         _______ _______ _______ _____ _____    ______ ____
ROOT
ATOM      1  C   LIG    1       30.722 -18.392   7.594  0.00  0.00    +0.165 C 
ENDROOT
BRANCH   1   4
ATOM      2  C   LIG    1       27.662 -20.196   6.100  0.00  0.00    +0.121 A 
ATOM      3  C   LIG    1       28.663 -19.257   6.357  0.00  0.00    +0.055 A 
ATOM      4  C   LIG    1       29.631 -19.442   7.372  0.00  0.00    +0.027 A 
ATOM      5  C   LIG    1       29.558 -20.634   8.130  0.00  0.00    +0.126 A 
ATOM      6  C   LIG    1       28.574 -21.586   7.830  0.00  0.00    +0.049 A 
ATOM      7  C   LIG    1       27.633 -21.368   6.835  0.00  0.00    +0.049 A 
BRANCH   2   9
ATOM      8  C   LIG    1       25.512 -20.514   5.187  0.00  0.00    +0.277 C 
ATOM      9  O   LIG    1       26.775 -19.863   5.115  0.00  0.00    -0.495 OA
ENDBRANCH   2   9
BRANCH   5  10
ATOM     10  O   LIG    1       30.452 -20.810   9.163  0.00  0.00    -0.495 OA
ATOM     11  C   LIG    1       31.148 -22.065   9.164  0.00  0.00    +0.277 C 
ENDBRANCH   5  10
ENDBRANCH   1   4
BRANCH   1  12
ATOM     12  O   LIG    1       31.997 -19.020   7.796  0.00  0.00    -0.386 OA
ATOM     13  H   LIG    1       31.817 -19.978   7.844  0.00  0.00    +0.210 HD
ENDBRANCH   1  12
BRANCH   1  14
ATOM     14  C   LIG    1       30.475 -17.432   8.787  0.00  0.00    +0.140 C 
BRANCH  14  15
ATOM     15  N   LIG    1       31.661 -17.151   9.580  0.00  0.00    -0.311 N 
ATOM     16  H   LIG    1       32.514 -17.624   9.297  0.00  0.00    +0.149 HD
ATOM     17  C   LIG    1       31.539 -16.677  10.870  0.00  0.00    +0.227 C 
ATOM     18  O   LIG    1       30.458 -16.293  11.349  0.00  0.00    -0.274 OA
BRANCH  17  19
ATOM     19  C   LIG    1       32.858 -16.590  11.644  0.00  0.00    +0.174 C 
BRANCH  19  20
ATOM     20  N   LIG    1       32.616 -16.291  13.061  0.00  0.00    -0.323 NA
ATOM     21  H   LIG    1       32.378 -15.309  13.174  0.00  0.00    +0.119 HD
ATOM     22  H   LIG    1       31.800 -16.833  13.360  0.00  0.00    +0.119 HD
ENDBRANCH  19  20
ENDBRANCH  17  19
ENDBRANCH  14  15
ENDBRANCH   1  14
TORSDOF 8
ENDMDL
MODEL 9
REMARK VINA RESULT:      -6.2      2.587      5.692
REMARK  Name = *****
REMARK                            x       y       z     vdW  Elec       q    Type
REMARK                         _______ _______ _______ _____ _____    ______ ____
ROOT
ATOM      1  C   LIG    1       23.523 -21.570   6.749  0.00  0.00    +0.165 C 
ENDROOT
BRANCH   1   4
ATOM      2  C   LIG    1       27.154 -20.347   7.169  0.00  0.00    +0.121 A 
ATOM      3  C   LIG    1       25.884 -20.869   7.423  0.00  0.00    +0.055 A 
ATOM      4  C   LIG    1       24.891 -20.966   6.420  0.00  0.00    +0.027 A 
ATOM      5  C   LIG    1       25.231 -20.517   5.123  0.00  0.00    +0.126 A 
ATOM      6  C   LIG    1       26.525 -20.037   4.874  0.00  0.00    +0.049 A 
ATOM      7  C   LIG    1       27.472 -19.945   5.884  0.00  0.00    +0.049 A 
BRANCH   2   9
ATOM      8  C   LIG    1       29.345 -19.948   7.942  0.00  0.00    +0.277 C 
ATOM      9  O   LIG    1       27.994 -20.281   8.244  0.00  0.00    -0.495 OA
ENDBRANCH   2   9
BRANCH   5  10
ATOM     10  O   LIG    1       24.262 -20.546   4.145  0.00  0.00    -0.495 OA
ATOM     11  C   LIG    1       23.761 -19.262   3.742  0.00  0.00    +0.277 C 
ENDBRANCH   5  10
ENDBRANCH   1   4
BRANCH   1  12
ATOM     12  O   LIG    1       23.173 -21.318   8.118  0.00  0.00    -0.386 OA
ATOM     13  H   LIG    1       22.218 -21.502   8.187  0.00  0.00    +0.210 HD
ENDBRANCH   1  12
BRANCH   1  14
ATOM     14  C   LIG    1       23.407 -23.097   6.506  0.00  0.00    +0.140 C 
BRANCH  14  15
ATOM     15  N   LIG    1       24.670 -23.812   6.599  0.00  0.00    -0.311 N 
ATOM     16  H   LIG    1       25.513 -23.249   6.531  0.00  0.00    +0.149 HD
ATOM     17  C   LIG    1       24.729 -25.162   6.321  0.00  0.00    +0.227 C 
ATOM     18  O   LIG    1       23.714 -25.864   6.167  0.00  0.00    -0.274 OA
BRANCH  17  19
ATOM     19  C   LIG    1       26.143 -25.746   6.290  0.00  0.00    +0.174 C 
BRANCH  19  20
ATOM     20  N   LIG    1       26.355 -26.547   5.078  0.00  0.00    -0.323 NA
ATOM     21  H   LIG    1       27.321 -26.860   5.031  0.00  0.00    +0.119 HD
ATOM     22  H   LIG    1       25.772 -27.385   5.151  0.00  0.00    +0.119 HD
ENDBRANCH  19  20
ENDBRANCH  17  19
ENDBRANCH  14  15
ENDBRANCH   1  14
TORSDOF 8
ENDMDL
