MODEL 1
REMARK VINA RESULT:      -7.3      0.000      0.000
REMARK  Name = *****
REMARK                            x       y       z     vdW  Elec       q    Type
REMARK                         _______ _______ _______ _____ _____    ______ ____
ROOT
ATOM      1  C   LIG    1       26.344 -22.150   6.900  0.00  0.00    +0.039 A 
ATOM      2  C   LIG    1       25.964 -21.336   5.802  0.00  0.00    +0.057 A 
ATOM      3  C   LIG    1       26.735 -20.232   5.381  0.00  0.00    +0.028 A 
ATOM      4  S   LIG    1       26.139 -19.135   4.091  0.00  0.00    -0.088 S 
ATOM      5  C   LIG    1       24.384 -19.321   4.304  0.00  0.00    +0.024 A 
ATOM      6  C   LIG    1       23.830 -20.547   4.680  0.00  0.00    +0.036 A 
ATOM      7  C   LIG    1       22.441 -20.715   4.757  0.00  0.00    +0.013 A 
ATOM      8  C   LIG    1       21.602 -19.629   4.510  0.00  0.00    +0.001 A 
ATOM      9  C   LIG    1       22.149 -18.391   4.176  0.00  0.00    +0.001 A 
ATOM     10  C   LIG    1       23.533 -18.240   4.057  0.00  0.00    +0.016 A 
ATOM     11  C   LIG    1       27.969 -19.971   6.008  0.00  0.00    -0.036 A 
ATOM     12  C   LIG    1       28.895 -18.869   5.563  0.00  0.00    +0.045 C 
ATOM     13  C   LIG    1       28.331 -20.745   7.119  0.00  0.00    +0.006 A 
ATOM     14  C   LIG    1       24.707 -21.662   5.074  0.00  0.00    +0.197 A 
ATOM     15  O   LIG    1       24.366 -22.818   4.885  0.00  0.00    -0.286 OA
ATOM     16  C   LIG    1       27.518 -21.790   7.576  0.00  0.00    +0.024 A 
ENDROOT
BRANCH   1  17
ATOM     17  N   LIG    1       25.478 -23.159   7.385  0.00  0.00    -0.342 N 
ATOM     18  H   LIG    1       24.504 -22.889   7.190  0.00  0.00    +0.146 HD
BRANCH  17  19
ATOM     19  C   LIG    1       25.739 -24.561   7.022  0.00  0.00    +0.117 C 
BRANCH  19  20
ATOM     20  C   LIG    1       24.431 -25.302   6.603  0.00  0.00    +0.103 C 
BRANCH  20  21
ATOM     21  N   LIG    1       24.594 -26.551   5.808  0.00  0.00    -0.301 NA
BRANCH  21  23
ATOM     22  C   LIG    1       26.862 -27.254   4.803  0.00  0.00    +0.020 C 
ATOM     23  C   LIG    1       25.606 -26.379   4.742  0.00  0.00    +0.081 C 
ENDBRANCH  21  23
BRANCH  21  24
ATOM     24  C   LIG    1       24.812 -27.740   6.643  0.00  0.00    +0.081 C 
ATOM     25  C   LIG    1       24.095 -29.003   6.169  0.00  0.00    +0.020 C 
ENDBRANCH  21  24
ENDBRANCH  20  21
ENDBRANCH  19  20
ENDBRANCH  17  19
ENDBRANCH   1  17
TORSDOF 6
ENDMDL
MODEL 2
REMARK VINA RESULT:      -7.1      2.725      6.005
REMARK  Name = *****
REMARK                            x       y       z     vdW  Elec       q    Type
REMARK                         _______ _______ _______ _____ _____    ______ ____
ROOT
ATOM      1  C   LIG    1       26.154 -22.384   7.351  0.00  0.00    +0.039 A 
ATOM      2  C   LIG    1       24.766 -22.296   7.072  0.00  0.00    +0.057 A 
ATOM      3  C   LIG    1       24.016 -23.402   6.619  0.00  0.00    +0.028 A 
ATOM      4  S   LIG    1       22.300 -23.210   6.128  0.00  0.00    -0.088 S 
ATOM      5  C   LIG    1       22.312 -21.512   5.601  0.00  0.00    +0.024 A 
ATOM      6  C   LIG    1       23.107 -20.562   6.245  0.00  0.00    +0.036 A 
ATOM      7  C   LIG    1       23.045 -19.209   5.888  0.00  0.00    +0.013 A 
ATOM      8  C   LIG    1       22.219 -18.812   4.837  0.00  0.00    +0.001 A 
ATOM      9  C   LIG    1       21.453 -19.761   4.159  0.00  0.00    +0.001 A 
ATOM     10  C   LIG    1       21.486 -21.103   4.549  0.00  0.00    +0.016 A 
ATOM     11  C   LIG    1       24.636 -24.663   6.520  0.00  0.00    -0.036 A 
ATOM     12  C   LIG    1       23.890 -25.912   6.131  0.00  0.00    +0.045 C 
ATOM     13  C   LIG    1       26.016 -24.750   6.753  0.00  0.00    +0.006 A 
ATOM     14  C   LIG    1       24.081 -20.987   7.264  0.00  0.00    +0.197 A 
ATOM     15  O   LIG    1       24.379 -20.247   8.187  0.00  0.00    -0.286 OA
ATOM     16  C   LIG    1       26.765 -23.626   7.127  0.00  0.00    +0.024 A 
ENDROOT
BRANCH   1  17
ATOM     17  N   LIG    1       26.903 -21.225   7.663  0.00  0.00    -0.342 N 
ATOM     18  H   LIG    1       26.750 -20.981   8.652  0.00  0.00    +0.146 HD
BRANCH  17  19
ATOM     19  C   LIG    1       28.330 -21.177   7.304  0.00  0.00    +0.117 C 
BRANCH  19  20
ATOM     20  C   LIG    1       28.922 -19.745   7.481  0.00  0.00    +0.103 C 
BRANCH  20  21
ATOM     21  N   LIG    1       29.932 -19.566   8.561  0.00  0.00    -0.301 NA
BRANCH  21  23
ATOM     22  C   LIG    1       31.157 -21.749   9.179  0.00  0.00    +0.020 C 
ATOM     23  C   LIG    1       31.096 -20.456   8.358  0.00  0.00    +0.081 C 
ENDBRANCH  21  23
BRANCH  21  24
ATOM     24  C   LIG    1       30.296 -18.160   8.780  0.00  0.00    +0.081 C 
ATOM     25  C   LIG    1       30.277 -17.708  10.240  0.00  0.00    +0.020 C 
ENDBRANCH  21  24
ENDBRANCH  20  21
ENDBRANCH  19  20
ENDBRANCH  17  19
ENDBRANCH   1  17
TORSDOF 6
ENDMDL
MODEL 3
REMARK VINA RESULT:      -6.9      3.235      7.419
REMARK  Name = *****
REMARK                            x       y       z     vdW  Elec       q    Type
REMARK                         _______ _______ _______ _____ _____    ______ ____
ROOT
ATOM      1  C   LIG    1       26.803 -19.383   5.021  0.00  0.00    +0.039 A 
ATOM      2  C   LIG    1       26.525 -20.351   6.020  0.00  0.00    +0.057 A 
ATOM      3  C   LIG    1       27.496 -20.768   6.956  0.00  0.00    +0.028 A 
ATOM      4  S   LIG    1       27.152 -22.108   8.100  0.00  0.00    -0.088 S 
ATOM      5  C   LIG    1       25.968 -23.036   7.153  0.00  0.00    +0.024 A 
ATOM      6  C   LIG    1       25.050 -22.395   6.318  0.00  0.00    +0.036 A 
ATOM      7  C   LIG    1       24.060 -23.121   5.645  0.00  0.00    +0.013 A 
ATOM      8  C   LIG    1       24.024 -24.510   5.765  0.00  0.00    +0.001 A 
ATOM      9  C   LIG    1       24.963 -25.162   6.563  0.00  0.00    +0.001 A 
ATOM     10  C   LIG    1       25.922 -24.428   7.267  0.00  0.00    +0.016 A 
ATOM     11  C   LIG    1       28.760 -20.146   6.963  0.00  0.00    -0.036 A 
ATOM     12  C   LIG    1       29.822 -20.467   7.982  0.00  0.00    +0.045 C 
ATOM     13  C   LIG    1       29.055 -19.219   5.954  0.00  0.00    +0.006 A 
ATOM     14  C   LIG    1       25.161 -20.946   6.077  0.00  0.00    +0.197 A 
ATOM     15  O   LIG    1       24.168 -20.277   5.845  0.00  0.00    -0.286 OA
ATOM     16  C   LIG    1       28.107 -18.872   4.982  0.00  0.00    +0.024 A 
ENDROOT
BRANCH   1  17
ATOM     17  N   LIG    1       25.854 -19.095   4.011  0.00  0.00    -0.342 N 
ATOM     18  H   LIG    1       24.921 -19.012   4.438  0.00  0.00    +0.146 HD
BRANCH  17  19
ATOM     19  C   LIG    1       26.122 -17.994   3.071  0.00  0.00    +0.117 C 
BRANCH  19  20
ATOM     20  C   LIG    1       25.430 -16.670   3.520  0.00  0.00    +0.103 C 
BRANCH  20  21
ATOM     21  N   LIG    1       26.112 -15.399   3.150  0.00  0.00    -0.301 NA
BRANCH  21  23
ATOM     22  C   LIG    1       24.016 -14.375   4.248  0.00  0.00    +0.020 C 
ATOM     23  C   LIG    1       25.198 -14.243   3.282  0.00  0.00    +0.081 C 
ENDBRANCH  21  23
BRANCH  21  24
ATOM     24  C   LIG    1       27.398 -15.216   3.836  0.00  0.00    +0.081 C 
ATOM     25  C   LIG    1       27.983 -13.807   3.747  0.00  0.00    +0.020 C 
ENDBRANCH  21  24
ENDBRANCH  20  21
ENDBRANCH  19  20
ENDBRANCH  17  19
ENDBRANCH   1  17
TORSDOF 6
ENDMDL
MODEL 4
REMARK VINA RESULT:      -6.8      4.778      9.802
REMARK  Name = *****
REMARK                            x       y       z     vdW  Elec       q    Type
REMARK                         _______ _______ _______ _____ _____    ______ ____
ROOT
ATOM      1  C   LIG    1       25.414 -28.832   7.256  0.00  0.00    +0.039 A 
ATOM      2  C   LIG    1       25.390 -29.664   8.404  0.00  0.00    +0.057 A 
ATOM      3  C   LIG    1       24.709 -30.900   8.425  0.00  0.00    +0.028 A 
ATOM      4  S   LIG    1       24.570 -31.847   9.943  0.00  0.00    -0.088 S 
ATOM      5  C   LIG    1       24.647 -30.535  11.141  0.00  0.00    +0.024 A 
ATOM      6  C   LIG    1       25.448 -29.411  10.928  0.00  0.00    +0.036 A 
ATOM      7  C   LIG    1       25.578 -28.424  11.914  0.00  0.00    +0.013 A 
ATOM      8  C   LIG    1       24.856 -28.537  13.101  0.00  0.00    +0.001 A 
ATOM      9  C   LIG    1       24.021 -29.635  13.304  0.00  0.00    +0.001 A 
ATOM     10  C   LIG    1       23.928 -30.640  12.336  0.00  0.00    +0.016 A 
ATOM     11  C   LIG    1       24.102 -31.374   7.245  0.00  0.00    -0.036 A 
ATOM     12  C   LIG    1       23.431 -32.720   7.155  0.00  0.00    +0.045 C 
ATOM     13  C   LIG    1       24.085 -30.539   6.119  0.00  0.00    +0.006 A 
ATOM     14  C   LIG    1       26.109 -29.213   9.628  0.00  0.00    +0.197 A 
ATOM     15  O   LIG    1       27.172 -28.619   9.555  0.00  0.00    -0.286 OA
ATOM     16  C   LIG    1       24.699 -29.279   6.137  0.00  0.00    +0.024 A 
ENDROOT
BRANCH   1  17
ATOM     17  N   LIG    1       25.983 -27.537   7.314  0.00  0.00    -0.342 N 
ATOM     18  H   LIG    1       26.943 -27.607   7.679  0.00  0.00    +0.146 HD
BRANCH  17  19
ATOM     19  C   LIG    1       25.912 -26.671   6.126  0.00  0.00    +0.117 C 
BRANCH  19  20
ATOM     20  C   LIG    1       26.062 -25.164   6.501  0.00  0.00    +0.103 C 
BRANCH  20  21
ATOM     21  N   LIG    1       25.014 -24.239   5.989  0.00  0.00    -0.301 NA
BRANCH  21  23
ATOM     22  C   LIG    1       22.671 -23.505   6.776  0.00  0.00    +0.020 C 
ATOM     23  C   LIG    1       23.673 -24.626   6.478  0.00  0.00    +0.081 C 
ENDBRANCH  21  23
BRANCH  21  24
ATOM     24  C   LIG    1       25.338 -22.823   6.212  0.00  0.00    +0.081 C 
ATOM     25  C   LIG    1       26.327 -22.558   7.346  0.00  0.00    +0.020 C 
ENDBRANCH  21  24
ENDBRANCH  20  21
ENDBRANCH  19  20
ENDBRANCH  17  19
ENDBRANCH   1  17
TORSDOF 6
ENDMDL
MODEL 5
REMARK VINA RESULT:      -6.8      1.744      4.381
REMARK  Name = *****
REMARK                            x       y       z     vdW  Elec       q    Type
REMARK                         _______ _______ _______ _____ _____    ______ ____
ROOT
ATOM      1  C   LIG    1       25.252 -22.204   6.345  0.00  0.00    +0.039 A 
ATOM      2  C   LIG    1       26.147 -21.112   6.482  0.00  0.00    +0.057 A 
ATOM      3  C   LIG    1       26.305 -20.137   5.473  0.00  0.00    +0.028 A 
ATOM      4  S   LIG    1       27.560 -18.862   5.618  0.00  0.00    -0.088 S 
ATOM      5  C   LIG    1       28.758 -19.711   6.621  0.00  0.00    +0.024 A 
ATOM      6  C   LIG    1       28.360 -20.607   7.615  0.00  0.00    +0.036 A 
ATOM      7  C   LIG    1       29.301 -21.204   8.464  0.00  0.00    +0.013 A 
ATOM      8  C   LIG    1       30.658 -20.943   8.280  0.00  0.00    +0.001 A 
ATOM      9  C   LIG    1       31.067 -20.081   7.262  0.00  0.00    +0.001 A 
ATOM     10  C   LIG    1       30.121 -19.454   6.446  0.00  0.00    +0.016 A 
ATOM     11  C   LIG    1       25.490 -20.191   4.326  0.00  0.00    -0.036 A 
ATOM     12  C   LIG    1       25.531 -19.144   3.244  0.00  0.00    +0.045 C 
ATOM     13  C   LIG    1       24.634 -21.290   4.165  0.00  0.00    +0.006 A 
ATOM     14  C   LIG    1       26.945 -20.995   7.734  0.00  0.00    +0.197 A 
ATOM     15  O   LIG    1       26.471 -21.295   8.817  0.00  0.00    -0.286 OA
ATOM     16  C   LIG    1       24.544 -22.293   5.139  0.00  0.00    +0.024 A 
ENDROOT
BRANCH   1  17
ATOM     17  N   LIG    1       25.224 -23.239   7.310  0.00  0.00    -0.342 N 
ATOM     18  H   LIG    1       24.327 -23.206   7.814  0.00  0.00    +0.146 HD
BRANCH  17  19
ATOM     19  C   LIG    1       25.568 -24.610   6.898  0.00  0.00    +0.117 C 
BRANCH  19  20
ATOM     20  C   LIG    1       24.298 -25.435   6.519  0.00  0.00    +0.103 C 
BRANCH  20  21
ATOM     21  N   LIG    1       24.513 -26.651   5.687  0.00  0.00    -0.301 NA
BRANCH  21  23
ATOM     22  C   LIG    1       26.861 -27.260   4.814  0.00  0.00    +0.020 C 
ATOM     23  C   LIG    1       25.578 -26.432   4.684  0.00  0.00    +0.081 C 
ENDBRANCH  21  23
BRANCH  21  24
ATOM     24  C   LIG    1       24.696 -27.870   6.487  0.00  0.00    +0.081 C 
ATOM     25  C   LIG    1       24.018 -29.118   5.925  0.00  0.00    +0.020 C 
ENDBRANCH  21  24
ENDBRANCH  20  21
ENDBRANCH  19  20
ENDBRANCH  17  19
ENDBRANCH   1  17
TORSDOF 6
ENDMDL
MODEL 6
REMARK VINA RESULT:      -6.7      4.485      9.673
REMARK  Name = *****
REMARK                            x       y       z     vdW  Elec       q    Type
REMARK                         _______ _______ _______ _____ _____    ______ ____
ROOT
ATOM      1  C   LIG    1       25.454 -28.352   7.264  0.00  0.00    +0.039 A 
ATOM      2  C   LIG    1       25.541 -29.764   7.367  0.00  0.00    +0.057 A 
ATOM      3  C   LIG    1       26.175 -30.403   8.454  0.00  0.00    +0.028 A 
ATOM      4  S   LIG    1       26.403 -32.183   8.466  0.00  0.00    -0.088 S 
ATOM      5  C   LIG    1       26.475 -32.504   6.719  0.00  0.00    +0.024 A 
ATOM      6  C   LIG    1       25.702 -31.768   5.818  0.00  0.00    +0.036 A 
ATOM      7  C   LIG    1       25.691 -32.084   4.454  0.00  0.00    +0.013 A 
ATOM      8  C   LIG    1       26.505 -33.112   3.979  0.00  0.00    +0.001 A 
ATOM      9  C   LIG    1       27.311 -33.825   4.865  0.00  0.00    +0.001 A 
ATOM     10  C   LIG    1       27.285 -33.534   6.232  0.00  0.00    +0.016 A 
ATOM     11  C   LIG    1       26.664 -29.626   9.522  0.00  0.00    -0.036 A 
ATOM     12  C   LIG    1       27.274 -30.230  10.760  0.00  0.00    +0.045 C 
ATOM     13  C   LIG    1       26.619 -28.229   9.409  0.00  0.00    +0.006 A 
ATOM     14  C   LIG    1       24.943 -30.596   6.286  0.00  0.00    +0.197 A 
ATOM     15  O   LIG    1       23.901 -30.272   5.741  0.00  0.00    -0.286 OA
ATOM     16  C   LIG    1       26.057 -27.606   8.287  0.00  0.00    +0.024 A 
ENDROOT
BRANCH   1  17
ATOM     17  N   LIG    1       24.941 -27.743   6.094  0.00  0.00    -0.342 N 
ATOM     18  H   LIG    1       23.958 -27.480   6.254  0.00  0.00    +0.146 HD
BRANCH  17  19
ATOM     19  C   LIG    1       25.702 -26.651   5.464  0.00  0.00    +0.117 C 
BRANCH  19  20
ATOM     20  C   LIG    1       24.776 -25.465   5.051  0.00  0.00    +0.103 C 
BRANCH  20  21
ATOM     21  N   LIG    1       24.721 -24.302   5.979  0.00  0.00    -0.301 NA
BRANCH  21  23
ATOM     22  C   LIG    1       22.569 -23.047   6.640  0.00  0.00    +0.020 C 
ATOM     23  C   LIG    1       23.458 -24.290   6.749  0.00  0.00    +0.081 C 
ENDBRANCH  21  23
BRANCH  21  24
ATOM     24  C   LIG    1       25.923 -24.178   6.815  0.00  0.00    +0.081 C 
ATOM     25  C   LIG    1       25.982 -22.919   7.679  0.00  0.00    +0.020 C 
ENDBRANCH  21  24
ENDBRANCH  20  21
ENDBRANCH  19  20
ENDBRANCH  17  19
ENDBRANCH   1  17
TORSDOF 6
ENDMDL
MODEL 7
REMARK VINA RESULT:      -6.5      1.778      4.486
REMARK  Name = *****
REMARK                            x       y       z     vdW  Elec       q    Type
REMARK                         _______ _______ _______ _____ _____    ______ ____
ROOT
ATOM      1  C   LIG    1       25.201 -21.886   6.305  0.00  0.00    +0.039 A 
ATOM      2  C   LIG    1       26.081 -20.774   6.278  0.00  0.00    +0.057 A 
ATOM      3  C   LIG    1       26.195 -19.931   5.152  0.00  0.00    +0.028 A 
ATOM      4  S   LIG    1       27.433 -18.632   5.100  0.00  0.00    -0.088 S 
ATOM      5  C   LIG    1       28.671 -19.333   6.165  0.00  0.00    +0.024 A 
ATOM      6  C   LIG    1       28.316 -20.103   7.275  0.00  0.00    +0.036 A 
ATOM      7  C   LIG    1       29.290 -20.577   8.163  0.00  0.00    +0.013 A 
ATOM      8  C   LIG    1       30.636 -20.323   7.908  0.00  0.00    +0.001 A 
ATOM      9  C   LIG    1       31.003 -19.591   6.779  0.00  0.00    +0.001 A 
ATOM     10  C   LIG    1       30.025 -19.083   5.919  0.00  0.00    +0.016 A 
ATOM     11  C   LIG    1       25.350 -20.139   4.045  0.00  0.00    -0.036 A 
ATOM     12  C   LIG    1       25.344 -19.234   2.840  0.00  0.00    +0.045 C 
ATOM     13  C   LIG    1       24.508 -21.260   4.047  0.00  0.00    +0.006 A 
ATOM     14  C   LIG    1       26.911 -20.492   7.482  0.00  0.00    +0.197 A 
ATOM     15  O   LIG    1       26.472 -20.660   8.607  0.00  0.00    -0.286 OA
ATOM     16  C   LIG    1       24.461 -22.134   5.141  0.00  0.00    +0.024 A 
ENDROOT
BRANCH   1  17
ATOM     17  N   LIG    1       25.216 -22.793   7.392  0.00  0.00    -0.342 N 
ATOM     18  H   LIG    1       24.258 -22.904   7.752  0.00  0.00    +0.146 HD
BRANCH  17  19
ATOM     19  C   LIG    1       25.891 -24.091   7.231  0.00  0.00    +0.117 C 
BRANCH  19  20
ATOM     20  C   LIG    1       24.933 -25.171   6.640  0.00  0.00    +0.103 C 
BRANCH  20  21
ATOM     21  N   LIG    1       25.425 -26.577   6.644  0.00  0.00    -0.301 NA
BRANCH  21  23
ATOM     22  C   LIG    1       24.485 -28.954   6.972  0.00  0.00    +0.020 C 
ATOM     23  C   LIG    1       24.317 -27.532   6.427  0.00  0.00    +0.081 C 
ENDBRANCH  21  23
BRANCH  21  24
ATOM     24  C   LIG    1       26.570 -26.787   5.747  0.00  0.00    +0.081 C 
ATOM     25  C   LIG    1       26.207 -27.056   4.288  0.00  0.00    +0.020 C 
ENDBRANCH  21  24
ENDBRANCH  20  21
ENDBRANCH  19  20
ENDBRANCH  17  19
ENDBRANCH   1  17
TORSDOF 6
ENDMDL
MODEL 8
REMARK VINA RESULT:      -6.2      5.965      9.848
REMARK  Name = *****
REMARK                            x       y       z     vdW  Elec       q    Type
REMARK                         _______ _______ _______ _____ _____    ______ ____
ROOT
ATOM      1  C   LIG    1       24.367 -30.331  10.438  0.00  0.00    +0.039 A 
ATOM      2  C   LIG    1       24.255 -29.589  11.642  0.00  0.00    +0.057 A 
ATOM      3  C   LIG    1       23.012 -29.341  12.262  0.00  0.00    +0.028 A 
ATOM      4  S   LIG    1       22.899 -28.266  13.696  0.00  0.00    -0.088 S 
ATOM      5  C   LIG    1       24.290 -27.200  13.401  0.00  0.00    +0.024 A 
ATOM      6  C   LIG    1       25.460 -27.686  12.812  0.00  0.00    +0.036 A 
ATOM      7  C   LIG    1       26.586 -26.867  12.666  0.00  0.00    +0.013 A 
ATOM      8  C   LIG    1       26.522 -25.531  13.061  0.00  0.00    +0.001 A 
ATOM      9  C   LIG    1       25.344 -25.026  13.611  0.00  0.00    +0.001 A 
ATOM     10  C   LIG    1       24.237 -25.860  13.795  0.00  0.00    +0.016 A 
ATOM     11  C   LIG    1       21.845 -29.918  11.724  0.00  0.00    -0.036 A 
ATOM     12  C   LIG    1       20.492 -29.778  12.372  0.00  0.00    +0.045 C 
ATOM     13  C   LIG    1       21.941 -30.617  10.513  0.00  0.00    +0.006 A 
ATOM     14  C   LIG    1       25.496 -29.054  12.268  0.00  0.00    +0.197 A 
ATOM     15  O   LIG    1       26.537 -29.690  12.255  0.00  0.00    -0.286 OA
ATOM     16  C   LIG    1       23.172 -30.789   9.866  0.00  0.00    +0.024 A 
ENDROOT
BRANCH   1  17
ATOM     17  N   LIG    1       25.609 -30.437   9.768  0.00  0.00    -0.342 N 
ATOM     18  H   LIG    1       25.977 -31.391   9.890  0.00  0.00    +0.146 HD
BRANCH  17  19
ATOM     19  C   LIG    1       25.707 -29.989   8.370  0.00  0.00    +0.117 C 
BRANCH  19  20
ATOM     20  C   LIG    1       26.036 -28.467   8.273  0.00  0.00    +0.103 C 
BRANCH  20  21
ATOM     21  N   LIG    1       25.248 -27.673   7.289  0.00  0.00    -0.301 NA
BRANCH  21  23
ATOM     22  C   LIG    1       25.826 -25.243   6.652  0.00  0.00    +0.020 C 
ATOM     23  C   LIG    1       26.116 -26.743   6.535  0.00  0.00    +0.081 C 
ENDBRANCH  21  23
BRANCH  21  24
ATOM     24  C   LIG    1       24.391 -28.505   6.434  0.00  0.00    +0.081 C 
ATOM     25  C   LIG    1       24.814 -28.575   4.967  0.00  0.00    +0.020 C 
ENDBRANCH  21  24
ENDBRANCH  20  21
ENDBRANCH  19  20
ENDBRANCH  17  19
ENDBRANCH   1  17
TORSDOF 6
ENDMDL
MODEL 9
REMARK VINA RESULT:      -6.0      8.945     10.793
REMARK  Name = *****
REMARK                            x       y       z     vdW  Elec       q    Type
REMARK                         _______ _______ _______ _____ _____    ______ ____
ROOT
ATOM      1  C   LIG    1       23.058 -27.295  13.368  0.00  0.00    +0.039 A 
ATOM      2  C   LIG    1       24.144 -27.998  12.786  0.00  0.00    +0.057 A 
ATOM      3  C   LIG    1       25.451 -27.467  12.748  0.00  0.00    +0.028 A 
ATOM      4  S   LIG    1       26.762 -28.317  11.864  0.00  0.00    -0.088 S 
ATOM      5  C   LIG    1       25.809 -29.165  10.626  0.00  0.00    +0.024 A 
ATOM      6  C   LIG    1       24.536 -29.663  10.912  0.00  0.00    +0.036 A 
ATOM      7  C   LIG    1       23.826 -30.410   9.963  0.00  0.00    +0.013 A 
ATOM      8  C   LIG    1       24.373 -30.614   8.697  0.00  0.00    +0.001 A 
ATOM      9  C   LIG    1       25.626 -30.084   8.390  0.00  0.00    +0.001 A 
ATOM     10  C   LIG    1       26.350 -29.376   9.354  0.00  0.00    +0.016 A 
ATOM     11  C   LIG    1       25.716 -26.237  13.383  0.00  0.00    -0.036 A 
ATOM     12  C   LIG    1       27.098 -25.642  13.466  0.00  0.00    +0.045 C 
ATOM     13  C   LIG    1       24.641 -25.518  13.922  0.00  0.00    +0.006 A 
ATOM     14  C   LIG    1       23.890 -29.341  12.196  0.00  0.00    +0.197 A 
ATOM     15  O   LIG    1       23.105 -30.120  12.709  0.00  0.00    -0.286 OA
ATOM     16  C   LIG    1       23.334 -26.021  13.884  0.00  0.00    +0.024 A 
ENDROOT
BRANCH   1  17
ATOM     17  N   LIG    1       21.737 -27.791  13.261  0.00  0.00    -0.342 N 
ATOM     18  H   LIG    1       21.553 -28.433  14.044  0.00  0.00    +0.146 HD
BRANCH  17  19
ATOM     19  C   LIG    1       20.630 -26.840  13.065  0.00  0.00    +0.117 C 
BRANCH  19  20
ATOM     20  C   LIG    1       19.673 -26.806  14.297  0.00  0.00    +0.103 C 
BRANCH  20  21
ATOM     21  N   LIG    1       18.288 -27.310  14.084  0.00  0.00    -0.301 NA
BRANCH  21  23
ATOM     22  C   LIG    1       18.781 -29.810  14.474  0.00  0.00    +0.020 C 
ATOM     23  C   LIG    1       18.036 -28.533  14.877  0.00  0.00    +0.081 C 
ENDBRANCH  21  23
BRANCH  21  24
ATOM     24  C   LIG    1       17.265 -26.270  14.260  0.00  0.00    +0.081 C 
ATOM     25  C   LIG    1       15.822 -26.761  14.157  0.00  0.00    +0.020 C 
ENDBRANCH  21  24
ENDBRANCH  20  21
ENDBRANCH  19  20
ENDBRANCH  17  19
ENDBRANCH   1  17
TORSDOF 6
ENDMDL
