MODEL 1
REMARK VINA RESULT:      -2.7      0.000      0.000
REMARK  Name = *****
REMARK                            x       y       z     vdW  Elec       q    Type
REMARK                         _______ _______ _______ _____ _____    ______ ____
ROOT
ATOM      1  C   LIG    1       25.785 -15.782   3.087  0.00  0.00    +0.170 C 
ENDROOT
BRANCH   1   7
ATOM      2 CL   LIG    1       22.534 -11.447   5.780  0.00  0.00    -0.084 Cl
ATOM      3  C   LIG    1       23.454 -12.670   4.999  0.00  0.00    +0.042 A 
ATOM      4  C   LIG    1       24.221 -12.351   3.883  0.00  0.00    +0.040 A 
ATOM      5  C   LIG    1       24.971 -13.345   3.248  0.00  0.00    +0.048 A 
ATOM      6 CL   LIG    1       25.825 -12.887   1.818  0.00  0.00    -0.083 Cl
ATOM      7  C   LIG    1       24.984 -14.662   3.741  0.00  0.00    +0.001 A 
ATOM      8  C   LIG    1       24.179 -14.963   4.858  0.00  0.00    +0.009 A 
ATOM      9  C   LIG    1       23.417 -13.974   5.480  0.00  0.00    +0.020 A 
ENDBRANCH   1   7
BRANCH   1  10
ATOM     10  O   LIG    1       25.116 -17.044   3.299  0.00  0.00    -0.365 OA
BRANCH  10  11
ATOM     11  C   LIG    1       26.018 -18.157   3.313  0.00  0.00    +0.199 C 
BRANCH  11  12
ATOM     12  C   LIG    1       25.504 -19.215   4.258  0.00  0.00    +0.015 A 
ATOM     13  C   LIG    1       24.139 -19.564   4.298  0.00  0.00    +0.048 A 
ATOM     14 CL   LIG    1       22.962 -18.803   3.282  0.00  0.00    -0.083 Cl
ATOM     15  C   LIG    1       23.668 -20.557   5.168  0.00  0.00    +0.020 A 
ATOM     16  C   LIG    1       24.543 -21.209   6.030  0.00  0.00    +0.003 A 
ATOM     17  C   LIG    1       25.892 -20.871   6.017  0.00  0.00    +0.020 A 
ATOM     18  C   LIG    1       26.370 -19.887   5.140  0.00  0.00    +0.048 A 
ATOM     19 CL   LIG    1       28.067 -19.558   5.190  0.00  0.00    -0.083 Cl
ENDBRANCH  11  12
ENDBRANCH  10  11
ENDBRANCH   1  10
BRANCH   1  20
ATOM     20  C   LIG    1       27.197 -15.849   3.712  0.00  0.00    +0.159 C 
BRANCH  20  21
ATOM     21  N   LIG    1       27.715 -14.541   4.063  0.00  0.00    -0.334 N 
ATOM     22  C   LIG    1       27.583 -13.931   5.278  0.00  0.00    +0.199 A 
ATOM     23  N   LIG    1       28.196 -12.777   5.307  0.00  0.00    -0.244 NA
ATOM     24  C   LIG    1       28.740 -12.626   4.056  0.00  0.00    +0.130 A 
ATOM     25  C   LIG    1       28.456 -13.714   3.267  0.00  0.00    +0.107 A 
ENDBRANCH  20  21
ENDBRANCH   1  20
TORSDOF 6
ENDMDL
MODEL 2
REMARK VINA RESULT:      -2.7      0.204      1.832
REMARK  Name = *****
REMARK                            x       y       z     vdW  Elec       q    Type
REMARK                         _______ _______ _______ _____ _____    ______ ____
ROOT
ATOM      1  C   LIG    1       25.804 -15.761   3.118  0.00  0.00    +0.170 C 
ENDROOT
BRANCH   1   7
ATOM      2 CL   LIG    1       22.524 -11.448   5.812  0.00  0.00    -0.084 Cl
ATOM      3  C   LIG    1       23.451 -12.665   5.030  0.00  0.00    +0.042 A 
ATOM      4  C   LIG    1       24.194 -12.347   3.898  0.00  0.00    +0.040 A 
ATOM      5  C   LIG    1       24.951 -13.336   3.263  0.00  0.00    +0.048 A 
ATOM      6 CL   LIG    1       25.772 -12.883   1.812  0.00  0.00    -0.083 Cl
ATOM      7  C   LIG    1       24.995 -14.646   3.772  0.00  0.00    +0.001 A 
ATOM      8  C   LIG    1       24.214 -14.947   4.906  0.00  0.00    +0.009 A 
ATOM      9  C   LIG    1       23.446 -13.964   5.529  0.00  0.00    +0.020 A 
ENDBRANCH   1   7
BRANCH   1  10
ATOM     10  O   LIG    1       25.148 -17.028   3.337  0.00  0.00    -0.365 OA
BRANCH  10  11
ATOM     11  C   LIG    1       26.044 -18.142   3.246  0.00  0.00    +0.199 C 
BRANCH  11  12
ATOM     12  C   LIG    1       25.661 -19.188   4.264  0.00  0.00    +0.015 A 
ATOM     13  C   LIG    1       26.601 -19.699   5.182  0.00  0.00    +0.048 A 
ATOM     14 CL   LIG    1       28.251 -19.175   5.201  0.00  0.00    -0.083 Cl
ATOM     15  C   LIG    1       26.238 -20.660   6.135  0.00  0.00    +0.020 A 
ATOM     16  C   LIG    1       24.936 -21.148   6.180  0.00  0.00    +0.003 A 
ATOM     17  C   LIG    1       23.996 -20.668   5.275  0.00  0.00    +0.020 A 
ATOM     18  C   LIG    1       24.351 -19.697   4.328  0.00  0.00    +0.048 A 
ATOM     19 CL   LIG    1       23.101 -19.153   3.264  0.00  0.00    -0.083 Cl
ENDBRANCH  11  12
ENDBRANCH  10  11
ENDBRANCH   1  10
BRANCH   1  20
ATOM     20  C   LIG    1       27.219 -15.812   3.739  0.00  0.00    +0.159 C 
BRANCH  20  21
ATOM     21  N   LIG    1       27.718 -14.499   4.098  0.00  0.00    -0.334 N 
ATOM     22  C   LIG    1       27.574 -13.898   5.317  0.00  0.00    +0.199 A 
ATOM     23  N   LIG    1       28.173 -12.737   5.355  0.00  0.00    -0.244 NA
ATOM     24  C   LIG    1       28.719 -12.571   4.107  0.00  0.00    +0.130 A 
ATOM     25  C   LIG    1       28.451 -13.658   3.310  0.00  0.00    +0.107 A 
ENDBRANCH  20  21
ENDBRANCH   1  20
TORSDOF 6
ENDMDL
MODEL 3
REMARK VINA RESULT:      -1.9      1.349      2.642
REMARK  Name = *****
REMARK                            x       y       z     vdW  Elec       q    Type
REMARK                         _______ _______ _______ _____ _____    ______ ____
ROOT
ATOM      1  C   LIG    1       26.491 -16.494   3.328  0.00  0.00    +0.170 C 
ENDROOT
BRANCH   1   7
ATOM      2 CL   LIG    1       23.400 -11.448   2.058  0.00  0.00    -0.084 Cl
ATOM      3  C   LIG    1       24.272 -12.881   2.437  0.00  0.00    +0.042 A 
ATOM      4  C   LIG    1       23.712 -13.823   3.294  0.00  0.00    +0.040 A 
ATOM      5  C   LIG    1       24.419 -14.990   3.600  0.00  0.00    +0.048 A 
ATOM      6 CL   LIG    1       23.696 -16.066   4.742  0.00  0.00    -0.083 Cl
ATOM      7  C   LIG    1       25.680 -15.239   3.028  0.00  0.00    +0.001 A 
ATOM      8  C   LIG    1       26.233 -14.256   2.182  0.00  0.00    +0.009 A 
ATOM      9  C   LIG    1       25.534 -13.085   1.891  0.00  0.00    +0.020 A 
ENDBRANCH   1   7
BRANCH   1  10
ATOM     10  O   LIG    1       25.656 -17.461   4.000  0.00  0.00    -0.365 OA
BRANCH  10  11
ATOM     11  C   LIG    1       26.046 -18.814   3.733  0.00  0.00    +0.199 C 
BRANCH  11  12
ATOM     12  C   LIG    1       25.365 -19.741   4.709  0.00  0.00    +0.015 A 
ATOM     13  C   LIG    1       26.095 -20.429   5.700  0.00  0.00    +0.048 A 
ATOM     14 CL   LIG    1       27.812 -20.267   5.861  0.00  0.00    -0.083 Cl
ATOM     15  C   LIG    1       25.458 -21.279   6.613  0.00  0.00    +0.020 A 
ATOM     16  C   LIG    1       24.084 -21.479   6.546  0.00  0.00    +0.003 A 
ATOM     17  C   LIG    1       23.345 -20.822   5.567  0.00  0.00    +0.020 A 
ATOM     18  C   LIG    1       23.977 -19.961   4.659  0.00  0.00    +0.048 A 
ATOM     19 CL   LIG    1       22.964 -19.177   3.497  0.00  0.00    -0.083 Cl
ENDBRANCH  11  12
ENDBRANCH  10  11
ENDBRANCH   1  10
BRANCH   1  20
ATOM     20  C   LIG    1       27.686 -16.138   4.241  0.00  0.00    +0.159 C 
BRANCH  20  21
ATOM     21  N   LIG    1       27.817 -14.710   4.458  0.00  0.00    -0.334 N 
ATOM     22  C   LIG    1       27.126 -13.978   5.382  0.00  0.00    +0.199 A 
ATOM     23  N   LIG    1       27.494 -12.723   5.374  0.00  0.00    -0.244 NA
ATOM     24  C   LIG    1       28.455 -12.634   4.398  0.00  0.00    +0.130 A 
ATOM     25  C   LIG    1       28.674 -13.861   3.818  0.00  0.00    +0.107 A 
ENDBRANCH  20  21
ENDBRANCH   1  20
TORSDOF 6
ENDMDL
MODEL 4
REMARK VINA RESULT:      -1.8      2.177      3.197
REMARK  Name = *****
REMARK                            x       y       z     vdW  Elec       q    Type
REMARK                         _______ _______ _______ _____ _____    ______ ____
ROOT
ATOM      1  C   LIG    1       26.725 -16.615   3.492  0.00  0.00    +0.170 C 
ENDROOT
BRANCH   1   7
ATOM      2 CL   LIG    1       23.673 -11.460   4.353  0.00  0.00    -0.084 Cl
ATOM      3  C   LIG    1       24.552 -12.915   4.096  0.00  0.00    +0.042 A 
ATOM      4  C   LIG    1       25.931 -12.868   3.923  0.00  0.00    +0.040 A 
ATOM      5  C   LIG    1       26.647 -14.051   3.717  0.00  0.00    +0.048 A 
ATOM      6 CL   LIG    1       28.342 -13.899   3.421  0.00  0.00    -0.083 Cl
ATOM      7  C   LIG    1       25.992 -15.296   3.711  0.00  0.00    +0.001 A 
ATOM      8  C   LIG    1       24.591 -15.313   3.865  0.00  0.00    +0.009 A 
ATOM      9  C   LIG    1       23.876 -14.130   4.053  0.00  0.00    +0.020 A 
ENDBRANCH   1   7
BRANCH   1  10
ATOM     10  O   LIG    1       25.900 -17.709   3.945  0.00  0.00    -0.365 OA
BRANCH  10  11
ATOM     11  C   LIG    1       24.668 -17.814   3.221  0.00  0.00    +0.199 C 
BRANCH  11  12
ATOM     12  C   LIG    1       23.824 -18.917   3.810  0.00  0.00    +0.015 A 
ATOM     13  C   LIG    1       22.655 -18.636   4.545  0.00  0.00    +0.048 A 
ATOM     14 CL   LIG    1       22.112 -17.017   4.831  0.00  0.00    -0.083 Cl
ATOM     15  C   LIG    1       21.867 -19.665   5.079  0.00  0.00    +0.020 A 
ATOM     16  C   LIG    1       22.238 -20.994   4.910  0.00  0.00    +0.003 A 
ATOM     17  C   LIG    1       23.396 -21.294   4.201  0.00  0.00    +0.020 A 
ATOM     18  C   LIG    1       24.181 -20.269   3.654  0.00  0.00    +0.048 A 
ATOM     19 CL   LIG    1       25.587 -20.752   2.771  0.00  0.00    -0.083 Cl
ENDBRANCH  11  12
ENDBRANCH  10  11
ENDBRANCH   1  10
BRANCH   1  20
ATOM     20  C   LIG    1       28.048 -16.617   4.290  0.00  0.00    +0.159 C 
BRANCH  20  21
ATOM     21  N   LIG    1       28.322 -17.897   4.914  0.00  0.00    -0.334 N 
ATOM     22  C   LIG    1       29.439 -18.208   5.637  0.00  0.00    +0.199 A 
ATOM     23  N   LIG    1       29.379 -19.424   6.115  0.00  0.00    -0.244 NA
ATOM     24  C   LIG    1       28.180 -19.926   5.676  0.00  0.00    +0.130 A 
ATOM     25  C   LIG    1       27.505 -18.991   4.930  0.00  0.00    +0.107 A 
ENDBRANCH  20  21
ENDBRANCH   1  20
TORSDOF 6
ENDMDL
MODEL 5
REMARK VINA RESULT:      -1.5      2.541      6.235
REMARK  Name = *****
REMARK                            x       y       z     vdW  Elec       q    Type
REMARK                         _______ _______ _______ _____ _____    ______ ____
ROOT
ATOM      1  C   LIG    1       25.698 -17.297   3.927  0.00  0.00    +0.170 C 
ENDROOT
BRANCH   1   7
ATOM      2 CL   LIG    1       21.099 -21.187   4.506  0.00  0.00    -0.084 Cl
ATOM      3  C   LIG    1       22.393 -20.069   4.333  0.00  0.00    +0.042 A 
ATOM      4  C   LIG    1       22.162 -18.710   4.518  0.00  0.00    +0.040 A 
ATOM      5  C   LIG    1       23.215 -17.801   4.380  0.00  0.00    +0.048 A 
ATOM      6 CL   LIG    1       22.827 -16.124   4.536  0.00  0.00    -0.083 Cl
ATOM      7  C   LIG    1       24.516 -18.246   4.086  0.00  0.00    +0.001 A 
ATOM      8  C   LIG    1       24.718 -19.626   3.881  0.00  0.00    +0.009 A 
ATOM      9  C   LIG    1       23.662 -20.530   4.001  0.00  0.00    +0.020 A 
ENDBRANCH   1   7
BRANCH   1  10
ATOM     10  O   LIG    1       25.384 -16.293   2.938  0.00  0.00    -0.365 OA
BRANCH  10  11
ATOM     11  C   LIG    1       26.292 -15.185   2.961  0.00  0.00    +0.199 C 
BRANCH  11  12
ATOM     12  C   LIG    1       25.688 -14.049   3.748  0.00  0.00    +0.015 A 
ATOM     13  C   LIG    1       26.251 -13.617   4.966  0.00  0.00    +0.048 A 
ATOM     14 CL   LIG    1       27.660 -14.361   5.646  0.00  0.00    -0.083 Cl
ATOM     15  C   LIG    1       25.695 -12.553   5.687  0.00  0.00    +0.020 A 
ATOM     16  C   LIG    1       24.554 -11.909   5.222  0.00  0.00    +0.003 A 
ATOM     17  C   LIG    1       23.973 -12.326   4.029  0.00  0.00    +0.020 A 
ATOM     18  C   LIG    1       24.534 -13.383   3.297  0.00  0.00    +0.048 A 
ATOM     19 CL   LIG    1       23.746 -13.809   1.818  0.00  0.00    -0.083 Cl
ENDBRANCH  11  12
ENDBRANCH  10  11
ENDBRANCH   1  10
BRANCH   1  20
ATOM     20  C   LIG    1       26.944 -18.087   3.465  0.00  0.00    +0.159 C 
BRANCH  20  21
ATOM     21  N   LIG    1       27.792 -18.488   4.570  0.00  0.00    -0.334 N 
ATOM     22  C   LIG    1       27.673 -19.646   5.287  0.00  0.00    +0.199 A 
ATOM     23  N   LIG    1       28.612 -19.751   6.190  0.00  0.00    -0.244 NA
ATOM     24  C   LIG    1       29.365 -18.611   6.064  0.00  0.00    +0.130 A 
ATOM     25  C   LIG    1       28.874 -17.813   5.059  0.00  0.00    +0.107 A 
ENDBRANCH  20  21
ENDBRANCH   1  20
TORSDOF 6
ENDMDL
MODEL 6
REMARK VINA RESULT:      -1.4      2.798      7.069
REMARK  Name = *****
REMARK                            x       y       z     vdW  Elec       q    Type
REMARK                         _______ _______ _______ _____ _____    ______ ____
ROOT
ATOM      1  C   LIG    1       25.632 -18.055   3.316  0.00  0.00    +0.170 C 
ENDROOT
BRANCH   1   7
ATOM      2 CL   LIG    1       29.413 -20.936   7.062  0.00  0.00    -0.084 Cl
ATOM      3  C   LIG    1       28.344 -20.101   6.005  0.00  0.00    +0.042 A 
ATOM      4  C   LIG    1       28.716 -18.869   5.479  0.00  0.00    +0.040 A 
ATOM      5  C   LIG    1       27.849 -18.190   4.618  0.00  0.00    +0.048 A 
ATOM      6 CL   LIG    1       28.346 -16.625   4.080  0.00  0.00    -0.083 Cl
ATOM      7  C   LIG    1       26.613 -18.752   4.251  0.00  0.00    +0.001 A 
ATOM      8  C   LIG    1       26.251 -19.991   4.817  0.00  0.00    +0.009 A 
ATOM      9  C   LIG    1       27.110 -20.659   5.691  0.00  0.00    +0.020 A 
ENDBRANCH   1   7
BRANCH   1  10
ATOM     10  O   LIG    1       26.109 -16.725   3.017  0.00  0.00    -0.365 OA
BRANCH  10  11
ATOM     11  C   LIG    1       25.908 -15.807   4.099  0.00  0.00    +0.199 C 
BRANCH  11  12
ATOM     12  C   LIG    1       25.342 -14.513   3.568  0.00  0.00    +0.015 A 
ATOM     13  C   LIG    1       23.996 -14.155   3.787  0.00  0.00    +0.048 A 
ATOM     14 CL   LIG    1       22.903 -15.170   4.666  0.00  0.00    -0.083 Cl
ATOM     15  C   LIG    1       23.477 -12.947   3.304  0.00  0.00    +0.020 A 
ATOM     16  C   LIG    1       24.282 -12.079   2.574  0.00  0.00    +0.003 A 
ATOM     17  C   LIG    1       25.609 -12.418   2.334  0.00  0.00    +0.020 A 
ATOM     18  C   LIG    1       26.136 -13.620   2.826  0.00  0.00    +0.048 A 
ATOM     19 CL   LIG    1       27.802 -13.935   2.489  0.00  0.00    -0.083 Cl
ENDBRANCH  11  12
ENDBRANCH  10  11
ENDBRANCH   1  10
BRANCH   1  20
ATOM     20  C   LIG    1       24.247 -17.954   3.993  0.00  0.00    +0.159 C 
BRANCH  20  21
ATOM     21  N   LIG    1       23.617 -19.248   4.171  0.00  0.00    -0.334 N 
ATOM     22  C   LIG    1       23.783 -20.334   3.358  0.00  0.00    +0.199 A 
ATOM     23  N   LIG    1       23.125 -21.373   3.801  0.00  0.00    -0.244 NA
ATOM     24  C   LIG    1       22.496 -20.942   4.943  0.00  0.00    +0.130 A 
ATOM     25  C   LIG    1       22.792 -19.624   5.193  0.00  0.00    +0.107 A 
ENDBRANCH  20  21
ENDBRANCH   1  20
TORSDOF 6
ENDMDL
MODEL 7
REMARK VINA RESULT:      -1.3      2.952      5.189
REMARK  Name = *****
REMARK                            x       y       z     vdW  Elec       q    Type
REMARK                         _______ _______ _______ _____ _____    ______ ____
ROOT
ATOM      1  C   LIG    1       24.393 -17.914   4.263  0.00  0.00    +0.170 C 
ENDROOT
BRANCH   1   7
ATOM      2 CL   LIG    1       25.759 -12.246   2.641  0.00  0.00    -0.084 Cl
ATOM      3  C   LIG    1       25.363 -13.849   3.118  0.00  0.00    +0.042 A 
ATOM      4  C   LIG    1       24.163 -14.098   3.777  0.00  0.00    +0.040 A 
ATOM      5  C   LIG    1       23.839 -15.402   4.163  0.00  0.00    +0.048 A 
ATOM      6 CL   LIG    1       22.375 -15.613   5.056  0.00  0.00    -0.083 Cl
ATOM      7  C   LIG    1       24.699 -16.474   3.866  0.00  0.00    +0.001 A 
ATOM      8  C   LIG    1       25.919 -16.191   3.219  0.00  0.00    +0.009 A 
ATOM      9  C   LIG    1       26.249 -14.887   2.851  0.00  0.00    +0.020 A 
ENDBRANCH   1   7
BRANCH   1  10
ATOM     10  O   LIG    1       24.911 -18.814   3.261  0.00  0.00    -0.365 OA
BRANCH  10  11
ATOM     11  C   LIG    1       26.327 -19.007   3.365  0.00  0.00    +0.199 C 
BRANCH  11  12
ATOM     12  C   LIG    1       26.648 -19.738   4.646  0.00  0.00    +0.015 A 
ATOM     13  C   LIG    1       27.672 -19.295   5.507  0.00  0.00    +0.048 A 
ATOM     14 CL   LIG    1       28.634 -17.899   5.156  0.00  0.00    -0.083 Cl
ATOM     15  C   LIG    1       27.959 -19.969   6.702  0.00  0.00    +0.020 A 
ATOM     16  C   LIG    1       27.245 -21.109   7.054  0.00  0.00    +0.003 A 
ATOM     17  C   LIG    1       26.239 -21.572   6.212  0.00  0.00    +0.020 A 
ATOM     18  C   LIG    1       25.941 -20.894   5.022  0.00  0.00    +0.048 A 
ATOM     19 CL   LIG    1       24.658 -21.540   4.059  0.00  0.00    -0.083 Cl
ENDBRANCH  11  12
ENDBRANCH  10  11
ENDBRANCH   1  10
BRANCH   1  20
ATOM     20  C   LIG    1       22.864 -18.111   4.376  0.00  0.00    +0.159 C 
BRANCH  20  21
ATOM     21  N   LIG    1       22.507 -19.401   4.934  0.00  0.00    -0.334 N 
ATOM     22  C   LIG    1       21.705 -20.333   4.337  0.00  0.00    +0.199 A 
ATOM     23  N   LIG    1       21.606 -21.417   5.061  0.00  0.00    -0.244 NA
ATOM     24  C   LIG    1       22.365 -21.176   6.179  0.00  0.00    +0.130 A 
ATOM     25  C   LIG    1       22.938 -19.929   6.118  0.00  0.00    +0.107 A 
ENDBRANCH  20  21
ENDBRANCH   1  20
TORSDOF 6
ENDMDL
MODEL 8
REMARK VINA RESULT:      -1.2      2.826      7.233
REMARK  Name = *****
REMARK                            x       y       z     vdW  Elec       q    Type
REMARK                         _______ _______ _______ _____ _____    ______ ____
ROOT
ATOM      1  C   LIG    1       25.544 -18.161   3.340  0.00  0.00    +0.170 C 
ENDROOT
BRANCH   1   7
ATOM      2 CL   LIG    1       29.447 -20.908   7.061  0.00  0.00    -0.084 Cl
ATOM      3  C   LIG    1       28.344 -20.111   6.011  0.00  0.00    +0.042 A 
ATOM      4  C   LIG    1       28.678 -18.875   5.468  0.00  0.00    +0.040 A 
ATOM      5  C   LIG    1       27.782 -18.227   4.612  0.00  0.00    +0.048 A 
ATOM      6 CL   LIG    1       28.231 -16.655   4.052  0.00  0.00    -0.083 Cl
ATOM      7  C   LIG    1       26.556 -18.824   4.268  0.00  0.00    +0.001 A 
ATOM      8  C   LIG    1       26.232 -20.066   4.852  0.00  0.00    +0.009 A 
ATOM      9  C   LIG    1       27.120 -20.703   5.719  0.00  0.00    +0.020 A 
ENDBRANCH   1   7
BRANCH   1  10
ATOM     10  O   LIG    1       26.007 -16.841   2.983  0.00  0.00    -0.365 OA
BRANCH  10  11
ATOM     11  C   LIG    1       25.890 -15.900   4.057  0.00  0.00    +0.199 C 
BRANCH  11  12
ATOM     12  C   LIG    1       25.345 -14.595   3.533  0.00  0.00    +0.015 A 
ATOM     13  C   LIG    1       26.160 -13.690   2.823  0.00  0.00    +0.048 A 
ATOM     14 CL   LIG    1       27.834 -14.005   2.513  0.00  0.00    -0.083 Cl
ATOM     15  C   LIG    1       25.647 -12.485   2.327  0.00  0.00    +0.020 A 
ATOM     16  C   LIG    1       24.316 -12.145   2.544  0.00  0.00    +0.003 A 
ATOM     17  C   LIG    1       23.497 -13.016   3.254  0.00  0.00    +0.020 A 
ATOM     18  C   LIG    1       24.002 -14.229   3.742  0.00  0.00    +0.048 A 
ATOM     19 CL   LIG    1       22.894 -15.249   4.592  0.00  0.00    -0.083 Cl
ENDBRANCH  11  12
ENDBRANCH  10  11
ENDBRANCH   1  10
BRANCH   1  20
ATOM     20  C   LIG    1       24.179 -18.040   4.055  0.00  0.00    +0.159 C 
BRANCH  20  21
ATOM     21  N   LIG    1       23.546 -19.327   4.269  0.00  0.00    -0.334 N 
ATOM     22  C   LIG    1       23.873 -20.492   3.633  0.00  0.00    +0.199 A 
ATOM     23  N   LIG    1       23.160 -21.496   4.071  0.00  0.00    -0.244 NA
ATOM     24  C   LIG    1       22.327 -20.960   5.022  0.00  0.00    +0.130 A 
ATOM     25  C   LIG    1       22.554 -19.613   5.163  0.00  0.00    +0.107 A 
ENDBRANCH  20  21
ENDBRANCH   1  20
TORSDOF 6
ENDMDL
MODEL 9
REMARK VINA RESULT:      -1.1      2.425      4.459
REMARK  Name = *****
REMARK                            x       y       z     vdW  Elec       q    Type
REMARK                         _______ _______ _______ _____ _____    ______ ____
ROOT
ATOM      1  C   LIG    1       25.114 -17.065   3.334  0.00  0.00    +0.170 C 
ENDROOT
BRANCH   1   7
ATOM      2 CL   LIG    1       21.008 -21.285   4.734  0.00  0.00    -0.084 Cl
ATOM      3  C   LIG    1       22.160 -20.073   4.334  0.00  0.00    +0.042 A 
ATOM      4  C   LIG    1       21.969 -18.767   4.772  0.00  0.00    +0.040 A 
ATOM      5  C   LIG    1       22.907 -17.782   4.450  0.00  0.00    +0.048 A 
ATOM      6 CL   LIG    1       22.552 -16.168   4.954  0.00  0.00    -0.083 Cl
ATOM      7  C   LIG    1       24.061 -18.101   3.711  0.00  0.00    +0.001 A 
ATOM      8  C   LIG    1       24.217 -19.427   3.259  0.00  0.00    +0.009 A 
ATOM      9  C   LIG    1       23.272 -20.405   3.567  0.00  0.00    +0.020 A 
ENDBRANCH   1   7
BRANCH   1  10
ATOM     10  O   LIG    1       26.417 -17.524   3.754  0.00  0.00    -0.365 OA
BRANCH  10  11
ATOM     11  C   LIG    1       26.497 -18.950   3.862  0.00  0.00    +0.199 C 
BRANCH  11  12
ATOM     12  C   LIG    1       27.444 -19.324   4.975  0.00  0.00    +0.015 A 
ATOM     13  C   LIG    1       27.211 -20.447   5.793  0.00  0.00    +0.048 A 
ATOM     14 CL   LIG    1       25.826 -21.467   5.587  0.00  0.00    -0.083 Cl
ATOM     15  C   LIG    1       28.100 -20.798   6.817  0.00  0.00    +0.020 A 
ATOM     16  C   LIG    1       29.230 -20.026   7.062  0.00  0.00    +0.003 A 
ATOM     17  C   LIG    1       29.473 -18.905   6.276  0.00  0.00    +0.020 A 
ATOM     18  C   LIG    1       28.593 -18.557   5.242  0.00  0.00    +0.048 A 
ATOM     19 CL   LIG    1       29.000 -17.157   4.312  0.00  0.00    -0.083 Cl
ENDBRANCH  11  12
ENDBRANCH  10  11
ENDBRANCH   1  10
BRANCH   1  20
ATOM     20  C   LIG    1       24.801 -15.723   4.034  0.00  0.00    +0.159 C 
BRANCH  20  21
ATOM     21  N   LIG    1       25.824 -14.721   3.801  0.00  0.00    -0.334 N 
ATOM     22  C   LIG    1       26.332 -14.369   2.583  0.00  0.00    +0.199 A 
ATOM     23  N   LIG    1       27.206 -13.402   2.687  0.00  0.00    -0.244 NA
ATOM     24  C   LIG    1       27.277 -13.122   4.029  0.00  0.00    +0.130 A 
ATOM     25  C   LIG    1       26.422 -13.929   4.740  0.00  0.00    +0.107 A 
ENDBRANCH  20  21
ENDBRANCH   1  20
TORSDOF 6
ENDMDL
