MODEL 1
REMARK VINA RESULT:      -1.5      0.000      0.000
REMARK  Name = *****
REMARK                            x       y       z     vdW  Elec       q    Type
REMARK                         _______ _______ _______ _____ _____    ______ ____
ROOT
ATOM      1  C   LIG    1       23.126 -15.767   4.452  0.00  0.00    -0.000 C 
ATOM      2  C   LIG    1       23.840 -16.760   3.891  0.00  0.00    -0.066 C 
ATOM      3  C   LIG    1       23.240 -18.146   3.590  0.00  0.00    +0.021 C 
ATOM      4  C   LIG    1       22.050 -18.508   4.479  0.00  0.00    +0.009 C 
ATOM      5  C   LIG    1       21.904 -20.007   4.323  0.00  0.00    +0.005 C 
ATOM      6  C   LIG    1       23.335 -20.580   4.269  0.00  0.00    -0.002 C 
ATOM      7  C   LIG    1       24.237 -19.347   3.819  0.00  0.00    -0.022 C 
ATOM      8  C   LIG    1       24.911 -19.728   2.477  0.00  0.00    +0.012 C 
ATOM      9  C   LIG    1       25.297 -18.887   4.851  0.00  0.00    +0.008 C 
ATOM     10  C   LIG    1       26.108 -17.669   4.396  0.00  0.00    +0.005 C 
ATOM     11  C   LIG    1       25.311 -16.664   3.574  0.00  0.00    +0.031 C 
ENDROOT
BRANCH   1  19
ATOM     12  C   LIG    1       24.484 -14.204   1.836  0.00  0.00    +0.015 C 
ATOM     13  C   LIG    1       25.188 -14.045   2.968  0.00  0.00    -0.023 C 
ATOM     14  C   LIG    1       26.699 -14.139   3.088  0.00  0.00    +0.147 C 
ATOM     15  C   LIG    1       27.292 -12.891   3.758  0.00  0.00    +0.067 C 
ATOM     16  C   LIG    1       26.571 -12.511   5.053  0.00  0.00    +0.122 C 
ATOM     17  C   LIG    1       25.053 -12.440   4.861  0.00  0.00    +0.067 C 
ATOM     18  C   LIG    1       24.530 -13.719   4.234  0.00  0.00    -0.040 C 
ATOM     19  C   LIG    1       23.631 -14.478   4.876  0.00  0.00    +0.004 C 
BRANCH  14  20
ATOM     20  O   LIG    1       27.315 -14.308   1.814  0.00  0.00    -0.387 OA
ATOM     21  H   LIG    1       27.911 -15.073   1.884  0.00  0.00    +0.210 HD
ENDBRANCH  14  20
BRANCH  16  22
ATOM     22  O   LIG    1       26.906 -13.429   6.096  0.00  0.00    -0.391 OA
ATOM     23  H   LIG    1       26.900 -14.331   5.730  0.00  0.00    +0.210 HD
ENDBRANCH  16  22
ENDBRANCH   1  19
BRANCH   6  24
ATOM     24  C   LIG    1       23.759 -21.397   5.541  0.00  0.00    -0.010 C 
ATOM     25  C   LIG    1       23.269 -20.730   6.845  0.00  0.00    +0.008 C 
BRANCH  24  26
ATOM     26  C   LIG    1       25.305 -21.569   5.640  0.00  0.00    +0.003 C 
BRANCH  26  27
ATOM     27  C   LIG    1       25.973 -20.751   6.758  0.00  0.00    +0.000 C 
BRANCH  27  28
ATOM     28  C   LIG    1       27.416 -21.196   7.062  0.00  0.00    +0.003 C 
BRANCH  28  29
ATOM     29  C   LIG    1       28.541 -20.410   6.355  0.00  0.00    -0.017 C 
ATOM     30  C   LIG    1       28.725 -19.040   7.020  0.00  0.00    +0.007 C 
ATOM     31  C   LIG    1       28.287 -20.214   4.860  0.00  0.00    +0.007 C 
ENDBRANCH  28  29
ENDBRANCH  27  28
ENDBRANCH  26  27
ENDBRANCH  24  26
ENDBRANCH   6  24
TORSDOF 8
ENDMDL
MODEL 2
REMARK VINA RESULT:      -0.6      1.356      2.417
REMARK  Name = *****
REMARK                            x       y       z     vdW  Elec       q    Type
REMARK                         _______ _______ _______ _____ _____    ______ ____
ROOT
ATOM      1  C   LIG    1       22.551 -16.275   4.710  0.00  0.00    -0.000 C 
ATOM      2  C   LIG    1       22.262 -17.520   4.292  0.00  0.00    -0.066 C 
ATOM      3  C   LIG    1       22.211 -18.725   5.249  0.00  0.00    +0.021 C 
ATOM      4  C   LIG    1       23.066 -18.551   6.505  0.00  0.00    +0.009 C 
ATOM      5  C   LIG    1       23.213 -19.951   7.060  0.00  0.00    +0.005 C 
ATOM      6  C   LIG    1       23.385 -20.885   5.843  0.00  0.00    -0.002 C 
ATOM      7  C   LIG    1       22.757 -20.070   4.628  0.00  0.00    -0.022 C 
ATOM      8  C   LIG    1       21.576 -20.902   4.069  0.00  0.00    +0.012 C 
ATOM      9  C   LIG    1       23.746 -19.695   3.497  0.00  0.00    +0.008 C 
ATOM     10  C   LIG    1       23.109 -18.871   2.372  0.00  0.00    +0.005 C 
ATOM     11  C   LIG    1       22.041 -17.895   2.849  0.00  0.00    +0.031 C 
ENDROOT
BRANCH   1  19
ATOM     12  C   LIG    1       25.726 -16.138   3.693  0.00  0.00    +0.015 C 
ATOM     13  C   LIG    1       25.224 -14.935   4.016  0.00  0.00    -0.023 C 
ATOM     14  C   LIG    1       25.939 -13.870   4.829  0.00  0.00    +0.147 C 
ATOM     15  C   LIG    1       25.964 -12.521   4.096  0.00  0.00    +0.067 C 
ATOM     16  C   LIG    1       24.588 -12.105   3.569  0.00  0.00    +0.122 C 
ATOM     17  C   LIG    1       23.923 -13.226   2.765  0.00  0.00    +0.067 C 
ATOM     18  C   LIG    1       23.897 -14.517   3.563  0.00  0.00    -0.040 C 
ATOM     19  C   LIG    1       22.734 -15.108   3.872  0.00  0.00    +0.004 C 
BRANCH  14  20
ATOM     20  O   LIG    1       27.281 -14.252   5.125  0.00  0.00    -0.387 OA
ATOM     21  H   LIG    1       27.842 -13.893   4.417  0.00  0.00    +0.210 HD
ENDBRANCH  14  20
BRANCH  16  22
ATOM     22  O   LIG    1       23.747 -11.689   4.647  0.00  0.00    -0.391 OA
ATOM     23  H   LIG    1       22.819 -11.846   4.396  0.00  0.00    +0.210 HD
ENDBRANCH  16  22
ENDBRANCH   1  19
BRANCH   6  24
ATOM     24  C   LIG    1       24.826 -21.485   5.680  0.00  0.00    -0.010 C 
ATOM     25  C   LIG    1       25.573 -21.568   7.029  0.00  0.00    +0.008 C 
BRANCH  24  26
ATOM     26  C   LIG    1       25.701 -20.652   4.695  0.00  0.00    +0.003 C 
BRANCH  26  27
ATOM     27  C   LIG    1       27.219 -20.803   4.899  0.00  0.00    +0.000 C 
BRANCH  27  28
ATOM     28  C   LIG    1       27.946 -19.458   5.085  0.00  0.00    +0.003 C 
BRANCH  28  29
ATOM     29  C   LIG    1       29.144 -19.453   6.058  0.00  0.00    -0.017 C 
ATOM     30  C   LIG    1       29.207 -20.778   6.826  0.00  0.00    +0.007 C 
ATOM     31  C   LIG    1       29.101 -18.294   7.055  0.00  0.00    +0.007 C 
ENDBRANCH  28  29
ENDBRANCH  27  28
ENDBRANCH  26  27
ENDBRANCH  24  26
ENDBRANCH   6  24
TORSDOF 8
ENDMDL
