MODEL 1
REMARK VINA RESULT:       7.3      0.000      0.000
REMARK  Name = *****
REMARK                            x       y       z     vdW  Elec       q    Type
REMARK                         _______ _______ _______ _____ _____    ______ ____
ROOT
ATOM      1  C   LIG    1       25.899 -13.881   3.630  0.00  0.00    +0.105 C 
ATOM      2  N   LIG    1       26.446 -15.041   2.929  0.00  0.00    -0.305 NA
ATOM      3  C   LIG    1       27.486 -15.724   3.725  0.00  0.00    +0.088 C 
ATOM      4  C   LIG    1       26.948 -16.540   4.913  0.00  0.00    +0.047 C 
ATOM      5  C   LIG    1       25.933 -17.569   4.429  0.00  0.00    -0.057 C 
ATOM      6  C   LIG    1       26.017 -18.912   4.621  0.00  0.00    +0.007 C 
ATOM      7  C   LIG    1       27.158 -19.519   5.369  0.00  0.00    +0.075 A 
ATOM      8  C   LIG    1       26.984 -20.385   6.457  0.00  0.00    -0.021 A 
ATOM      9  C   LIG    1       28.149 -20.894   7.061  0.00  0.00    +0.007 A 
ATOM     10  C   LIG    1       29.407 -20.544   6.587  0.00  0.00    +0.020 A 
ATOM     11  C   LIG    1       29.474 -19.703   5.498  0.00  0.00    +0.111 A 
ATOM     12  C   LIG    1       25.662 -20.872   7.015  0.00  0.00    +0.042 C 
ATOM     13  C   LIG    1       24.362 -20.181   6.588  0.00  0.00    +0.040 C 
ATOM     14  C   LIG    1       24.077 -20.389   5.121  0.00  0.00    -0.039 A 
ATOM     15  C   LIG    1       23.022 -21.210   4.701  0.00  0.00    +0.004 A 
ATOM     16  C   LIG    1       22.805 -21.437   3.341  0.00  0.00    +0.000 A 
ATOM     17  C   LIG    1       23.647 -20.861   2.392  0.00  0.00    +0.001 A 
ATOM     18  C   LIG    1       24.702 -20.044   2.800  0.00  0.00    +0.009 A 
ATOM     19  N   LIG    1       28.388 -19.196   4.879  0.00  0.00    -0.255 NA
ATOM     20  C   LIG    1       24.908 -19.786   4.162  0.00  0.00    -0.013 A 
ATOM     21  C   LIG    1       24.814 -16.843   3.687  0.00  0.00    +0.047 C 
ATOM     22  C   LIG    1       25.391 -15.996   2.536  0.00  0.00    +0.088 C 
ENDROOT
TORSDOF 0
ENDMDL
MODEL 2
REMARK VINA RESULT:       8.7      1.796      5.553
REMARK  Name = *****
REMARK                            x       y       z     vdW  Elec       q    Type
REMARK                         _______ _______ _______ _____ _____    ______ ____
ROOT
ATOM      1  C   LIG    1       29.475 -19.421   6.848  0.00  0.00    +0.105 C 
ATOM      2  N   LIG    1       29.171 -19.414   5.419  0.00  0.00    -0.305 NA
ATOM      3  C   LIG    1       27.902 -20.109   5.123  0.00  0.00    +0.088 C 
ATOM      4  C   LIG    1       26.638 -19.327   5.521  0.00  0.00    +0.047 C 
ATOM      5  C   LIG    1       26.628 -17.960   4.847  0.00  0.00    -0.057 C 
ATOM      6  C   LIG    1       25.650 -17.491   4.029  0.00  0.00    +0.007 C 
ATOM      7  C   LIG    1       24.438 -18.307   3.720  0.00  0.00    +0.075 A 
ATOM      8  C   LIG    1       23.132 -17.832   3.897  0.00  0.00    -0.021 A 
ATOM      9  C   LIG    1       22.082 -18.705   3.554  0.00  0.00    +0.007 A 
ATOM     10  C   LIG    1       22.348 -19.976   3.061  0.00  0.00    +0.020 A 
ATOM     11  C   LIG    1       23.666 -20.344   2.902  0.00  0.00    +0.111 A 
ATOM     12  C   LIG    1       22.735 -16.449   4.372  0.00  0.00    +0.042 C 
ATOM     13  C   LIG    1       23.793 -15.534   5.000  0.00  0.00    +0.040 C 
ATOM     14  C   LIG    1       24.848 -15.134   3.999  0.00  0.00    -0.039 A 
ATOM     15  C   LIG    1       24.926 -13.819   3.521  0.00  0.00    +0.004 A 
ATOM     16  C   LIG    1       25.872 -13.477   2.553  0.00  0.00    +0.000 A 
ATOM     17  C   LIG    1       26.736 -14.445   2.045  0.00  0.00    +0.001 A 
ATOM     18  C   LIG    1       26.664 -15.758   2.514  0.00  0.00    +0.009 A 
ATOM     19  N   LIG    1       24.706 -19.541   3.208  0.00  0.00    -0.255 NA
ATOM     20  C   LIG    1       25.738 -16.103   3.507  0.00  0.00    -0.013 A 
ATOM     21  C   LIG    1       27.902 -17.214   5.233  0.00  0.00    +0.047 C 
ATOM     22  C   LIG    1       29.147 -18.045   4.866  0.00  0.00    +0.088 C 
ENDROOT
TORSDOF 0
ENDMDL
MODEL 3
REMARK VINA RESULT:       9.6      2.748      5.286
REMARK  Name = *****
REMARK                            x       y       z     vdW  Elec       q    Type
REMARK                         _______ _______ _______ _____ _____    ______ ____
ROOT
ATOM      1  C   LIG    1       19.350 -20.295   2.431  0.00  0.00    +0.105 C 
ATOM      2  N   LIG    1       19.716 -19.665   3.698  0.00  0.00    -0.305 NA
ATOM      3  C   LIG    1       20.673 -20.488   4.466  0.00  0.00    +0.088 C 
ATOM      4  C   LIG    1       22.107 -20.486   3.908  0.00  0.00    +0.047 C 
ATOM      5  C   LIG    1       22.635 -19.059   3.818  0.00  0.00    -0.057 C 
ATOM      6  C   LIG    1       23.761 -18.594   4.422  0.00  0.00    +0.007 C 
ATOM      7  C   LIG    1       24.621 -19.488   5.252  0.00  0.00    +0.075 A 
ATOM      8  C   LIG    1       26.000 -19.632   5.042  0.00  0.00    -0.021 A 
ATOM      9  C   LIG    1       26.691 -20.499   5.908  0.00  0.00    +0.007 A 
ATOM     10  C   LIG    1       26.021 -21.173   6.922  0.00  0.00    +0.020 A 
ATOM     11  C   LIG    1       24.670 -20.949   7.062  0.00  0.00    +0.111 A 
ATOM     12  C   LIG    1       26.831 -18.903   4.006  0.00  0.00    +0.042 C 
ATOM     13  C   LIG    1       26.131 -18.144   2.874  0.00  0.00    +0.040 C 
ATOM     14  C   LIG    1       25.342 -16.968   3.396  0.00  0.00    -0.039 A 
ATOM     15  C   LIG    1       25.760 -15.654   3.150  0.00  0.00    +0.004 A 
ATOM     16  C   LIG    1       25.051 -14.578   3.686  0.00  0.00    +0.000 A 
ATOM     17  C   LIG    1       23.931 -14.805   4.483  0.00  0.00    +0.001 A 
ATOM     18  C   LIG    1       23.508 -16.111   4.736  0.00  0.00    +0.009 A 
ATOM     19  N   LIG    1       23.965 -20.122   6.264  0.00  0.00    -0.255 NA
ATOM     20  C   LIG    1       24.196 -17.196   4.176  0.00  0.00    -0.013 A 
ATOM     21  C   LIG    1       21.688 -18.239   2.947  0.00  0.00    +0.047 C 
ATOM     22  C   LIG    1       20.251 -18.303   3.503  0.00  0.00    +0.088 C 
ENDROOT
TORSDOF 0
ENDMDL
MODEL 4
REMARK VINA RESULT:       9.6      1.946      4.547
REMARK  Name = *****
REMARK                            x       y       z     vdW  Elec       q    Type
REMARK                         _______ _______ _______ _____ _____    ______ ____
ROOT
ATOM      1  C   LIG    1       27.625 -14.088   2.490  0.00  0.00    +0.105 C 
ATOM      2  N   LIG    1       26.991 -14.404   3.769  0.00  0.00    -0.305 NA
ATOM      3  C   LIG    1       25.531 -14.583   3.629  0.00  0.00    +0.088 C 
ATOM      4  C   LIG    1       25.110 -15.900   2.953  0.00  0.00    +0.047 C 
ATOM      5  C   LIG    1       25.690 -17.089   3.710  0.00  0.00    -0.057 C 
ATOM      6  C   LIG    1       24.969 -18.107   4.251  0.00  0.00    +0.007 C 
ATOM      7  C   LIG    1       23.482 -18.155   4.130  0.00  0.00    +0.075 A 
ATOM      8  C   LIG    1       22.791 -19.266   3.627  0.00  0.00    -0.021 A 
ATOM      9  C   LIG    1       21.387 -19.180   3.581  0.00  0.00    +0.007 A 
ATOM     10  C   LIG    1       20.732 -18.036   4.020  0.00  0.00    +0.020 A 
ATOM     11  C   LIG    1       21.497 -17.005   4.518  0.00  0.00    +0.111 A 
ATOM     12  C   LIG    1       23.405 -20.577   3.177  0.00  0.00    +0.042 C 
ATOM     13  C   LIG    1       24.919 -20.666   2.958  0.00  0.00    +0.040 C 
ATOM     14  C   LIG    1       25.680 -20.493   4.249  0.00  0.00    -0.039 A 
ATOM     15  C   LIG    1       26.353 -21.572   4.839  0.00  0.00    +0.004 A 
ATOM     16  C   LIG    1       27.005 -21.410   6.062  0.00  0.00    +0.000 A 
ATOM     17  C   LIG    1       26.980 -20.178   6.712  0.00  0.00    +0.001 A 
ATOM     18  C   LIG    1       26.311 -19.098   6.133  0.00  0.00    +0.009 A 
ATOM     19  N   LIG    1       22.843 -17.043   4.591  0.00  0.00    -0.255 NA
ATOM     20  C   LIG    1       25.679 -19.244   4.891  0.00  0.00    -0.013 A 
ATOM     21  C   LIG    1       27.207 -16.942   3.769  0.00  0.00    +0.047 C 
ATOM     22  C   LIG    1       27.594 -15.592   4.405  0.00  0.00    +0.088 C 
ENDROOT
TORSDOF 0
ENDMDL
