MODEL 1
REMARK VINA RESULT:      20.1      0.000      0.000
REMARK  Name = *****
REMARK                            x       y       z     vdW  Elec       q    Type
REMARK                         _______ _______ _______ _____ _____    ______ ____
ROOT
ATOM      1  CA  LIG    1       28.689 -16.077   4.062  0.00  0.00    +0.191 C 
ATOM      2  C   LIG    1       28.870 -17.472   4.725  0.00  0.00    +0.169 C 
ATOM      3  N   LIG    1       27.665 -17.879   4.019  0.00  0.00    -0.248 N 
ATOM      4  CA  LIG    1       26.987 -19.056   4.235  0.00  0.00    +0.133 C 
ATOM      5  C   LIG    1       27.373 -19.879   5.258  0.00  0.00    +0.030 C 
ATOM      6  C   LIG    1       28.320 -19.455   6.373  0.00  0.00    +0.115 C 
ATOM      7  S   LIG    1       28.563 -17.654   6.490  0.00  0.00    -0.130 S 
ATOM      8  C   LIG    1       27.605 -16.793   3.227  0.00  0.00    +0.244 C 
ATOM      9  O   LIG    1       26.920 -16.430   2.279  0.00  0.00    -0.273 OA
ENDROOT
BRANCH   1  11
ATOM     10  C   LIG    1       27.691 -13.776   4.219  0.00  0.00    +0.270 C 
ATOM     11  N   LIG    1       28.144 -14.928   4.820  0.00  0.00    -0.296 N 
ATOM     12  H   LIG    1       28.107 -14.942   5.838  0.00  0.00    +0.150 HD
ATOM     13  O   LIG    1       27.771 -13.582   3.014  0.00  0.00    -0.268 OA
BRANCH  10  15
ATOM     14  N   LIG    1       27.701 -11.939   5.947  0.00  0.00    -0.076 NA
ATOM     15  C   LIG    1       27.054 -12.740   5.144  0.00  0.00    +0.208 C 
BRANCH  15  16
ATOM     16  C   LIG    1       25.600 -12.595   5.175  0.00  0.00    +0.197 A 
ATOM     17  N   LIG    1       24.793 -13.642   4.710  0.00  0.00    -0.202 NA
ATOM     18  C   LIG    1       23.533 -13.283   4.739  0.00  0.00    +0.187 A 
ATOM     19  S   LIG    1       23.366 -11.677   5.358  0.00  0.00    +0.050 S 
ATOM     20  N   LIG    1       25.006 -11.470   5.591  0.00  0.00    -0.185 NA
BRANCH  18  21
ATOM     21  N   LIG    1       22.546 -14.111   4.377  0.00  0.00    -0.230 N 
ATOM     22  H   LIG    1       21.829 -13.736   3.776  0.00  0.00    +0.160 HD
BRANCH  21  23
ATOM     23  P   LIG    1       22.515 -15.639   4.846  0.00  0.00    +0.423 P 
ATOM     24  O   LIG    1       23.631 -16.605   4.634  0.00  0.00    -0.237 OA
BRANCH  23  25
ATOM     25  O   LIG    1       21.157 -16.260   4.275  0.00  0.00    -0.310 OA
ATOM     26  H   LIG    1       21.030 -16.053   3.333  0.00  0.00    +0.221 HD
ENDBRANCH  23  25
BRANCH  23  27
ATOM     27  O   LIG    1       22.138 -15.627   6.403  0.00  0.00    -0.310 OA
ATOM     28  H   LIG    1       21.342 -16.160   6.579  0.00  0.00    +0.221 HD
ENDBRANCH  23  27
ENDBRANCH  21  23
ENDBRANCH  18  21
ENDBRANCH  15  16
BRANCH  14  29
ATOM     29  O   LIG    1       29.096 -12.016   5.904  0.00  0.00    -0.393 OA
BRANCH  29  31
ATOM     30  C   LIG    1       29.232 -11.940   3.499  0.00  0.00    +0.051 C 
ATOM     31  C   LIG    1       29.431 -12.784   4.740  0.00  0.00    +0.259 C 
ENDBRANCH  29  31
ENDBRANCH  14  29
ENDBRANCH  10  15
ENDBRANCH   1  11
BRANCH   4  32
ATOM     32  C   LIG    1       25.808 -19.400   3.379  0.00  0.00    +0.352 C 
ATOM     33  O   LIG    1       25.503 -20.486   2.917  0.00  0.00    -0.244 OA
BRANCH  32  34
ATOM     34  OXT LIG    1       25.034 -18.342   3.103  0.00  0.00    -0.476 OA
ATOM     35  HXT LIG    1       25.667 -17.607   2.972  0.00  0.00    +0.295 HD
ENDBRANCH  32  34
ENDBRANCH   4  32
BRANCH   5  36
ATOM     36  S   LIG    1       26.813 -21.541   5.478  0.00  0.00    -0.064 S 
BRANCH  36  37
ATOM     37  C   LIG    1       25.078 -21.263   5.598  0.00  0.00    +0.140 A 
ATOM     38  S   LIG    1       24.232 -21.571   7.058  0.00  0.00    -0.069 S 
ATOM     39  C   LIG    1       22.832 -20.861   6.373  0.00  0.00    +0.076 A 
ATOM     40  C   LIG    1       23.081 -20.450   5.076  0.00  0.00    +0.080 A 
ATOM     41  N   LIG    1       24.353 -20.755   4.618  0.00  0.00    -0.232 NA
BRANCH  40  42
ATOM     42  C   LIG    1       22.125 -19.722   4.237  0.00  0.00    +0.012 A 
ATOM     43  C   LIG    1       20.783 -19.603   4.610  0.00  0.00    +0.080 A 
ATOM     44  C   LIG    1       19.881 -18.949   3.776  0.00  0.00    +0.309 A 
ATOM     45  N   LIG    1       20.302 -18.362   2.635  0.00  0.00    -0.206 N 
ATOM     46  C   LIG    1       19.351 -17.595   1.812  0.00  0.00    +0.438 C 
ATOM     47  C   LIG    1       21.594 -18.447   2.254  0.00  0.00    +0.309 A 
ATOM     48  C   LIG    1       22.517 -19.137   3.031  0.00  0.00    +0.080 A 
ENDBRANCH  40  42
ENDBRANCH  36  37
ENDBRANCH   5  36
TORSDOF 14
ENDMDL
