MODEL 1
REMARK VINA RESULT:      -2.5      0.000      0.000
REMARK  Name = *****
REMARK                            x       y       z     vdW  Elec       q    Type
REMARK                         _______ _______ _______ _____ _____    ______ ____
ROOT
ATOM      1  N   LIG    1       27.421 -18.855   4.810  0.00  0.00    -0.263 NA
ATOM      2  C   LIG    1       27.073 -17.601   4.279  0.00  0.00    +0.075 C 
ATOM      3  C   LIG    1       25.781 -17.392   3.748  0.00  0.00    +0.053 C 
ATOM      4  C   LIG    1       25.356 -16.165   3.211  0.00  0.00    +0.063 C 
ATOM      5  C   LIG    1       26.261 -15.135   3.215  0.00  0.00    +0.167 C 
ATOM      6  O   LIG    1       26.045 -13.880   2.747  0.00  0.00    -0.453 OA
ATOM      7  C   LIG    1       27.321 -13.264   3.016  0.00  0.00    +0.466 C 
ATOM      8  O   LIG    1       28.269 -14.165   3.629  0.00  0.00    -0.453 OA
ATOM      9  C   LIG    1       27.526 -15.302   3.717  0.00  0.00    +0.168 C 
ATOM     10  C   LIG    1       24.852 -18.520   3.768  0.00  0.00    +0.222 C 
ATOM     11  O   LIG    1       23.724 -18.429   3.312  0.00  0.00    -0.285 OA
ATOM     12  C   LIG    1       25.345 -19.801   4.366  0.00  0.00    +0.214 C 
ATOM     13  C   LIG    1       27.957 -16.506   4.246  0.00  0.00    +0.077 C 
ATOM     14  N   LIG    1       26.560 -19.919   4.836  0.00  0.00    -0.160 NA
ENDROOT
BRANCH   1  16
ATOM     15  C   LIG    1       28.656 -20.042   6.589  0.00  0.00    +0.029 C 
ATOM     16  C   LIG    1       28.750 -19.111   5.390  0.00  0.00    +0.141 C 
ENDBRANCH   1  16
BRANCH  12  17
ATOM     17  C   LIG    1       24.481 -21.058   4.481  0.00  0.00    +0.361 C 
ATOM     18  O   LIG    1       24.140 -21.572   5.523  0.00  0.00    -0.243 OA
BRANCH  17  19
ATOM     19  O   LIG    1       24.154 -21.527   3.256  0.00  0.00    -0.476 OA
ATOM     20  H   LIG    1       24.310 -20.821   2.588  0.00  0.00    +0.295 HD
ENDBRANCH  17  19
ENDBRANCH  12  17
TORSDOF 3
ENDMDL
MODEL 2
REMARK VINA RESULT:      -2.5      2.900      6.020
REMARK  Name = *****
REMARK                            x       y       z     vdW  Elec       q    Type
REMARK                         _______ _______ _______ _____ _____    ______ ____
ROOT
ATOM      1  N   LIG    1       26.204 -14.715   3.426  0.00  0.00    -0.263 NA
ATOM      2  C   LIG    1       25.525 -15.938   3.569  0.00  0.00    +0.075 C 
ATOM      3  C   LIG    1       24.182 -15.953   4.008  0.00  0.00    +0.053 C 
ATOM      4  C   LIG    1       23.435 -17.132   4.164  0.00  0.00    +0.063 C 
ATOM      5  C   LIG    1       24.064 -18.314   3.868  0.00  0.00    +0.167 C 
ATOM      6  O   LIG    1       23.517 -19.553   3.950  0.00  0.00    -0.453 OA
ATOM      7  C   LIG    1       24.625 -20.371   3.522  0.00  0.00    +0.466 C 
ATOM      8  O   LIG    1       25.807 -19.605   3.202  0.00  0.00    -0.453 OA
ATOM      9  C   LIG    1       25.368 -18.339   3.443  0.00  0.00    +0.168 C 
ATOM     10  C   LIG    1       23.556 -14.668   4.311  0.00  0.00    +0.222 C 
ATOM     11  O   LIG    1       22.407 -14.595   4.715  0.00  0.00    -0.285 OA
ATOM     12  C   LIG    1       24.388 -13.439   4.113  0.00  0.00    +0.214 C 
ATOM     13  C   LIG    1       26.115 -17.184   3.288  0.00  0.00    +0.077 C 
ATOM     14  N   LIG    1       25.628 -13.505   3.704  0.00  0.00    -0.160 NA
ENDROOT
BRANCH   1  16
ATOM     15  C   LIG    1       28.358 -13.525   3.636  0.00  0.00    +0.029 C 
ATOM     16  C   LIG    1       27.597 -14.652   2.953  0.00  0.00    +0.141 C 
ENDBRANCH   1  16
BRANCH  12  17
ATOM     17  C   LIG    1       23.862 -12.024   4.362  0.00  0.00    +0.361 C 
ATOM     18  O   LIG    1       23.791 -11.492   5.448  0.00  0.00    -0.243 OA
BRANCH  17  19
ATOM     19  O   LIG    1       23.475 -11.447   3.203  0.00  0.00    -0.476 OA
ATOM     20  H   LIG    1       23.167 -12.146   2.581  0.00  0.00    +0.295 HD
ENDBRANCH  17  19
ENDBRANCH  12  17
TORSDOF 3
ENDMDL
MODEL 3
REMARK VINA RESULT:      -2.2      2.800      4.923
REMARK  Name = *****
REMARK                            x       y       z     vdW  Elec       q    Type
REMARK                         _______ _______ _______ _____ _____    ______ ____
ROOT
ATOM      1  N   LIG    1       25.026 -18.428   3.755  0.00  0.00    -0.263 NA
ATOM      2  C   LIG    1       25.828 -19.214   4.599  0.00  0.00    +0.075 C 
ATOM      3  C   LIG    1       25.243 -20.239   5.376  0.00  0.00    +0.053 C 
ATOM      4  C   LIG    1       25.980 -21.073   6.234  0.00  0.00    +0.063 C 
ATOM      5  C   LIG    1       27.333 -20.861   6.301  0.00  0.00    +0.167 C 
ATOM      6  O   LIG    1       28.214 -21.558   7.061  0.00  0.00    -0.453 OA
ATOM      7  C   LIG    1       29.451 -20.901   6.719  0.00  0.00    +0.466 C 
ATOM      8  O   LIG    1       29.280 -19.825   5.771  0.00  0.00    -0.453 OA
ATOM      9  C   LIG    1       27.936 -19.874   5.564  0.00  0.00    +0.168 C 
ATOM     10  C   LIG    1       23.798 -20.426   5.270  0.00  0.00    +0.222 C 
ATOM     11  O   LIG    1       23.212 -21.275   5.922  0.00  0.00    -0.285 OA
ATOM     12  C   LIG    1       23.060 -19.523   4.331  0.00  0.00    +0.214 C 
ATOM     13  C   LIG    1       27.220 -19.044   4.719  0.00  0.00    +0.077 C 
ATOM     14  N   LIG    1       23.672 -18.593   3.645  0.00  0.00    -0.160 NA
ENDROOT
BRANCH   1  16
ATOM     15  C   LIG    1       26.018 -16.166   3.755  0.00  0.00    +0.029 C 
ATOM     16  C   LIG    1       25.596 -17.362   2.914  0.00  0.00    +0.141 C 
ENDBRANCH   1  16
BRANCH  12  17
ATOM     17  C   LIG    1       21.551 -19.617   4.093  0.00  0.00    +0.361 C 
ATOM     18  O   LIG    1       20.868 -18.737   3.617  0.00  0.00    -0.243 OA
BRANCH  17  19
ATOM     19  O   LIG    1       21.077 -20.816   4.498  0.00  0.00    -0.476 OA
ATOM     20  H   LIG    1       21.598 -21.124   5.275  0.00  0.00    +0.295 HD
ENDBRANCH  17  19
ENDBRANCH  12  17
TORSDOF 3
ENDMDL
MODEL 4
REMARK VINA RESULT:      -2.0      3.188      6.644
REMARK  Name = *****
REMARK                            x       y       z     vdW  Elec       q    Type
REMARK                         _______ _______ _______ _____ _____    ______ ____
ROOT
ATOM      1  N   LIG    1       24.765 -13.430   4.448  0.00  0.00    -0.263 NA
ATOM      2  C   LIG    1       24.420 -14.783   4.280  0.00  0.00    +0.075 C 
ATOM      3  C   LIG    1       25.413 -15.729   3.943  0.00  0.00    +0.053 C 
ATOM      4  C   LIG    1       25.148 -17.098   3.771  0.00  0.00    +0.063 C 
ATOM      5  C   LIG    1       23.851 -17.510   3.944  0.00  0.00    +0.167 C 
ATOM      6  O   LIG    1       23.395 -18.781   3.826  0.00  0.00    -0.453 OA
ATOM      7  C   LIG    1       21.995 -18.598   4.117  0.00  0.00    +0.466 C 
ATOM      8  O   LIG    1       21.647 -17.224   4.393  0.00  0.00    -0.453 OA
ATOM      9  C   LIG    1       22.860 -16.619   4.267  0.00  0.00    +0.168 C 
ATOM     10  C   LIG    1       26.780 -15.241   3.770  0.00  0.00    +0.222 C 
ATOM     11  O   LIG    1       27.692 -15.989   3.460  0.00  0.00    -0.285 OA
ATOM     12  C   LIG    1       27.015 -13.778   3.982  0.00  0.00    +0.214 C 
ATOM     13  C   LIG    1       23.108 -15.268   4.436  0.00  0.00    +0.077 C 
ATOM     14  N   LIG    1       26.041 -12.961   4.290  0.00  0.00    -0.160 NA
ENDROOT
BRANCH   1  16
ATOM     15  C   LIG    1       23.517 -11.447   3.669  0.00  0.00    +0.029 C 
ATOM     16  C   LIG    1       23.765 -12.414   4.816  0.00  0.00    +0.141 C 
ENDBRANCH   1  16
BRANCH  12  17
ATOM     17  C   LIG    1       28.394 -13.126   3.862  0.00  0.00    +0.361 C 
ATOM     18  O   LIG    1       28.781 -12.194   4.532  0.00  0.00    -0.243 OA
BRANCH  17  19
ATOM     19  O   LIG    1       29.124 -13.727   2.897  0.00  0.00    -0.476 OA
ATOM     20  H   LIG    1       28.713 -14.593   2.672  0.00  0.00    +0.295 HD
ENDBRANCH  17  19
ENDBRANCH  12  17
TORSDOF 3
ENDMDL
MODEL 5
REMARK VINA RESULT:      -1.9      2.018      3.375
REMARK  Name = *****
REMARK                            x       y       z     vdW  Elec       q    Type
REMARK                         _______ _______ _______ _____ _____    ______ ____
ROOT
ATOM      1  N   LIG    1       25.836 -18.993   4.134  0.00  0.00    -0.263 NA
ATOM      2  C   LIG    1       26.371 -17.705   3.958  0.00  0.00    +0.075 C 
ATOM      3  C   LIG    1       27.596 -17.360   4.571  0.00  0.00    +0.053 C 
ATOM      4  C   LIG    1       28.200 -16.099   4.433  0.00  0.00    +0.063 C 
ATOM      5  C   LIG    1       27.546 -15.175   3.658  0.00  0.00    +0.167 C 
ATOM      6  O   LIG    1       27.964 -13.910   3.401  0.00  0.00    -0.453 OA
ATOM      7  C   LIG    1       26.898 -13.438   2.552  0.00  0.00    +0.466 C 
ATOM      8  O   LIG    1       25.868 -14.425   2.330  0.00  0.00    -0.453 OA
ATOM      9  C   LIG    1       26.353 -15.472   3.051  0.00  0.00    +0.168 C 
ATOM     10  C   LIG    1       28.254 -18.378   5.387  0.00  0.00    +0.222 C 
ATOM     11  O   LIG    1       29.305 -18.155   5.966  0.00  0.00    -0.285 OA
ATOM     12  C   LIG    1       27.580 -19.711   5.489  0.00  0.00    +0.214 C 
ATOM     13  C   LIG    1       25.748 -16.710   3.183  0.00  0.00    +0.077 C 
ATOM     14  N   LIG    1       26.442 -19.956   4.893  0.00  0.00    -0.160 NA
ENDROOT
BRANCH   1  16
ATOM     15  C   LIG    1       23.515 -19.734   4.542  0.00  0.00    +0.029 C 
ATOM     16  C   LIG    1       24.571 -19.400   3.498  0.00  0.00    +0.141 C 
ENDBRANCH   1  16
BRANCH  12  17
ATOM     17  C   LIG    1       28.162 -20.883   6.283  0.00  0.00    +0.361 C 
ATOM     18  O   LIG    1       27.538 -21.572   7.060  0.00  0.00    -0.243 OA
BRANCH  17  19
ATOM     19  O   LIG    1       29.475 -21.043   6.007  0.00  0.00    -0.476 OA
ATOM     20  H   LIG    1       29.711 -20.489   5.228  0.00  0.00    +0.295 HD
ENDBRANCH  17  19
ENDBRANCH  12  17
TORSDOF 3
ENDMDL
MODEL 6
REMARK VINA RESULT:      -1.7      2.396      3.490
REMARK  Name = *****
REMARK                            x       y       z     vdW  Elec       q    Type
REMARK                         _______ _______ _______ _____ _____    ______ ____
ROOT
ATOM      1  N   LIG    1       22.705 -17.094   4.553  0.00  0.00    -0.263 NA
ATOM      2  C   LIG    1       23.903 -16.506   4.112  0.00  0.00    +0.075 C 
ATOM      3  C   LIG    1       24.983 -17.323   3.706  0.00  0.00    +0.053 C 
ATOM      4  C   LIG    1       26.206 -16.810   3.242  0.00  0.00    +0.063 C 
ATOM      5  C   LIG    1       26.332 -15.445   3.192  0.00  0.00    +0.167 C 
ATOM      6  O   LIG    1       27.425 -14.759   2.774  0.00  0.00    -0.453 OA
ATOM      7  C   LIG    1       26.974 -13.399   2.938  0.00  0.00    +0.466 C 
ATOM      8  O   LIG    1       25.630 -13.305   3.456  0.00  0.00    -0.453 OA
ATOM      9  C   LIG    1       25.308 -14.621   3.581  0.00  0.00    +0.168 C 
ATOM     10  C   LIG    1       24.800 -18.771   3.778  0.00  0.00    +0.222 C 
ATOM     11  O   LIG    1       25.689 -19.545   3.465  0.00  0.00    -0.285 OA
ATOM     12  C   LIG    1       23.473 -19.268   4.262  0.00  0.00    +0.214 C 
ATOM     13  C   LIG    1       24.099 -15.115   4.042  0.00  0.00    +0.077 C 
ATOM     14  N   LIG    1       22.520 -18.448   4.623  0.00  0.00    -0.160 NA
ENDROOT
BRANCH   1  16
ATOM     15  C   LIG    1       21.847 -15.517   6.248  0.00  0.00    +0.029 C 
ATOM     16  C   LIG    1       21.549 -16.282   4.967  0.00  0.00    +0.141 C 
ENDBRANCH   1  16
BRANCH  12  17
ATOM     17  C   LIG    1       23.124 -20.754   4.366  0.00  0.00    +0.361 C 
ATOM     18  O   LIG    1       22.366 -21.233   5.180  0.00  0.00    -0.243 OA
BRANCH  17  19
ATOM     19  O   LIG    1       23.786 -21.467   3.428  0.00  0.00    -0.476 OA
ATOM     20  H   LIG    1       24.681 -21.695   3.768  0.00  0.00    +0.295 HD
ENDBRANCH  17  19
ENDBRANCH  12  17
TORSDOF 3
ENDMDL
MODEL 7
REMARK VINA RESULT:      -1.6      2.501      6.287
REMARK  Name = *****
REMARK                            x       y       z     vdW  Elec       q    Type
REMARK                         _______ _______ _______ _____ _____    ______ ____
ROOT
ATOM      1  N   LIG    1       23.733 -15.820   4.138  0.00  0.00    -0.263 NA
ATOM      2  C   LIG    1       23.803 -17.224   4.141  0.00  0.00    +0.075 C 
ATOM      3  C   LIG    1       25.005 -17.871   3.777  0.00  0.00    +0.053 C 
ATOM      4  C   LIG    1       25.156 -19.268   3.767  0.00  0.00    +0.063 C 
ATOM      5  C   LIG    1       24.067 -20.017   4.133  0.00  0.00    +0.167 C 
ATOM      6  O   LIG    1       24.012 -21.371   4.190  0.00  0.00    -0.453 OA
ATOM      7  C   LIG    1       22.653 -21.572   4.629  0.00  0.00    +0.466 C 
ATOM      8  O   LIG    1       21.928 -20.337   4.816  0.00  0.00    -0.453 OA
ATOM      9  C   LIG    1       22.883 -19.424   4.488  0.00  0.00    +0.168 C 
ATOM     10  C   LIG    1       26.137 -17.030   3.395  0.00  0.00    +0.222 C 
ATOM     11  O   LIG    1       27.204 -17.510   3.049  0.00  0.00    -0.285 OA
ATOM     12  C   LIG    1       25.932 -15.548   3.439  0.00  0.00    +0.214 C 
ATOM     13  C   LIG    1       22.721 -18.049   4.499  0.00  0.00    +0.077 C 
ATOM     14  N   LIG    1       24.786 -15.021   3.785  0.00  0.00    -0.160 NA
ENDROOT
BRANCH   1  16
ATOM     15  C   LIG    1       22.228 -15.263   6.015  0.00  0.00    +0.029 C 
ATOM     16  C   LIG    1       22.507 -15.104   4.528  0.00  0.00    +0.141 C 
ENDBRANCH   1  16
BRANCH  12  17
ATOM     17  C   LIG    1       27.031 -14.540   3.094  0.00  0.00    +0.361 C 
ATOM     18  O   LIG    1       27.913 -14.192   3.847  0.00  0.00    -0.243 OA
BRANCH  17  19
ATOM     19  O   LIG    1       26.879 -14.081   1.832  0.00  0.00    -0.476 OA
ATOM     20  H   LIG    1       27.214 -13.157   1.782  0.00  0.00    +0.295 HD
ENDBRANCH  17  19
ENDBRANCH  12  17
TORSDOF 3
ENDMDL
MODEL 8
REMARK VINA RESULT:      -1.5      1.260      5.348
REMARK  Name = *****
REMARK                            x       y       z     vdW  Elec       q    Type
REMARK                         _______ _______ _______ _____ _____    ______ ____
ROOT
ATOM      1  N   LIG    1       28.062 -17.671   4.478  0.00  0.00    -0.263 NA
ATOM      2  C   LIG    1       26.829 -18.332   4.341  0.00  0.00    +0.075 C 
ATOM      3  C   LIG    1       25.709 -17.639   3.827  0.00  0.00    +0.053 C 
ATOM      4  C   LIG    1       24.449 -18.233   3.650  0.00  0.00    +0.063 C 
ATOM      5  C   LIG    1       24.325 -19.553   4.000  0.00  0.00    +0.167 C 
ATOM      6  O   LIG    1       23.200 -20.303   3.902  0.00  0.00    -0.453 OA
ATOM      7  C   LIG    1       23.672 -21.572   4.400  0.00  0.00    +0.466 C 
ATOM      8  O   LIG    1       25.062 -21.547   4.791  0.00  0.00    -0.453 OA
ATOM      9  C   LIG    1       25.388 -20.257   4.506  0.00  0.00    +0.168 C 
ATOM     10  C   LIG    1       25.891 -16.234   3.468  0.00  0.00    +0.222 C 
ATOM     11  O   LIG    1       24.971 -15.559   3.036  0.00  0.00    -0.285 OA
ATOM     12  C   LIG    1       27.257 -15.652   3.659  0.00  0.00    +0.214 C 
ATOM     13  C   LIG    1       26.634 -19.682   4.688  0.00  0.00    +0.077 C 
ATOM     14  N   LIG    1       28.246 -16.358   4.144  0.00  0.00    -0.160 NA
ENDROOT
BRANCH   1  16
ATOM     15  C   LIG    1       29.173 -18.559   6.497  0.00  0.00    +0.029 C 
ATOM     16  C   LIG    1       29.258 -18.361   4.991  0.00  0.00    +0.141 C 
ENDBRANCH   1  16
BRANCH  12  17
ATOM     17  C   LIG    1       27.607 -14.205   3.303  0.00  0.00    +0.361 C 
ATOM     18  O   LIG    1       28.211 -13.441   4.023  0.00  0.00    -0.243 OA
BRANCH  17  19
ATOM     19  O   LIG    1       27.140 -13.889   2.075  0.00  0.00    -0.476 OA
ATOM     20  H   LIG    1       27.226 -12.918   1.937  0.00  0.00    +0.295 HD
ENDBRANCH  17  19
ENDBRANCH  12  17
TORSDOF 3
ENDMDL
MODEL 9
REMARK VINA RESULT:      -1.4      2.642      6.401
REMARK  Name = *****
REMARK                            x       y       z     vdW  Elec       q    Type
REMARK                         _______ _______ _______ _____ _____    ______ ____
ROOT
ATOM      1  N   LIG    1       23.156 -15.771   4.439  0.00  0.00    -0.263 NA
ATOM      2  C   LIG    1       23.655 -17.063   4.197  0.00  0.00    +0.075 C 
ATOM      3  C   LIG    1       24.954 -17.230   3.665  0.00  0.00    +0.053 C 
ATOM      4  C   LIG    1       25.526 -18.486   3.407  0.00  0.00    +0.063 C 
ATOM      5  C   LIG    1       24.765 -19.591   3.695  0.00  0.00    +0.167 C 
ATOM      6  O   LIG    1       25.136 -20.884   3.522  0.00  0.00    -0.453 OA
ATOM      7  C   LIG    1       23.959 -21.572   3.991  0.00  0.00    +0.466 C 
ATOM      8  O   LIG    1       22.912 -20.676   4.424  0.00  0.00    -0.453 OA
ATOM      9  C   LIG    1       23.499 -19.468   4.208  0.00  0.00    +0.168 C 
ATOM     10  C   LIG    1       25.725 -16.023   3.375  0.00  0.00    +0.222 C 
ATOM     11  O   LIG    1       26.846 -16.079   2.896  0.00  0.00    -0.285 OA
ATOM     12  C   LIG    1       25.078 -14.708   3.683  0.00  0.00    +0.214 C 
ATOM     13  C   LIG    1       22.924 -18.235   4.463  0.00  0.00    +0.077 C 
ATOM     14  N   LIG    1       23.868 -14.634   4.173  0.00  0.00    -0.160 NA
ENDROOT
BRANCH   1  16
ATOM     15  C   LIG    1       21.898 -15.223   6.492  0.00  0.00    +0.029 C 
ATOM     16  C   LIG    1       21.816 -15.552   5.009  0.00  0.00    +0.141 C 
ENDBRANCH   1  16
BRANCH  12  17
ATOM     17  C   LIG    1       25.772 -13.363   3.459  0.00  0.00    +0.361 C 
ATOM     18  O   LIG    1       25.366 -12.487   2.727  0.00  0.00    -0.243 OA
BRANCH  17  19
ATOM     19  O   LIG    1       26.910 -13.285   4.184  0.00  0.00    -0.476 OA
ATOM     20  H   LIG    1       26.681 -13.227   5.139  0.00  0.00    +0.295 HD
ENDBRANCH  17  19
ENDBRANCH  12  17
TORSDOF 3
ENDMDL
