MODEL 1
REMARK VINA RESULT:      -5.3      0.000      0.000
REMARK  Name = *****
REMARK                            x       y       z     vdW  Elec       q    Type
REMARK                         _______ _______ _______ _____ _____    ______ ____
ROOT
ATOM      1  O   LIG    1       25.088 -18.357   4.442  0.00  0.00    -0.458 OA
ENDROOT
BRANCH   1   3
ATOM      2  C   LIG    1       25.536 -20.559   5.505  0.00  0.00    +0.032 C 
ATOM      3  C   LIG    1       25.302 -19.764   4.196  0.00  0.00    +0.180 C 
ATOM      4  C   LIG    1       24.058 -20.331   3.479  0.00  0.00    +0.048 C 
ATOM      5  C   LIG    1       22.782 -20.422   4.340  0.00  0.00    -0.011 C 
ATOM      6  C   LIG    1       22.032 -19.091   4.427  0.00  0.00    +0.007 C 
ATOM      7  C   LIG    1       23.049 -21.011   5.732  0.00  0.00    +0.004 C 
ATOM      8  C   LIG    1       24.297 -20.453   6.414  0.00  0.00    +0.007 C 
BRANCH   2  10
ATOM      9  C   LIG    1       27.996 -19.698   5.445  0.00  0.00    +0.007 C 
ATOM     10  C   LIG    1       26.853 -20.268   6.281  0.00  0.00    -0.011 C 
ATOM     11  C   LIG    1       27.364 -21.485   7.061  0.00  0.00    +0.007 C 
ENDBRANCH   2  10
ENDBRANCH   1   3
BRANCH   1  12
ATOM     12  C   LIG    1       25.646 -17.501   3.543  0.00  0.00    +0.341 C 
ATOM     13  O   LIG    1       26.347 -17.822   2.586  0.00  0.00    -0.245 OA
BRANCH  12  14
ATOM     14  C   LIG    1       25.201 -16.099   3.786  0.00  0.00    +0.080 A 
ATOM     15  C   LIG    1       26.137 -15.038   3.762  0.00  0.00    +0.039 A 
ATOM     16  C   LIG    1       25.666 -13.723   3.903  0.00  0.00    +0.023 A 
ATOM     17  C   LIG    1       24.322 -13.464   4.178  0.00  0.00    +0.002 A 
ATOM     18  C   LIG    1       23.417 -14.518   4.266  0.00  0.00    +0.001 A 
ATOM     19  C   LIG    1       23.850 -15.831   4.060  0.00  0.00    +0.017 A 
BRANCH  15  20
ATOM     20  N   LIG    1       27.479 -15.213   3.366  0.00  0.00    -0.357 N 
ATOM     21  H   LIG    1       28.004 -15.784   4.037  0.00  0.00    +0.142 HD
ATOM     22  H   LIG    1       27.963 -14.348   3.145  0.00  0.00    +0.142 HD
ENDBRANCH  15  20
ENDBRANCH  12  14
ENDBRANCH   1  12
TORSDOF 5
ENDMDL
MODEL 2
REMARK VINA RESULT:      -4.8      1.194      1.678
REMARK  Name = *****
REMARK                            x       y       z     vdW  Elec       q    Type
REMARK                         _______ _______ _______ _____ _____    ______ ____
ROOT
ATOM      1  O   LIG    1       25.163 -18.696   4.412  0.00  0.00    -0.458 OA
ENDROOT
BRANCH   1   3
ATOM      2  C   LIG    1       25.673 -20.698   5.792  0.00  0.00    +0.032 C 
ATOM      3  C   LIG    1       25.331 -20.130   4.392  0.00  0.00    +0.180 C 
ATOM      4  C   LIG    1       24.017 -20.771   3.896  0.00  0.00    +0.048 C 
ATOM      5  C   LIG    1       22.825 -20.674   4.870  0.00  0.00    -0.011 C 
ATOM      6  C   LIG    1       22.107 -19.325   4.794  0.00  0.00    +0.007 C 
ATOM      7  C   LIG    1       23.211 -21.027   6.313  0.00  0.00    +0.004 C 
ATOM      8  C   LIG    1       24.526 -20.401   6.776  0.00  0.00    +0.007 C 
BRANCH   2  10
ATOM      9  C   LIG    1       28.034 -19.659   5.414  0.00  0.00    +0.007 C 
ATOM     10  C   LIG    1       27.061 -20.322   6.387  0.00  0.00    -0.011 C 
ATOM     11  C   LIG    1       27.759 -21.508   7.061  0.00  0.00    +0.007 C 
ENDBRANCH   2  10
ENDBRANCH   1   3
BRANCH   1  12
ATOM     12  C   LIG    1       25.600 -18.027   3.308  0.00  0.00    +0.341 C 
ATOM     13  O   LIG    1       25.708 -18.500   2.179  0.00  0.00    -0.245 OA
BRANCH  12  14
ATOM     14  C   LIG    1       25.825 -16.584   3.608  0.00  0.00    +0.080 A 
ATOM     15  C   LIG    1       24.729 -15.731   3.874  0.00  0.00    +0.039 A 
ATOM     16  C   LIG    1       24.986 -14.401   4.243  0.00  0.00    +0.023 A 
ATOM     17  C   LIG    1       26.284 -13.890   4.240  0.00  0.00    +0.002 A 
ATOM     18  C   LIG    1       27.354 -14.719   3.914  0.00  0.00    +0.001 A 
ATOM     19  C   LIG    1       27.130 -16.064   3.610  0.00  0.00    +0.017 A 
BRANCH  15  20
ATOM     20  N   LIG    1       23.409 -16.206   4.019  0.00  0.00    -0.357 N 
ATOM     21  H   LIG    1       23.114 -16.768   3.212  0.00  0.00    +0.142 HD
ATOM     22  H   LIG    1       22.731 -15.486   4.246  0.00  0.00    +0.142 HD
ENDBRANCH  15  20
ENDBRANCH  12  14
ENDBRANCH   1  12
TORSDOF 5
ENDMDL
MODEL 3
REMARK VINA RESULT:      -3.0      2.168      6.154
REMARK  Name = *****
REMARK                            x       y       z     vdW  Elec       q    Type
REMARK                         _______ _______ _______ _____ _____    ______ ____
ROOT
ATOM      1  O   LIG    1       25.211 -16.034   3.961  0.00  0.00    -0.458 OA
ENDROOT
BRANCH   1   3
ATOM      2  C   LIG    1       25.253 -13.553   3.828  0.00  0.00    +0.032 C 
ATOM      3  C   LIG    1       25.523 -14.903   3.119  0.00  0.00    +0.180 C 
ATOM      4  C   LIG    1       27.015 -14.978   2.731  0.00  0.00    +0.048 C 
ATOM      5  C   LIG    1       28.012 -14.715   3.879  0.00  0.00    -0.011 C 
ATOM      6  C   LIG    1       28.253 -15.952   4.747  0.00  0.00    +0.007 C 
ATOM      7  C   LIG    1       27.625 -13.496   4.727  0.00  0.00    +0.004 C 
ATOM      8  C   LIG    1       26.140 -13.430   5.081  0.00  0.00    +0.007 C 
BRANCH   2  10
ATOM      9  C   LIG    1       23.535 -11.825   4.754  0.00  0.00    +0.007 C 
ATOM     10  C   LIG    1       23.768 -13.199   4.130  0.00  0.00    -0.011 C 
ATOM     11  C   LIG    1       23.066 -14.261   4.984  0.00  0.00    +0.007 C 
ENDBRANCH   2  10
ENDBRANCH   1   3
BRANCH   1  12
ATOM     12  C   LIG    1       25.369 -17.263   3.395  0.00  0.00    +0.341 C 
ATOM     13  O   LIG    1       26.298 -17.602   2.665  0.00  0.00    -0.245 OA
BRANCH  12  14
ATOM     14  C   LIG    1       24.324 -18.213   3.871  0.00  0.00    +0.080 A 
ATOM     15  C   LIG    1       24.647 -19.571   4.105  0.00  0.00    +0.039 A 
ATOM     16  C   LIG    1       23.660 -20.413   4.641  0.00  0.00    +0.023 A 
ATOM     17  C   LIG    1       22.354 -19.962   4.836  0.00  0.00    +0.002 A 
ATOM     18  C   LIG    1       22.027 -18.641   4.542  0.00  0.00    +0.001 A 
ATOM     19  C   LIG    1       23.009 -17.765   4.073  0.00  0.00    +0.017 A 
BRANCH  15  20
ATOM     20  N   LIG    1       25.967 -20.062   4.053  0.00  0.00    -0.357 N 
ATOM     21  H   LIG    1       26.099 -20.721   3.278  0.00  0.00    +0.142 HD
ATOM     22  H   LIG    1       26.305 -20.441   4.932  0.00  0.00    +0.142 HD
ENDBRANCH  15  20
ENDBRANCH  12  14
ENDBRANCH   1  12
TORSDOF 5
ENDMDL
MODEL 4
REMARK VINA RESULT:      -2.6      2.274      6.451
REMARK  Name = *****
REMARK                            x       y       z     vdW  Elec       q    Type
REMARK                         _______ _______ _______ _____ _____    ______ ____
ROOT
ATOM      1  O   LIG    1       24.973 -15.381   4.072  0.00  0.00    -0.458 OA
ENDROOT
BRANCH   1   3
ATOM      2  C   LIG    1       25.453 -12.944   3.991  0.00  0.00    +0.032 C 
ATOM      3  C   LIG    1       25.412 -14.293   3.231  0.00  0.00    +0.180 C 
ATOM      4  C   LIG    1       26.827 -14.618   2.707  0.00  0.00    +0.048 C 
ATOM      5  C   LIG    1       27.949 -14.581   3.765  0.00  0.00    -0.011 C 
ATOM      6  C   LIG    1       28.035 -15.873   4.580  0.00  0.00    +0.007 C 
ATOM      7  C   LIG    1       27.864 -13.346   4.672  0.00  0.00    +0.004 C 
ATOM      8  C   LIG    1       26.451 -13.028   5.161  0.00  0.00    +0.007 C 
BRANCH   2  10
ATOM      9  C   LIG    1       23.399 -11.447   3.407  0.00  0.00    +0.007 C 
ATOM     10  C   LIG    1       24.088 -12.342   4.435  0.00  0.00    -0.011 C 
ATOM     11  C   LIG    1       24.175 -11.594   5.770  0.00  0.00    +0.007 C 
ENDBRANCH   2  10
ENDBRANCH   1   3
BRANCH   1  12
ATOM     12  C   LIG    1       23.669 -15.752   3.940  0.00  0.00    +0.341 C 
ATOM     13  O   LIG    1       22.741 -15.009   3.630  0.00  0.00    -0.245 OA
BRANCH  12  14
ATOM     14  C   LIG    1       23.510 -17.225   4.101  0.00  0.00    +0.080 A 
ATOM     15  C   LIG    1       24.522 -18.106   3.650  0.00  0.00    +0.039 A 
ATOM     16  C   LIG    1       24.379 -19.479   3.903  0.00  0.00    +0.023 A 
ATOM     17  C   LIG    1       23.216 -19.988   4.482  0.00  0.00    +0.002 A 
ATOM     18  C   LIG    1       22.196 -19.122   4.864  0.00  0.00    +0.001 A 
ATOM     19  C   LIG    1       22.345 -17.744   4.686  0.00  0.00    +0.017 A 
BRANCH  15  20
ATOM     20  N   LIG    1       25.771 -17.655   3.176  0.00  0.00    -0.357 N 
ATOM     21  H   LIG    1       26.434 -17.491   3.942  0.00  0.00    +0.142 HD
ATOM     22  H   LIG    1       25.715 -16.859   2.549  0.00  0.00    +0.142 HD
ENDBRANCH  15  20
ENDBRANCH  12  14
ENDBRANCH   1  12
TORSDOF 5
ENDMDL
