MODEL 1
REMARK VINA RESULT:      -3.1      0.000      0.000
REMARK  Name = *****
REMARK                            x       y       z     vdW  Elec       q    Type
REMARK                         _______ _______ _______ _____ _____    ______ ____
ROOT
ATOM      1  C6    A A  1       25.333 -14.344   3.904  0.00  0.00    +0.147 A 
ATOM      2  C5    A A  1       24.371 -15.354   4.071  0.00  0.00    +0.147 A 
ATOM      3  N7    A A  1       23.069 -15.336   4.524  0.00  0.00    -0.231 NA
ATOM      4  C8    A A  1       22.675 -16.590   4.463  0.00  0.00    +0.203 A 
ATOM      5  N9    A A  1       23.664 -17.424   4.003  0.00  0.00    -0.285 N 
ATOM      6  C4    A A  1       24.759 -16.643   3.747  0.00  0.00    +0.167 A 
ATOM      7  N3    A A  1       25.965 -17.039   3.300  0.00  0.00    -0.216 NA
ATOM      8  C2    A A  1       26.803 -15.987   3.180  0.00  0.00    +0.225 A 
ATOM      9  N1    A A  1       26.564 -14.690   3.462  0.00  0.00    -0.219 NA
ENDROOT
BRANCH   5  10
ATOM     10  C1*   A A  1       23.517 -18.839   3.734  0.00  0.00    +0.253 C 
ATOM     11  C2*   A A  1       24.771 -19.722   3.847  0.00  0.00    +0.195 C 
ATOM     12  C3*   A A  1       24.136 -21.090   4.023  0.00  0.00    +0.178 C 
ATOM     13  C4*   A A  1       22.909 -20.784   4.886  0.00  0.00    +0.177 C 
ATOM     14  O4*   A A  1       22.545 -19.398   4.651  0.00  0.00    -0.346 OA
BRANCH  11  15
ATOM     15  O2*   A A  1       25.570 -19.445   5.002  0.00  0.00    -0.385 OA
ATOM     16  H2*   A A  1       25.716 -20.309   5.441  0.00  0.00    +0.210 HD
ENDBRANCH  11  15
BRANCH  12  17
ATOM     17  O3*   A A  1       23.732 -21.570   2.736  0.00  0.00    -0.386 OA
ATOM     18  H3*   A A  1       24.527 -21.608   2.174  0.00  0.00    +0.210 HD
ENDBRANCH  12  17
BRANCH  13  19
ATOM     19  C5*   A A  1       23.170 -20.963   6.385  0.00  0.00    +0.190 C 
BRANCH  19  20
ATOM     20  O5*   A A  1       24.447 -21.572   6.583  0.00  0.00    -0.392 OA
ATOM     21  H5*   A A  1       24.453 -22.374   6.028  0.00  0.00    +0.209 HD
ENDBRANCH  19  20
ENDBRANCH  13  19
ENDBRANCH   5  10
BRANCH   1  22
ATOM     22  N6    A A  1       25.093 -13.007   4.193  0.00  0.00    -0.341 N 
ATOM     23  H61   A A  1       25.443 -12.726   5.105  0.00  0.00    +0.144 HD
ATOM     24  H62   A A  1       25.307 -12.407   3.407  0.00  0.00    +0.144 HD
ENDBRANCH   1  22
TORSDOF 6
ENDMDL
MODEL 2
REMARK VINA RESULT:      -3.1      3.410      6.208
REMARK  Name = *****
REMARK                            x       y       z     vdW  Elec       q    Type
REMARK                         _______ _______ _______ _____ _____    ______ ____
ROOT
ATOM      1  C6    A A  1       24.975 -20.060   4.453  0.00  0.00    +0.147 A 
ATOM      2  C5    A A  1       25.627 -18.868   4.093  0.00  0.00    +0.147 A 
ATOM      3  N7    A A  1       26.959 -18.519   4.023  0.00  0.00    -0.231 NA
ATOM      4  C8    A A  1       26.956 -17.263   3.631  0.00  0.00    +0.203 A 
ATOM      5  N9    A A  1       25.685 -16.776   3.455  0.00  0.00    -0.285 N 
ATOM      6  C4    A A  1       24.820 -17.797   3.748  0.00  0.00    +0.167 A 
ATOM      7  N3    A A  1       23.475 -17.767   3.731  0.00  0.00    -0.216 NA
ATOM      8  C2    A A  1       22.962 -18.962   4.094  0.00  0.00    +0.225 A 
ATOM      9  N1    A A  1       23.622 -20.080   4.458  0.00  0.00    -0.219 NA
ENDROOT
BRANCH   5  10
ATOM     10  C1*   A A  1       25.346 -15.466   2.940  0.00  0.00    +0.253 C 
ATOM     11  C2*   A A  1       24.843 -14.413   3.941  0.00  0.00    +0.195 C 
ATOM     12  C3*   A A  1       25.112 -13.136   3.164  0.00  0.00    +0.178 C 
ATOM     13  C4*   A A  1       26.427 -13.449   2.445  0.00  0.00    +0.177 C 
ATOM     14  O4*   A A  1       26.513 -14.891   2.301  0.00  0.00    -0.346 OA
BRANCH  11  15
ATOM     15  O2*   A A  1       25.596 -14.366   5.158  0.00  0.00    -0.385 OA
ATOM     16  H2*   A A  1       26.537 -14.439   4.895  0.00  0.00    +0.210 HD
ENDBRANCH  11  15
BRANCH  12  17
ATOM     17  O3*   A A  1       24.056 -12.954   2.214  0.00  0.00    -0.386 OA
ATOM     18  H3*   A A  1       24.007 -12.003   2.009  0.00  0.00    +0.210 HD
ENDBRANCH  12  17
BRANCH  13  19
ATOM     19  C5*   A A  1       27.661 -12.971   3.217  0.00  0.00    +0.190 C 
BRANCH  19  20
ATOM     20  O5*   A A  1       28.365 -14.096   3.747  0.00  0.00    -0.392 OA
ATOM     21  H5*   A A  1       28.612 -13.855   4.659  0.00  0.00    +0.209 HD
ENDBRANCH  19  20
ENDBRANCH  13  19
ENDBRANCH   5  10
BRANCH   1  22
ATOM     22  N6    A A  1       25.648 -21.215   4.829  0.00  0.00    -0.341 N 
ATOM     23  H61   A A  1       25.102 -21.815   5.441  0.00  0.00    +0.144 HD
ATOM     24  H62   A A  1       26.115 -21.650   4.045  0.00  0.00    +0.144 HD
ENDBRANCH   1  22
TORSDOF 6
ENDMDL
MODEL 3
REMARK VINA RESULT:      -3.0      1.009      1.997
REMARK  Name = *****
REMARK                            x       y       z     vdW  Elec       q    Type
REMARK                         _______ _______ _______ _____ _____    ______ ____
ROOT
ATOM      1  C6    A A  1       25.488 -14.169   4.086  0.00  0.00    +0.147 A 
ATOM      2  C5    A A  1       25.720 -15.514   3.748  0.00  0.00    +0.147 A 
ATOM      3  N7    A A  1       26.853 -16.193   3.353  0.00  0.00    -0.231 NA
ATOM      4  C8    A A  1       26.452 -17.434   3.169  0.00  0.00    +0.203 A 
ATOM      5  N9    A A  1       25.110 -17.588   3.414  0.00  0.00    -0.285 N 
ATOM      6  C4    A A  1       24.627 -16.363   3.787  0.00  0.00    +0.167 A 
ATOM      7  N3    A A  1       23.359 -16.039   4.102  0.00  0.00    -0.216 NA
ATOM      8  C2    A A  1       23.258 -14.728   4.407  0.00  0.00    +0.225 A 
ATOM      9  N1    A A  1       24.228 -13.791   4.405  0.00  0.00    -0.219 NA
ENDROOT
BRANCH   5  10
ATOM     10  C1*   A A  1       24.387 -18.842   3.392  0.00  0.00    +0.253 C 
ATOM     11  C2*   A A  1       25.142 -20.111   3.824  0.00  0.00    +0.195 C 
ATOM     12  C3*   A A  1       23.980 -21.026   4.166  0.00  0.00    +0.178 C 
ATOM     13  C4*   A A  1       22.967 -20.066   4.795  0.00  0.00    +0.177 C 
ATOM     14  O4*   A A  1       23.235 -18.741   4.266  0.00  0.00    -0.346 OA
BRANCH  11  15
ATOM     15  O2*   A A  1       25.938 -19.936   5.001  0.00  0.00    -0.385 OA
ATOM     16  H2*   A A  1       26.146 -18.980   5.046  0.00  0.00    +0.210 HD
ENDBRANCH  11  15
BRANCH  12  17
ATOM     17  O3*   A A  1       23.460 -21.571   2.948  0.00  0.00    -0.386 OA
ATOM     18  H3*   A A  1       23.744 -20.988   2.220  0.00  0.00    +0.210 HD
ENDBRANCH  12  17
BRANCH  13  19
ATOM     19  C5*   A A  1       23.070 -20.001   6.322  0.00  0.00    +0.190 C 
BRANCH  19  20
ATOM     20  O5*   A A  1       23.820 -21.118   6.803  0.00  0.00    -0.392 OA
ATOM     21  H5*   A A  1       24.746 -20.816   6.863  0.00  0.00    +0.209 HD
ENDBRANCH  19  20
ENDBRANCH  13  19
ENDBRANCH   5  10
BRANCH   1  22
ATOM     22  N6    A A  1       26.482 -13.200   4.085  0.00  0.00    -0.341 N 
ATOM     23  H61   A A  1       26.751 -12.904   3.151  0.00  0.00    +0.144 HD
ATOM     24  H62   A A  1       26.304 -12.478   4.770  0.00  0.00    +0.144 HD
ENDBRANCH   1  22
TORSDOF 6
ENDMDL
MODEL 4
REMARK VINA RESULT:      -2.8      3.648      6.095
REMARK  Name = *****
REMARK                            x       y       z     vdW  Elec       q    Type
REMARK                         _______ _______ _______ _____ _____    ______ ____
ROOT
ATOM      1  C6    A A  1       27.062 -20.365   5.556  0.00  0.00    +0.147 A 
ATOM      2  C5    A A  1       26.459 -19.388   4.745  0.00  0.00    +0.147 A 
ATOM      3  N7    A A  1       25.236 -19.328   4.111  0.00  0.00    -0.231 NA
ATOM      4  C8    A A  1       25.237 -18.167   3.491  0.00  0.00    +0.203 A 
ATOM      5  N9    A A  1       26.407 -17.476   3.682  0.00  0.00    -0.285 N 
ATOM      6  C4    A A  1       27.202 -18.249   4.487  0.00  0.00    +0.167 A 
ATOM      7  N3    A A  1       28.447 -17.978   4.918  0.00  0.00    -0.216 NA
ATOM      8  C2    A A  1       28.922 -18.983   5.683  0.00  0.00    +0.225 A 
ATOM      9  N1    A A  1       28.317 -20.142   6.011  0.00  0.00    -0.219 NA
ENDROOT
BRANCH   5  10
ATOM     10  C1*   A A  1       26.682 -16.135   3.213  0.00  0.00    +0.253 C 
ATOM     11  C2*   A A  1       25.505 -15.148   3.138  0.00  0.00    +0.195 C 
ATOM     12  C3*   A A  1       26.248 -13.824   3.137  0.00  0.00    +0.178 C 
ATOM     13  C4*   A A  1       27.416 -14.092   4.090  0.00  0.00    +0.177 C 
ATOM     14  O4*   A A  1       27.669 -15.522   4.080  0.00  0.00    -0.346 OA
BRANCH  11  15
ATOM     15  O2*   A A  1       24.648 -15.183   4.285  0.00  0.00    -0.385 OA
ATOM     16  H2*   A A  1       25.242 -15.185   5.064  0.00  0.00    +0.210 HD
ENDBRANCH  11  15
BRANCH  12  17
ATOM     17  O3*   A A  1       26.732 -13.578   1.812  0.00  0.00    -0.386 OA
ATOM     18  H3*   A A  1       27.703 -13.659   1.834  0.00  0.00    +0.210 HD
ENDBRANCH  12  17
BRANCH  13  19
ATOM     19  C5*   A A  1       27.123 -13.668   5.532  0.00  0.00    +0.190 C 
BRANCH  19  20
ATOM     20  O5*   A A  1       26.012 -12.770   5.556  0.00  0.00    -0.392 OA
ATOM     21  H5*   A A  1       26.046 -12.321   6.422  0.00  0.00    +0.209 HD
ENDBRANCH  19  20
ENDBRANCH  13  19
ENDBRANCH   5  10
BRANCH   1  22
ATOM     22  N6    A A  1       26.444 -21.561   5.897  0.00  0.00    -0.341 N 
ATOM     23  H61   A A  1       25.540 -21.432   6.342  0.00  0.00    +0.144 HD
ATOM     24  H62   A A  1       26.503 -22.241   5.150  0.00  0.00    +0.144 HD
ENDBRANCH   1  22
TORSDOF 6
ENDMDL
MODEL 5
REMARK VINA RESULT:      -2.2      3.209      5.838
REMARK  Name = *****
REMARK                            x       y       z     vdW  Elec       q    Type
REMARK                         _______ _______ _______ _____ _____    ______ ____
ROOT
ATOM      1  C6    A A  1       23.178 -19.758   4.605  0.00  0.00    +0.147 A 
ATOM      2  C5    A A  1       23.235 -18.365   4.428  0.00  0.00    +0.147 A 
ATOM      3  N7    A A  1       22.361 -17.348   4.750  0.00  0.00    -0.231 NA
ATOM      4  C8    A A  1       22.955 -16.251   4.331  0.00  0.00    +0.203 A 
ATOM      5  N9    A A  1       24.168 -16.509   3.741  0.00  0.00    -0.285 N 
ATOM      6  C4    A A  1       24.361 -17.863   3.797  0.00  0.00    +0.167 A 
ATOM      7  N3    A A  1       25.405 -18.566   3.322  0.00  0.00    -0.216 NA
ATOM      8  C2    A A  1       25.240 -19.887   3.548  0.00  0.00    +0.225 A 
ATOM      9  N1    A A  1       24.202 -20.511   4.140  0.00  0.00    -0.219 NA
ENDROOT
BRANCH   5  10
ATOM     10  C1*   A A  1       25.104 -15.512   3.266  0.00  0.00    +0.253 C 
ATOM     11  C2*   A A  1       24.636 -14.048   3.233  0.00  0.00    +0.195 C 
ATOM     12  C3*   A A  1       25.971 -13.326   3.210  0.00  0.00    +0.178 C 
ATOM     13  C4*   A A  1       26.841 -14.196   4.121  0.00  0.00    +0.177 C 
ATOM     14  O4*   A A  1       26.289 -15.539   4.100  0.00  0.00    -0.346 OA
BRANCH  11  15
ATOM     15  O2*   A A  1       23.926 -13.643   4.409  0.00  0.00    -0.385 OA
ATOM     16  H2*   A A  1       24.437 -13.994   5.167  0.00  0.00    +0.210 HD
ENDBRANCH  11  15
BRANCH  12  17
ATOM     17  O3*   A A  1       26.475 -13.350   1.870  0.00  0.00    -0.386 OA
ATOM     18  H3*   A A  1       25.813 -12.921   1.299  0.00  0.00    +0.210 HD
ENDBRANCH  12  17
BRANCH  13  19
ATOM     19  C5*   A A  1       26.860 -13.710   5.574  0.00  0.00    +0.190 C 
BRANCH  19  20
ATOM     20  O5*   A A  1       27.849 -12.691   5.730  0.00  0.00    -0.392 OA
ATOM     21  H5*   A A  1       27.752 -12.357   6.641  0.00  0.00    +0.209 HD
ENDBRANCH  19  20
ENDBRANCH  13  19
ENDBRANCH   5  10
BRANCH   1  22
ATOM     22  N6    A A  1       22.112 -20.407   5.214  0.00  0.00    -0.341 N 
ATOM     23  H61   A A  1       21.600 -19.814   5.861  0.00  0.00    +0.144 HD
ATOM     24  H62   A A  1       21.572 -20.947   4.551  0.00  0.00    +0.144 HD
ENDBRANCH   1  22
TORSDOF 6
ENDMDL
MODEL 6
REMARK VINA RESULT:      -2.0      2.923      4.439
REMARK  Name = *****
REMARK                            x       y       z     vdW  Elec       q    Type
REMARK                         _______ _______ _______ _____ _____    ______ ____
ROOT
ATOM      1  C6    A A  1       28.347 -19.321   5.794  0.00  0.00    +0.147 A 
ATOM      2  C5    A A  1       27.204 -20.130   5.918  0.00  0.00    +0.147 A 
ATOM      3  N7    A A  1       26.894 -21.186   6.749  0.00  0.00    -0.231 NA
ATOM      4  C8    A A  1       25.679 -21.546   6.393  0.00  0.00    +0.203 A 
ATOM      5  N9    A A  1       25.191 -20.782   5.362  0.00  0.00    -0.285 N 
ATOM      6  C4    A A  1       26.160 -19.868   5.047  0.00  0.00    +0.167 A 
ATOM      7  N3    A A  1       26.123 -18.929   4.083  0.00  0.00    -0.216 NA
ATOM      8  C2    A A  1       27.271 -18.219   4.059  0.00  0.00    +0.225 A 
ATOM      9  N1    A A  1       28.363 -18.366   4.836  0.00  0.00    -0.219 NA
ENDROOT
BRANCH   5  10
ATOM     10  C1*   A A  1       23.856 -20.866   4.809  0.00  0.00    +0.253 C 
ATOM     11  C2*   A A  1       22.672 -20.844   5.790  0.00  0.00    +0.195 C 
ATOM     12  C3*   A A  1       21.546 -20.422   4.863  0.00  0.00    +0.178 C 
ATOM     13  C4*   A A  1       22.235 -19.424   3.928  0.00  0.00    +0.177 C 
ATOM     14  O4*   A A  1       23.648 -19.755   3.901  0.00  0.00    -0.346 OA
BRANCH  11  15
ATOM     15  O2*   A A  1       22.796 -19.861   6.823  0.00  0.00    -0.385 OA
ATOM     16  H2*   A A  1       23.217 -19.082   6.404  0.00  0.00    +0.210 HD
ENDBRANCH  11  15
BRANCH  12  17
ATOM     17  O3*   A A  1       21.109 -21.572   4.129  0.00  0.00    -0.386 OA
ATOM     18  H3*   A A  1       21.605 -21.591   3.290  0.00  0.00    +0.210 HD
ENDBRANCH  12  17
BRANCH  13  19
ATOM     19  C5*   A A  1       22.093 -17.971   4.393  0.00  0.00    +0.190 C 
BRANCH  19  20
ATOM     20  O5*   A A  1       23.352 -17.305   4.286  0.00  0.00    -0.392 OA
ATOM     21  H5*   A A  1       23.928 -17.898   3.768  0.00  0.00    +0.209 HD
ENDBRANCH  19  20
ENDBRANCH  13  19
ENDBRANCH   5  10
BRANCH   1  22
ATOM     22  N6    A A  1       29.475 -19.469   6.591  0.00  0.00    -0.341 N 
ATOM     23  H61   A A  1       29.613 -18.694   7.235  0.00  0.00    +0.144 HD
ATOM     24  H62   A A  1       29.552 -20.405   6.965  0.00  0.00    +0.144 HD
ENDBRANCH   1  22
TORSDOF 6
ENDMDL
MODEL 7
REMARK VINA RESULT:      -1.7      3.447      5.900
REMARK  Name = *****
REMARK                            x       y       z     vdW  Elec       q    Type
REMARK                         _______ _______ _______ _____ _____    ______ ____
ROOT
ATOM      1  C6    A A  1       24.403 -19.016   3.852  0.00  0.00    +0.147 A 
ATOM      2  C5    A A  1       23.637 -17.866   4.113  0.00  0.00    +0.147 A 
ATOM      3  N7    A A  1       22.351 -17.689   4.578  0.00  0.00    -0.231 NA
ATOM      4  C8    A A  1       22.184 -16.384   4.610  0.00  0.00    +0.203 A 
ATOM      5  N9    A A  1       23.296 -15.706   4.177  0.00  0.00    -0.285 N 
ATOM      6  C4    A A  1       24.238 -16.646   3.854  0.00  0.00    +0.167 A 
ATOM      7  N3    A A  1       25.475 -16.438   3.367  0.00  0.00    -0.216 NA
ATOM      8  C2    A A  1       26.112 -17.610   3.155  0.00  0.00    +0.225 A 
ATOM      9  N1    A A  1       25.652 -18.861   3.355  0.00  0.00    -0.219 NA
ENDROOT
BRANCH   5  10
ATOM     10  C1*   A A  1       23.464 -14.268   4.182  0.00  0.00    +0.253 C 
ATOM     11  C2*   A A  1       24.550 -13.677   5.095  0.00  0.00    +0.195 C 
ATOM     12  C3*   A A  1       24.759 -12.322   4.444  0.00  0.00    +0.178 C 
ATOM     13  C4*   A A  1       24.610 -12.637   2.953  0.00  0.00    +0.177 C 
ATOM     14  O4*   A A  1       23.779 -13.823   2.839  0.00  0.00    -0.346 OA
BRANCH  11  15
ATOM     15  O2*   A A  1       25.790 -14.392   5.055  0.00  0.00    -0.385 OA
ATOM     16  H2*   A A  1       25.573 -15.289   4.726  0.00  0.00    +0.210 HD
ENDBRANCH  11  15
BRANCH  12  17
ATOM     17  O3*   A A  1       23.710 -11.447   4.875  0.00  0.00    -0.386 OA
ATOM     18  H3*   A A  1       22.872 -11.938   4.811  0.00  0.00    +0.210 HD
ENDBRANCH  12  17
BRANCH  13  19
ATOM     19  C5*   A A  1       25.948 -12.922   2.264  0.00  0.00    +0.190 C 
BRANCH  19  20
ATOM     20  O5*   A A  1       25.991 -14.285   1.839  0.00  0.00    -0.392 OA
ATOM     21  H5*   A A  1       25.240 -14.729   2.276  0.00  0.00    +0.209 HD
ENDBRANCH  19  20
ENDBRANCH  13  19
ENDBRANCH   5  10
BRANCH   1  22
ATOM     22  N6    A A  1       23.934 -20.307   4.055  0.00  0.00    -0.341 N 
ATOM     23  H61   A A  1       23.906 -20.861   3.203  0.00  0.00    +0.144 HD
ATOM     24  H62   A A  1       24.346 -20.733   4.874  0.00  0.00    +0.144 HD
ENDBRANCH   1  22
TORSDOF 6
ENDMDL
MODEL 8
REMARK VINA RESULT:      -1.4      3.524      6.319
REMARK  Name = *****
REMARK                            x       y       z     vdW  Elec       q    Type
REMARK                         _______ _______ _______ _____ _____    ______ ____
ROOT
ATOM      1  C6    A A  1       23.033 -18.535   4.062  0.00  0.00    +0.147 A 
ATOM      2  C5    A A  1       24.265 -17.924   3.772  0.00  0.00    +0.147 A 
ATOM      3  N7    A A  1       25.470 -18.423   3.325  0.00  0.00    -0.231 NA
ATOM      4  C8    A A  1       26.259 -17.373   3.247  0.00  0.00    +0.203 A 
ATOM      5  N9    A A  1       25.627 -16.217   3.633  0.00  0.00    -0.285 N 
ATOM      6  C4    A A  1       24.344 -16.557   3.973  0.00  0.00    +0.167 A 
ATOM      7  N3    A A  1       23.372 -15.746   4.429  0.00  0.00    -0.216 NA
ATOM      8  C2    A A  1       22.240 -16.441   4.673  0.00  0.00    +0.225 A 
ATOM      9  N1    A A  1       22.023 -17.764   4.528  0.00  0.00    -0.219 NA
ENDROOT
BRANCH   5  10
ATOM     10  C1*   A A  1       26.190 -14.885   3.571  0.00  0.00    +0.253 C 
ATOM     11  C2*   A A  1       25.870 -14.030   2.334  0.00  0.00    +0.195 C 
ATOM     12  C3*   A A  1       26.158 -12.640   2.872  0.00  0.00    +0.178 C 
ATOM     13  C4*   A A  1       25.667 -12.729   4.319  0.00  0.00    +0.177 C 
ATOM     14  O4*   A A  1       25.735 -14.124   4.717  0.00  0.00    -0.346 OA
BRANCH  11  15
ATOM     15  O2*   A A  1       24.497 -14.083   1.935  0.00  0.00    -0.385 OA
ATOM     16  H2*   A A  1       24.115 -14.864   2.386  0.00  0.00    +0.210 HD
ENDBRANCH  11  15
BRANCH  12  17
ATOM     17  O3*   A A  1       27.573 -12.425   2.838  0.00  0.00    -0.386 OA
ATOM     18  H3*   A A  1       27.779 -11.718   3.476  0.00  0.00    +0.210 HD
ENDBRANCH  12  17
BRANCH  13  19
ATOM     19  C5*   A A  1       24.222 -12.252   4.493  0.00  0.00    +0.190 C 
BRANCH  19  20
ATOM     20  O5*   A A  1       23.769 -11.634   3.287  0.00  0.00    -0.392 OA
ATOM     21  H5*   A A  1       23.425 -12.356   2.727  0.00  0.00    +0.209 HD
ENDBRANCH  19  20
ENDBRANCH  13  19
ENDBRANCH   5  10
BRANCH   1  22
ATOM     22  N6    A A  1       22.803 -19.897   3.916  0.00  0.00    -0.341 N 
ATOM     23  H61   A A  1       21.855 -20.171   4.158  0.00  0.00    +0.144 HD
ATOM     24  H62   A A  1       23.184 -20.252   3.050  0.00  0.00    +0.144 HD
ENDBRANCH   1  22
TORSDOF 6
ENDMDL
MODEL 9
REMARK VINA RESULT:      -1.3      3.067      4.750
REMARK  Name = *****
REMARK                            x       y       z     vdW  Elec       q    Type
REMARK                         _______ _______ _______ _____ _____    ______ ____
ROOT
ATOM      1  C6    A A  1       28.164 -20.196   6.071  0.00  0.00    +0.147 A 
ATOM      2  C5    A A  1       27.163 -19.775   5.178  0.00  0.00    +0.147 A 
ATOM      3  N7    A A  1       27.160 -18.866   4.142  0.00  0.00    -0.231 NA
ATOM      4  C8    A A  1       25.929 -18.893   3.676  0.00  0.00    +0.203 A 
ATOM      5  N9    A A  1       25.130 -19.768   4.369  0.00  0.00    -0.285 N 
ATOM      6  C4    A A  1       25.910 -20.342   5.337  0.00  0.00    +0.167 A 
ATOM      7  N3    A A  1       25.540 -21.246   6.263  0.00  0.00    -0.216 NA
ATOM      8  C2    A A  1       26.579 -21.572   7.061  0.00  0.00    +0.225 A 
ATOM      9  N1    A A  1       27.841 -21.099   7.025  0.00  0.00    -0.219 NA
ENDROOT
BRANCH   5  10
ATOM     10  C1*   A A  1       23.758 -20.095   4.045  0.00  0.00    +0.253 C 
ATOM     11  C2*   A A  1       22.837 -20.537   5.194  0.00  0.00    +0.195 C 
ATOM     12  C3*   A A  1       21.474 -20.268   4.582  0.00  0.00    +0.178 C 
ATOM     13  C4*   A A  1       21.712 -18.988   3.777  0.00  0.00    +0.177 C 
ATOM     14  O4*   A A  1       23.124 -18.940   3.441  0.00  0.00    -0.346 OA
BRANCH  11  15
ATOM     15  O2*   A A  1       22.964 -19.740   6.376  0.00  0.00    -0.385 OA
ATOM     16  H2*   A A  1       22.088 -19.765   6.813  0.00  0.00    +0.210 HD
ENDBRANCH  11  15
BRANCH  12  17
ATOM     17  O3*   A A  1       21.149 -21.353   3.706  0.00  0.00    -0.386 OA
ATOM     18  H3*   A A  1       21.066 -20.990   2.806  0.00  0.00    +0.210 HD
ENDBRANCH  12  17
BRANCH  13  19
ATOM     19  C5*   A A  1       21.362 -17.716   4.556  0.00  0.00    +0.190 C 
BRANCH  19  20
ATOM     20  O5*   A A  1       22.538 -16.927   4.745  0.00  0.00    -0.392 OA
ATOM     21  H5*   A A  1       22.363 -16.363   5.522  0.00  0.00    +0.209 HD
ENDBRANCH  19  20
ENDBRANCH  13  19
ENDBRANCH   5  10
BRANCH   1  22
ATOM     22  N6    A A  1       29.466 -19.712   6.040  0.00  0.00    -0.341 N 
ATOM     23  H61   A A  1       29.850 -19.540   6.965  0.00  0.00    +0.144 HD
ATOM     24  H62   A A  1       30.041 -20.222   5.383  0.00  0.00    +0.144 HD
ENDBRANCH   1  22
TORSDOF 6
ENDMDL
