MODEL 1
REMARK VINA RESULT:      -9.0      0.000      0.000
REMARK  Name = *****
REMARK                            x       y       z     vdW  Elec       q    Type
REMARK                         _______ _______ _______ _____ _____    ______ ____
ROOT
ATOM      1  N   LIG    1       27.215 -22.177   7.427  0.00  0.00    -0.087 NA
ATOM      2  C   LIG    1       26.011 -22.459   6.978  0.00  0.00    +0.108 C 
ENDROOT
BRANCH   2   3
ATOM      3  C   LIG    1       25.103 -21.527   6.205  0.00  0.00    +0.020 A 
ATOM      4  C   LIG    1       23.770 -21.208   6.572  0.00  0.00    +0.051 A 
ATOM      5 CL   LIG    1       22.867 -22.028   7.793  0.00  0.00    -0.083 Cl
ATOM      6  C   LIG    1       23.050 -20.234   5.871  0.00  0.00    +0.040 A 
ATOM      7  C   LIG    1       23.588 -19.635   4.741  0.00  0.00    +0.042 A 
ATOM      8 CL   LIG    1       22.674 -18.474   3.866  0.00  0.00    -0.084 Cl
ATOM      9  C   LIG    1       24.862 -19.986   4.311  0.00  0.00    +0.021 A 
ATOM     10  C   LIG    1       25.617 -20.887   5.062  0.00  0.00    +0.013 A 
ENDBRANCH   2   3
BRANCH   1  11
ATOM     11  O   LIG    1       27.677 -20.939   7.015  0.00  0.00    -0.389 OA
BRANCH  11  12
ATOM     12  C   LIG    1       29.061 -21.055   6.663  0.00  0.00    +0.299 C 
BRANCH  12  18
ATOM     13 CL   LIG    1       32.020 -17.068  10.102  0.00  0.00    -0.084 Cl
ATOM     14  C   LIG    1       31.212 -18.211   9.101  0.00  0.00    +0.042 A 
ATOM     15  C   LIG    1       31.397 -19.572   9.320  0.00  0.00    +0.040 A 
ATOM     16  C   LIG    1       30.720 -20.504   8.529  0.00  0.00    +0.049 A 
ATOM     17 CL   LIG    1       31.014 -22.174   8.865  0.00  0.00    -0.083 Cl
ATOM     18  C   LIG    1       29.844 -20.084   7.515  0.00  0.00    +0.011 A 
ATOM     19  C   LIG    1       29.691 -18.701   7.294  0.00  0.00    +0.010 A 
ATOM     20  C   LIG    1       30.370 -17.770   8.085  0.00  0.00    +0.020 A 
ENDBRANCH  12  18
ENDBRANCH  11  12
ENDBRANCH   1  11
BRANCH   2  21
ATOM     21  C   LIG    1       25.521 -23.868   7.324  0.00  0.00    +0.182 C 
BRANCH  21  22
ATOM     22  N   LIG    1       25.686 -24.842   6.266  0.00  0.00    -0.331 N 
ATOM     23  C   LIG    1       25.101 -24.779   5.029  0.00  0.00    +0.199 A 
ATOM     24  N   LIG    1       25.372 -25.855   4.320  0.00  0.00    -0.244 NA
ATOM     25  C   LIG    1       26.136 -26.645   5.136  0.00  0.00    +0.130 A 
ATOM     26  C   LIG    1       26.337 -26.038   6.352  0.00  0.00    +0.107 A 
ENDBRANCH  21  22
ENDBRANCH   2  21
TORSDOF 6
ENDMDL
MODEL 2
REMARK VINA RESULT:      -8.8      1.226      1.540
REMARK  Name = *****
REMARK                            x       y       z     vdW  Elec       q    Type
REMARK                         _______ _______ _______ _____ _____    ______ ____
ROOT
ATOM      1  N   LIG    1       27.002 -22.493   7.315  0.00  0.00    -0.087 NA
ATOM      2  C   LIG    1       25.797 -22.773   6.868  0.00  0.00    +0.108 C 
ENDROOT
BRANCH   2   3
ATOM      3  C   LIG    1       24.869 -21.825   6.140  0.00  0.00    +0.020 A 
ATOM      4  C   LIG    1       23.453 -21.871   6.206  0.00  0.00    +0.051 A 
ATOM      5 CL   LIG    1       22.544 -23.167   6.894  0.00  0.00    -0.083 Cl
ATOM      6  C   LIG    1       22.678 -20.871   5.606  0.00  0.00    +0.040 A 
ATOM      7  C   LIG    1       23.275 -19.874   4.848  0.00  0.00    +0.042 A 
ATOM      8 CL   LIG    1       22.307 -18.681   4.081  0.00  0.00    -0.084 Cl
ATOM      9  C   LIG    1       24.656 -19.849   4.701  0.00  0.00    +0.021 A 
ATOM     10  C   LIG    1       25.436 -20.789   5.375  0.00  0.00    +0.013 A 
ENDBRANCH   2   3
BRANCH   1  11
ATOM     11  O   LIG    1       27.445 -21.235   6.944  0.00  0.00    -0.389 OA
BRANCH  11  12
ATOM     12  C   LIG    1       28.794 -21.338   6.475  0.00  0.00    +0.299 C 
BRANCH  12  18
ATOM     13 CL   LIG    1       32.274 -17.401   9.452  0.00  0.00    -0.084 Cl
ATOM     14  C   LIG    1       31.250 -18.505   8.621  0.00  0.00    +0.042 A 
ATOM     15  C   LIG    1       30.561 -18.086   7.486  0.00  0.00    +0.040 A 
ATOM     16  C   LIG    1       29.751 -18.988   6.791  0.00  0.00    +0.049 A 
ATOM     17 CL   LIG    1       28.927 -18.382   5.397  0.00  0.00    -0.083 Cl
ATOM     18  C   LIG    1       29.627 -20.320   7.218  0.00  0.00    +0.011 A 
ATOM     19  C   LIG    1       30.312 -20.715   8.383  0.00  0.00    +0.010 A 
ATOM     20  C   LIG    1       31.121 -19.812   9.079  0.00  0.00    +0.020 A 
ENDBRANCH  12  18
ENDBRANCH  11  12
ENDBRANCH   1  11
BRANCH   2  21
ATOM     21  C   LIG    1       25.328 -24.200   7.167  0.00  0.00    +0.182 C 
BRANCH  21  22
ATOM     22  N   LIG    1       25.657 -25.171   6.145  0.00  0.00    -0.331 N 
ATOM     23  C   LIG    1       25.172 -25.172   4.863  0.00  0.00    +0.199 A 
ATOM     24  N   LIG    1       25.586 -26.231   4.199  0.00  0.00    -0.244 NA
ATOM     25  C   LIG    1       26.343 -26.945   5.090  0.00  0.00    +0.130 A 
ATOM     26  C   LIG    1       26.394 -26.308   6.306  0.00  0.00    +0.107 A 
ENDBRANCH  21  22
ENDBRANCH   2  21
TORSDOF 6
ENDMDL
MODEL 3
REMARK VINA RESULT:      -8.7      2.903      6.867
REMARK  Name = *****
REMARK                            x       y       z     vdW  Elec       q    Type
REMARK                         _______ _______ _______ _____ _____    ______ ____
ROOT
ATOM      1  N   LIG    1       27.383 -22.169   7.138  0.00  0.00    -0.087 NA
ATOM      2  C   LIG    1       26.862 -20.963   7.054  0.00  0.00    +0.108 C 
ENDROOT
BRANCH   2   3
ATOM      3  C   LIG    1       25.679 -20.556   6.202  0.00  0.00    +0.020 A 
ATOM      4  C   LIG    1       24.324 -20.631   6.613  0.00  0.00    +0.051 A 
ATOM      5 CL   LIG    1       23.772 -21.446   8.031  0.00  0.00    -0.083 Cl
ATOM      6  C   LIG    1       23.304 -20.107   5.809  0.00  0.00    +0.040 A 
ATOM      7  C   LIG    1       23.589 -19.599   4.549  0.00  0.00    +0.042 A 
ATOM      8 CL   LIG    1       22.322 -19.003   3.556  0.00  0.00    -0.084 Cl
ATOM      9  C   LIG    1       24.900 -19.586   4.088  0.00  0.00    +0.021 A 
ATOM     10  C   LIG    1       25.928 -20.020   4.925  0.00  0.00    +0.013 A 
ENDBRANCH   2   3
BRANCH   1  11
ATOM     11  O   LIG    1       26.658 -23.127   6.450  0.00  0.00    -0.389 OA
BRANCH  11  12
ATOM     12  C   LIG    1       26.010 -23.986   7.397  0.00  0.00    +0.299 C 
BRANCH  12  18
ATOM     13 CL   LIG    1       24.468 -29.142   4.657  0.00  0.00    -0.084 Cl
ATOM     14  C   LIG    1       24.904 -27.654   5.402  0.00  0.00    +0.042 A 
ATOM     15  C   LIG    1       23.923 -26.705   5.674  0.00  0.00    +0.040 A 
ATOM     16  C   LIG    1       24.269 -25.507   6.306  0.00  0.00    +0.049 A 
ATOM     17 CL   LIG    1       22.990 -24.383   6.600  0.00  0.00    -0.083 Cl
ATOM     18  C   LIG    1       25.598 -25.248   6.678  0.00  0.00    +0.011 A 
ATOM     19  C   LIG    1       26.578 -26.211   6.368  0.00  0.00    +0.010 A 
ATOM     20  C   LIG    1       26.232 -27.409   5.736  0.00  0.00    +0.020 A 
ENDBRANCH  12  18
ENDBRANCH  11  12
ENDBRANCH   1  11
BRANCH   2  21
ATOM     21  C   LIG    1       27.579 -19.905   7.898  0.00  0.00    +0.182 C 
BRANCH  21  22
ATOM     22  N   LIG    1       28.920 -19.586   7.455  0.00  0.00    -0.331 N 
ATOM     23  C   LIG    1       29.241 -18.959   6.279  0.00  0.00    +0.199 A 
ATOM     24  N   LIG    1       30.545 -18.888   6.119  0.00  0.00    -0.244 NA
ATOM     25  C   LIG    1       31.080 -19.510   7.216  0.00  0.00    +0.130 A 
ATOM     26  C   LIG    1       30.087 -19.957   8.054  0.00  0.00    +0.107 A 
ENDBRANCH  21  22
ENDBRANCH   2  21
TORSDOF 6
ENDMDL
MODEL 4
REMARK VINA RESULT:      -8.7      1.861      2.444
REMARK  Name = *****
REMARK                            x       y       z     vdW  Elec       q    Type
REMARK                         _______ _______ _______ _____ _____    ______ ____
ROOT
ATOM      1  N   LIG    1       25.735 -23.603   6.795  0.00  0.00    -0.087 NA
ATOM      2  C   LIG    1       25.042 -23.368   5.702  0.00  0.00    +0.108 C 
ENDROOT
BRANCH   2   3
ATOM      3  C   LIG    1       24.253 -22.113   5.396  0.00  0.00    +0.020 A 
ATOM      4  C   LIG    1       23.233 -21.578   6.223  0.00  0.00    +0.051 A 
ATOM      5 CL   LIG    1       22.530 -22.400   7.568  0.00  0.00    -0.083 Cl
ATOM      6  C   LIG    1       22.649 -20.341   5.926  0.00  0.00    +0.040 A 
ATOM      7  C   LIG    1       22.981 -19.664   4.762  0.00  0.00    +0.042 A 
ATOM      8 CL   LIG    1       22.222 -18.170   4.389  0.00  0.00    -0.084 Cl
ATOM      9  C   LIG    1       23.920 -20.204   3.891  0.00  0.00    +0.021 A 
ATOM     10  C   LIG    1       24.572 -21.389   4.232  0.00  0.00    +0.013 A 
ENDBRANCH   2   3
BRANCH   1  11
ATOM     11  O   LIG    1       25.803 -22.513   7.646  0.00  0.00    -0.389 OA
BRANCH  11  12
ATOM     12  C   LIG    1       27.147 -22.384   8.127  0.00  0.00    +0.299 C 
BRANCH  12  18
ATOM     13 CL   LIG    1       29.696 -17.893   4.994  0.00  0.00    -0.084 Cl
ATOM     14  C   LIG    1       28.989 -19.199   5.863  0.00  0.00    +0.042 A 
ATOM     15  C   LIG    1       29.749 -19.899   6.795  0.00  0.00    +0.040 A 
ATOM     16  C   LIG    1       29.171 -20.942   7.524  0.00  0.00    +0.049 A 
ATOM     17 CL   LIG    1       30.188 -21.762   8.655  0.00  0.00    -0.083 Cl
ATOM     18  C   LIG    1       27.824 -21.291   7.334  0.00  0.00    +0.011 A 
ATOM     19  C   LIG    1       27.081 -20.586   6.366  0.00  0.00    +0.010 A 
ATOM     20  C   LIG    1       27.660 -19.544   5.637  0.00  0.00    +0.020 A 
ENDBRANCH  12  18
ENDBRANCH  11  12
ENDBRANCH   1  11
BRANCH   2  21
ATOM     21  C   LIG    1       25.046 -24.518   4.691  0.00  0.00    +0.182 C 
BRANCH  21  22
ATOM     22  N   LIG    1       25.094 -25.839   5.280  0.00  0.00    -0.331 N 
ATOM     23  C   LIG    1       26.053 -26.786   5.033  0.00  0.00    +0.199 A 
ATOM     24  N   LIG    1       25.776 -27.916   5.649  0.00  0.00    -0.244 NA
ATOM     25  C   LIG    1       24.588 -27.696   6.294  0.00  0.00    +0.130 A 
ATOM     26  C   LIG    1       24.144 -26.414   6.072  0.00  0.00    +0.107 A 
ENDBRANCH  21  22
ENDBRANCH   2  21
TORSDOF 6
ENDMDL
MODEL 5
REMARK VINA RESULT:      -8.1      2.375      4.450
REMARK  Name = *****
REMARK                            x       y       z     vdW  Elec       q    Type
REMARK                         _______ _______ _______ _____ _____    ______ ____
ROOT
ATOM      1  N   LIG    1       26.154 -21.147   7.678  0.00  0.00    -0.087 NA
ATOM      2  C   LIG    1       25.065 -21.768   7.278  0.00  0.00    +0.108 C 
ENDROOT
BRANCH   2   3
ATOM      3  C   LIG    1       24.941 -23.244   6.965  0.00  0.00    +0.020 A 
ATOM      4  C   LIG    1       23.726 -23.902   6.645  0.00  0.00    +0.051 A 
ATOM      5 CL   LIG    1       22.157 -23.206   6.823  0.00  0.00    -0.083 Cl
ATOM      6  C   LIG    1       23.726 -25.243   6.240  0.00  0.00    +0.040 A 
ATOM      7  C   LIG    1       24.900 -25.982   6.244  0.00  0.00    +0.042 A 
ATOM      8 CL   LIG    1       24.876 -27.637   5.787  0.00  0.00    -0.084 Cl
ATOM      9  C   LIG    1       26.094 -25.384   6.630  0.00  0.00    +0.021 A 
ATOM     10  C   LIG    1       26.112 -24.024   6.942  0.00  0.00    +0.013 A 
ENDBRANCH   2   3
BRANCH   1  11
ATOM     11  O   LIG    1       27.212 -22.003   7.931  0.00  0.00    -0.389 OA
BRANCH  11  12
ATOM     12  C   LIG    1       28.202 -21.831   6.910  0.00  0.00    +0.299 C 
BRANCH  12  18
ATOM     13 CL   LIG    1       32.201 -17.691   8.742  0.00  0.00    -0.084 Cl
ATOM     14  C   LIG    1       31.032 -18.850   8.239  0.00  0.00    +0.042 A 
ATOM     15  C   LIG    1       30.170 -18.549   7.189  0.00  0.00    +0.040 A 
ATOM     16  C   LIG    1       29.239 -19.498   6.758  0.00  0.00    +0.049 A 
ATOM     17 CL   LIG    1       28.204 -19.040   5.452  0.00  0.00    -0.083 Cl
ATOM     18  C   LIG    1       29.165 -20.761   7.368  0.00  0.00    +0.011 A 
ATOM     19  C   LIG    1       30.029 -21.034   8.447  0.00  0.00    +0.010 A 
ATOM     20  C   LIG    1       30.959 -20.084   8.878  0.00  0.00    +0.020 A 
ENDBRANCH  12  18
ENDBRANCH  11  12
ENDBRANCH   1  11
BRANCH   2  21
ATOM     21  C   LIG    1       23.847 -20.858   7.099  0.00  0.00    +0.182 C 
BRANCH  21  22
ATOM     22  N   LIG    1       23.708 -20.287   5.776  0.00  0.00    -0.331 N 
ATOM     23  C   LIG    1       24.680 -20.271   4.810  0.00  0.00    +0.199 A 
ATOM     24  N   LIG    1       24.281 -19.605   3.747  0.00  0.00    -0.244 NA
ATOM     25  C   LIG    1       23.022 -19.159   4.048  0.00  0.00    +0.130 A 
ATOM     26  C   LIG    1       22.649 -19.566   5.306  0.00  0.00    +0.107 A 
ENDBRANCH  21  22
ENDBRANCH   2  21
TORSDOF 6
ENDMDL
MODEL 6
REMARK VINA RESULT:      -7.8      3.278      6.429
REMARK  Name = *****
REMARK                            x       y       z     vdW  Elec       q    Type
REMARK                         _______ _______ _______ _____ _____    ______ ____
ROOT
ATOM      1  N   LIG    1       25.266 -21.566   5.887  0.00  0.00    -0.087 NA
ATOM      2  C   LIG    1       25.520 -22.529   6.746  0.00  0.00    +0.108 C 
ENDROOT
BRANCH   2   3
ATOM      3  C   LIG    1       25.226 -24.001   6.554  0.00  0.00    +0.020 A 
ATOM      4  C   LIG    1       23.926 -24.554   6.423  0.00  0.00    +0.051 A 
ATOM      5 CL   LIG    1       22.460 -23.698   6.733  0.00  0.00    -0.083 Cl
ATOM      6  C   LIG    1       23.755 -25.910   6.116  0.00  0.00    +0.040 A 
ATOM      7  C   LIG    1       24.849 -26.759   6.035  0.00  0.00    +0.042 A 
ATOM      8 CL   LIG    1       24.620 -28.428   5.701  0.00  0.00    -0.084 Cl
ATOM      9  C   LIG    1       26.130 -26.260   6.237  0.00  0.00    +0.021 A 
ATOM     10  C   LIG    1       26.309 -24.893   6.450  0.00  0.00    +0.013 A 
ENDBRANCH   2   3
BRANCH   1  11
ATOM     11  O   LIG    1       24.797 -22.028   4.669  0.00  0.00    -0.389 OA
BRANCH  11  12
ATOM     12  C   LIG    1       23.734 -21.174   4.228  0.00  0.00    +0.299 C 
BRANCH  12  18
ATOM     13 CL   LIG    1       26.114 -15.730   3.145  0.00  0.00    -0.084 Cl
ATOM     14  C   LIG    1       25.436 -17.273   3.493  0.00  0.00    +0.042 A 
ATOM     15  C   LIG    1       24.083 -17.378   3.800  0.00  0.00    +0.040 A 
ATOM     16  C   LIG    1       23.521 -18.632   4.056  0.00  0.00    +0.049 A 
ATOM     17 CL   LIG    1       21.836 -18.671   4.435  0.00  0.00    -0.083 Cl
ATOM     18  C   LIG    1       24.306 -19.796   3.999  0.00  0.00    +0.011 A 
ATOM     19  C   LIG    1       25.679 -19.663   3.712  0.00  0.00    +0.010 A 
ATOM     20  C   LIG    1       26.240 -18.408   3.458  0.00  0.00    +0.020 A 
ENDBRANCH  12  18
ENDBRANCH  11  12
ENDBRANCH   1  11
BRANCH   2  21
ATOM     21  C   LIG    1       26.147 -22.054   8.060  0.00  0.00    +0.182 C 
BRANCH  21  22
ATOM     22  N   LIG    1       27.392 -21.331   7.909  0.00  0.00    -0.331 N 
ATOM     23  C   LIG    1       27.556 -19.982   8.091  0.00  0.00    +0.199 A 
ATOM     24  N   LIG    1       28.783 -19.609   7.795  0.00  0.00    -0.244 NA
ATOM     25  C   LIG    1       29.422 -20.749   7.388  0.00  0.00    +0.130 A 
ATOM     26  C   LIG    1       28.574 -21.829   7.444  0.00  0.00    +0.107 A 
ENDBRANCH  21  22
ENDBRANCH   2  21
TORSDOF 6
ENDMDL
MODEL 7
REMARK VINA RESULT:      -7.8      5.343      8.751
REMARK  Name = *****
REMARK                            x       y       z     vdW  Elec       q    Type
REMARK                         _______ _______ _______ _____ _____    ______ ____
ROOT
ATOM      1  N   LIG    1       23.953 -29.604   6.337  0.00  0.00    -0.087 NA
ATOM      2  C   LIG    1       24.418 -30.309   7.346  0.00  0.00    +0.108 C 
ENDROOT
BRANCH   2   3
ATOM      3  C   LIG    1       24.893 -29.763   8.675  0.00  0.00    +0.020 A 
ATOM      4  C   LIG    1       24.244 -29.983   9.917  0.00  0.00    +0.051 A 
ATOM      5 CL   LIG    1       22.670 -30.669  10.093  0.00  0.00    -0.083 Cl
ATOM      6  C   LIG    1       24.828 -29.551  11.114  0.00  0.00    +0.040 A 
ATOM      7  C   LIG    1       26.001 -28.809  11.100  0.00  0.00    +0.042 A 
ATOM      8 CL   LIG    1       26.680 -28.248  12.573  0.00  0.00    -0.084 Cl
ATOM      9  C   LIG    1       26.617 -28.510   9.891  0.00  0.00    +0.021 A 
ATOM     10  C   LIG    1       26.088 -29.020   8.705  0.00  0.00    +0.013 A 
ENDBRANCH   2   3
BRANCH   1  11
ATOM     11  O   LIG    1       23.800 -28.260   6.632  0.00  0.00    -0.389 OA
BRANCH  11  12
ATOM     12  C   LIG    1       24.254 -27.486   5.515  0.00  0.00    +0.299 C 
BRANCH  12  18
ATOM     13 CL   LIG    1       25.326 -21.929   7.622  0.00  0.00    -0.084 Cl
ATOM     14  C   LIG    1       25.032 -23.499   6.985  0.00  0.00    +0.042 A 
ATOM     15  C   LIG    1       26.102 -24.348   6.721  0.00  0.00    +0.040 A 
ATOM     16  C   LIG    1       25.866 -25.636   6.231  0.00  0.00    +0.049 A 
ATOM     17 CL   LIG    1       27.253 -26.621   5.925  0.00  0.00    -0.083 Cl
ATOM     18  C   LIG    1       24.557 -26.090   6.006  0.00  0.00    +0.011 A 
ATOM     19  C   LIG    1       23.490 -25.205   6.255  0.00  0.00    +0.010 A 
ATOM     20  C   LIG    1       23.727 -23.917   6.744  0.00  0.00    +0.020 A 
ENDBRANCH  12  18
ENDBRANCH  11  12
ENDBRANCH   1  11
BRANCH   2  21
ATOM     21  C   LIG    1       24.491 -31.816   7.084  0.00  0.00    +0.182 C 
BRANCH  21  22
ATOM     22  N   LIG    1       25.764 -32.280   6.576  0.00  0.00    -0.331 N 
ATOM     23  C   LIG    1       26.001 -32.712   5.296  0.00  0.00    +0.199 A 
ATOM     24  N   LIG    1       27.234 -33.152   5.164  0.00  0.00    -0.244 NA
ATOM     25  C   LIG    1       27.802 -33.021   6.403  0.00  0.00    +0.130 A 
ATOM     26  C   LIG    1       26.904 -32.488   7.296  0.00  0.00    +0.107 A 
ENDBRANCH  21  22
ENDBRANCH   2  21
TORSDOF 6
ENDMDL
MODEL 8
REMARK VINA RESULT:      -7.7      3.412      6.959
REMARK  Name = *****
REMARK                            x       y       z     vdW  Elec       q    Type
REMARK                         _______ _______ _______ _____ _____    ______ ____
ROOT
ATOM      1  N   LIG    1       25.896 -24.273   6.894  0.00  0.00    -0.087 NA
ATOM      2  C   LIG    1       25.639 -23.005   7.135  0.00  0.00    +0.108 C 
ENDROOT
BRANCH   2   3
ATOM      3  C   LIG    1       24.770 -22.093   6.295  0.00  0.00    +0.020 A 
ATOM      4  C   LIG    1       23.354 -22.149   6.243  0.00  0.00    +0.051 A 
ATOM      5 CL   LIG    1       22.398 -23.426   6.902  0.00  0.00    -0.083 Cl
ATOM      6  C   LIG    1       22.627 -21.179   5.542  0.00  0.00    +0.040 A 
ATOM      7  C   LIG    1       23.280 -20.206   4.800  0.00  0.00    +0.042 A 
ATOM      8 CL   LIG    1       22.374 -19.051   3.909  0.00  0.00    -0.084 Cl
ATOM      9  C   LIG    1       24.669 -20.175   4.768  0.00  0.00    +0.021 A 
ATOM     10  C   LIG    1       25.394 -21.082   5.542  0.00  0.00    +0.013 A 
ENDBRANCH   2   3
BRANCH   1  11
ATOM     11  O   LIG    1       25.177 -24.785   5.828  0.00  0.00    -0.389 OA
BRANCH  11  12
ATOM     12  C   LIG    1       25.859 -25.939   5.321  0.00  0.00    +0.299 C 
BRANCH  12  18
ATOM     13 CL   LIG    1       25.147 -30.280   9.459  0.00  0.00    -0.084 Cl
ATOM     14  C   LIG    1       25.374 -29.069   8.259  0.00  0.00    +0.042 A 
ATOM     15  C   LIG    1       24.681 -29.152   7.055  0.00  0.00    +0.040 A 
ATOM     16  C   LIG    1       24.840 -28.155   6.089  0.00  0.00    +0.049 A 
ATOM     17 CL   LIG    1       23.947 -28.341   4.621  0.00  0.00    -0.083 Cl
ATOM     18  C   LIG    1       25.687 -27.059   6.320  0.00  0.00    +0.011 A 
ATOM     19  C   LIG    1       26.399 -27.009   7.535  0.00  0.00    +0.010 A 
ATOM     20  C   LIG    1       26.241 -28.007   8.500  0.00  0.00    +0.020 A 
ENDBRANCH  12  18
ENDBRANCH  11  12
ENDBRANCH   1  11
BRANCH   2  21
ATOM     21  C   LIG    1       26.334 -22.444   8.379  0.00  0.00    +0.182 C 
BRANCH  21  22
ATOM     22  N   LIG    1       27.431 -21.540   8.102  0.00  0.00    -0.331 N 
ATOM     23  C   LIG    1       27.458 -20.204   8.407  0.00  0.00    +0.199 A 
ATOM     24  N   LIG    1       28.553 -19.635   7.951  0.00  0.00    -0.244 NA
ATOM     25  C   LIG    1       29.242 -20.632   7.312  0.00  0.00    +0.130 A 
ATOM     26  C   LIG    1       28.559 -21.821   7.388  0.00  0.00    +0.107 A 
ENDBRANCH  21  22
ENDBRANCH   2  21
TORSDOF 6
ENDMDL
MODEL 9
REMARK VINA RESULT:      -7.6      4.745      8.191
REMARK  Name = *****
REMARK                            x       y       z     vdW  Elec       q    Type
REMARK                         _______ _______ _______ _____ _____    ______ ____
ROOT
ATOM      1  N   LIG    1       24.411 -28.020   6.071  0.00  0.00    -0.087 NA
ATOM      2  C   LIG    1       24.514 -29.063   6.866  0.00  0.00    +0.108 C 
ENDROOT
BRANCH   2   3
ATOM      3  C   LIG    1       25.055 -29.061   8.279  0.00  0.00    +0.020 A 
ATOM      4  C   LIG    1       24.469 -29.752   9.370  0.00  0.00    +0.051 A 
ATOM      5 CL   LIG    1       22.904 -30.480   9.343  0.00  0.00    -0.083 Cl
ATOM      6  C   LIG    1       25.112 -29.803  10.613  0.00  0.00    +0.040 A 
ATOM      7  C   LIG    1       26.284 -29.092  10.831  0.00  0.00    +0.042 A 
ATOM      8 CL   LIG    1       27.037 -29.128  12.373  0.00  0.00    -0.084 Cl
ATOM      9  C   LIG    1       26.840 -28.341   9.801  0.00  0.00    +0.021 A 
ATOM     10  C   LIG    1       26.251 -28.366   8.537  0.00  0.00    +0.013 A 
ENDBRANCH   2   3
BRANCH   1  11
ATOM     11  O   LIG    1       24.734 -26.825   6.690  0.00  0.00    -0.389 OA
BRANCH  11  12
ATOM     12  C   LIG    1       24.099 -25.751   5.986  0.00  0.00    +0.299 C 
BRANCH  12  18
ATOM     13 CL   LIG    1       26.170 -20.543   8.235  0.00  0.00    -0.084 Cl
ATOM     14  C   LIG    1       25.567 -22.037   7.631  0.00  0.00    +0.042 A 
ATOM     15  C   LIG    1       24.203 -22.185   7.398  0.00  0.00    +0.040 A 
ATOM     16  C   LIG    1       23.712 -23.387   6.880  0.00  0.00    +0.049 A 
ATOM     17 CL   LIG    1       22.005 -23.488   6.627  0.00  0.00    -0.083 Cl
ATOM     18  C   LIG    1       24.580 -24.450   6.583  0.00  0.00    +0.011 A 
ATOM     19  C   LIG    1       25.953 -24.287   6.852  0.00  0.00    +0.010 A 
ATOM     20  C   LIG    1       26.444 -23.085   7.371  0.00  0.00    +0.020 A 
ENDBRANCH  12  18
ENDBRANCH  11  12
ENDBRANCH   1  11
BRANCH   2  21
ATOM     21  C   LIG    1       24.054 -30.383   6.240  0.00  0.00    +0.182 C 
BRANCH  21  22
ATOM     22  N   LIG    1       25.074 -31.408   6.175  0.00  0.00    -0.331 N 
ATOM     23  C   LIG    1       25.992 -31.554   5.168  0.00  0.00    +0.199 A 
ATOM     24  N   LIG    1       26.729 -32.630   5.349  0.00  0.00    -0.244 NA
ATOM     25  C   LIG    1       26.254 -33.207   6.496  0.00  0.00    +0.130 A 
ATOM     26  C   LIG    1       25.221 -32.468   7.021  0.00  0.00    +0.107 A 
ENDBRANCH  21  22
ENDBRANCH   2  21
TORSDOF 6
ENDMDL
