MODEL 1
REMARK VINA RESULT:      -3.3      0.000      0.000
REMARK  Name = *****
REMARK                            x       y       z     vdW  Elec       q    Type
REMARK                         _______ _______ _______ _____ _____    ______ ____
ROOT
ATOM      1  C   LIG    1       24.819 -13.972   3.991  0.00  0.00    +0.086 C 
ENDROOT
BRANCH   1   2
ATOM      2  C   LIG    1       24.003 -15.277   4.166  0.00  0.00    -0.027 A 
ATOM      3  C   LIG    1       22.753 -15.278   4.821  0.00  0.00    +0.005 A 
ATOM      4  C   LIG    1       22.019 -16.456   5.003  0.00  0.00    +0.000 A 
ATOM      5  C   LIG    1       22.496 -17.661   4.504  0.00  0.00    +0.000 A 
ATOM      6  C   LIG    1       23.722 -17.693   3.849  0.00  0.00    +0.000 A 
ATOM      7  C   LIG    1       24.478 -16.523   3.709  0.00  0.00    +0.005 A 
ENDBRANCH   1   2
BRANCH   1   9
ATOM      8  C   LIG    1       23.823 -11.713   4.972  0.00  0.00    +0.009 C 
ATOM      9  C   LIG    1       23.850 -12.709   3.794  0.00  0.00    +0.007 C 
ATOM     10  C   LIG    1       24.064 -11.914   2.498  0.00  0.00    +0.009 C 
ENDBRANCH   1   9
BRANCH   1  11
ATOM     11  C   LIG    1       25.661 -14.006   2.750  0.00  0.00    +0.074 C 
ATOM     12  N   LIG    1       26.337 -14.055   1.812  0.00  0.00    -0.196 NA
ENDBRANCH   1  11
BRANCH   1  13
ATOM     13  C   LIG    1       25.802 -13.676   5.204  0.00  0.00    +0.045 C 
BRANCH  13  14
ATOM     14  C   LIG    1       27.335 -14.012   5.091  0.00  0.00    +0.055 C 
ATOM     15  C   LIG    1       27.633 -15.353   4.403  0.00  0.00    +0.024 C 
BRANCH  14  16
ATOM     16  N   LIG    1       28.097 -12.868   4.499  0.00  0.00    -0.306 NA
ATOM     17  C   LIG    1       29.088 -13.223   3.483  0.00  0.00    +0.105 C 
ATOM     18  C   LIG    1       28.718 -12.000   5.507  0.00  0.00    +0.105 C 
ENDBRANCH  14  16
ENDBRANCH  13  14
ENDBRANCH   1  13
TORSDOF 6
ENDMDL
MODEL 2
REMARK VINA RESULT:      -1.8      3.900      6.172
REMARK  Name = *****
REMARK                            x       y       z     vdW  Elec       q    Type
REMARK                         _______ _______ _______ _____ _____    ______ ____
ROOT
ATOM      1  C   LIG    1       24.584 -19.354   4.234  0.00  0.00    +0.086 C 
ENDROOT
BRANCH   1   2
ATOM      2  C   LIG    1       24.765 -17.834   4.001  0.00  0.00    -0.027 A 
ATOM      3  C   LIG    1       23.731 -16.919   4.291  0.00  0.00    +0.005 A 
ATOM      4  C   LIG    1       23.879 -15.546   4.063  0.00  0.00    +0.000 A 
ATOM      5  C   LIG    1       25.077 -15.043   3.571  0.00  0.00    +0.000 A 
ATOM      6  C   LIG    1       26.116 -15.918   3.280  0.00  0.00    +0.000 A 
ATOM      7  C   LIG    1       25.953 -17.297   3.464  0.00  0.00    +0.005 A 
ENDBRANCH   1   2
BRANCH   1   9
ATOM      8  C   LIG    1       23.894 -21.571   2.943  0.00  0.00    +0.009 C 
ATOM      9  C   LIG    1       23.792 -20.033   3.015  0.00  0.00    +0.007 C 
ATOM     10  C   LIG    1       22.312 -19.644   2.898  0.00  0.00    +0.009 C 
ENDBRANCH   1   9
BRANCH   1  11
ATOM     11  C   LIG    1       23.741 -19.635   5.443  0.00  0.00    +0.074 C 
ATOM     12  N   LIG    1       23.088 -19.889   6.364  0.00  0.00    -0.196 NA
ENDBRANCH   1  11
BRANCH   1  13
ATOM     13  C   LIG    1       25.957 -20.127   4.444  0.00  0.00    +0.045 C 
BRANCH  13  14
ATOM     14  C   LIG    1       26.700 -20.074   5.829  0.00  0.00    +0.055 C 
ATOM     15  C   LIG    1       26.218 -21.126   6.840  0.00  0.00    +0.024 C 
BRANCH  14  16
ATOM     16  N   LIG    1       28.187 -20.076   5.647  0.00  0.00    -0.306 NA
ATOM     17  C   LIG    1       28.949 -20.811   6.655  0.00  0.00    +0.105 C 
ATOM     18  C   LIG    1       28.754 -18.731   5.488  0.00  0.00    +0.105 C 
ENDBRANCH  14  16
ENDBRANCH  13  14
ENDBRANCH   1  13
TORSDOF 6
ENDMDL
MODEL 3
REMARK VINA RESULT:      -1.7      4.497      7.369
REMARK  Name = *****
REMARK                            x       y       z     vdW  Elec       q    Type
REMARK                         _______ _______ _______ _____ _____    ______ ____
ROOT
ATOM      1  C   LIG    1       25.445 -19.319   4.384  0.00  0.00    +0.086 C 
ENDROOT
BRANCH   1   2
ATOM      2  C   LIG    1       26.570 -19.878   5.289  0.00  0.00    -0.027 A 
ATOM      3  C   LIG    1       27.884 -19.367   5.227  0.00  0.00    +0.005 A 
ATOM      4  C   LIG    1       28.912 -19.882   6.025  0.00  0.00    +0.000 A 
ATOM      5  C   LIG    1       28.649 -20.898   6.934  0.00  0.00    +0.000 A 
ATOM      6  C   LIG    1       27.365 -21.420   7.023  0.00  0.00    +0.000 A 
ATOM      7  C   LIG    1       26.346 -20.938   6.191  0.00  0.00    +0.005 A 
ENDBRANCH   1   2
BRANCH   1   9
ATOM      8  C   LIG    1       24.227 -21.555   3.625  0.00  0.00    +0.009 C 
ATOM      9  C   LIG    1       25.090 -20.347   3.205  0.00  0.00    +0.007 C 
ATOM     10  C   LIG    1       24.459 -19.717   1.955  0.00  0.00    +0.009 C 
ENDBRANCH   1   9
BRANCH   1  11
ATOM     11  C   LIG    1       25.868 -18.062   3.683  0.00  0.00    +0.074 C 
ATOM     12  N   LIG    1       26.170 -17.102   3.113  0.00  0.00    -0.196 NA
ENDBRANCH   1  11
BRANCH   1  13
ATOM     13  C   LIG    1       24.111 -18.974   5.178  0.00  0.00    +0.045 C 
BRANCH  13  14
ATOM     14  C   LIG    1       23.051 -20.095   5.482  0.00  0.00    +0.055 C 
ATOM     15  C   LIG    1       23.040 -20.568   6.944  0.00  0.00    +0.024 C 
BRANCH  14  16
ATOM     16  N   LIG    1       21.694 -19.706   4.983  0.00  0.00    -0.306 NA
ATOM     17  C   LIG    1       20.938 -20.763   4.312  0.00  0.00    +0.105 C 
ATOM     18  C   LIG    1       21.707 -18.504   4.142  0.00  0.00    +0.105 C 
ENDBRANCH  14  16
ENDBRANCH  13  14
ENDBRANCH   1  13
TORSDOF 6
ENDMDL
MODEL 4
REMARK VINA RESULT:      -1.6      1.982      4.798
REMARK  Name = *****
REMARK                            x       y       z     vdW  Elec       q    Type
REMARK                         _______ _______ _______ _____ _____    ______ ____
ROOT
ATOM      1  C   LIG    1       24.327 -13.405   3.701  0.00  0.00    +0.086 C 
ENDROOT
BRANCH   1   2
ATOM      2  C   LIG    1       25.701 -13.982   4.124  0.00  0.00    -0.027 A 
ATOM      3  C   LIG    1       26.463 -13.385   5.151  0.00  0.00    +0.005 A 
ATOM      4  C   LIG    1       27.715 -13.887   5.524  0.00  0.00    +0.000 A 
ATOM      5  C   LIG    1       28.225 -15.022   4.908  0.00  0.00    +0.000 A 
ATOM      6  C   LIG    1       27.497 -15.637   3.897  0.00  0.00    +0.000 A 
ATOM      7  C   LIG    1       26.266 -15.107   3.490  0.00  0.00    +0.005 A 
ENDBRANCH   1   2
BRANCH   1   9
ATOM      8  C   LIG    1       23.513 -11.447   2.100  0.00  0.00    +0.009 C 
ATOM      9  C   LIG    1       24.423 -12.681   2.273  0.00  0.00    +0.007 C 
ATOM     10  C   LIG    1       25.841 -12.297   1.826  0.00  0.00    +0.009 C 
ENDBRANCH   1   9
BRANCH   1  11
ATOM     11  C   LIG    1       23.860 -12.335   4.642  0.00  0.00    +0.074 C 
ATOM     12  N   LIG    1       23.465 -11.527   5.371  0.00  0.00    -0.196 NA
ENDBRANCH   1  11
BRANCH   1  13
ATOM     13  C   LIG    1       23.175 -14.499   3.642  0.00  0.00    +0.045 C 
BRANCH  13  14
ATOM     14  C   LIG    1       23.137 -15.676   4.685  0.00  0.00    +0.055 C 
ATOM     15  C   LIG    1       22.166 -15.447   5.853  0.00  0.00    +0.024 C 
BRANCH  14  16
ATOM     16  N   LIG    1       22.936 -16.995   4.006  0.00  0.00    -0.306 NA
ATOM     17  C   LIG    1       21.937 -17.874   4.611  0.00  0.00    +0.105 C 
ATOM     18  C   LIG    1       24.185 -17.740   3.802  0.00  0.00    +0.105 C 
ENDBRANCH  14  16
ENDBRANCH  13  14
ENDBRANCH   1  13
TORSDOF 6
ENDMDL
MODEL 5
REMARK VINA RESULT:      -1.0      1.878      5.055
REMARK  Name = *****
REMARK                            x       y       z     vdW  Elec       q    Type
REMARK                         _______ _______ _______ _____ _____    ______ ____
ROOT
ATOM      1  C   LIG    1       25.091 -13.485   3.757  0.00  0.00    +0.086 C 
ENDROOT
BRANCH   1   2
ATOM      2  C   LIG    1       26.585 -13.156   3.997  0.00  0.00    -0.027 A 
ATOM      3  C   LIG    1       27.509 -13.117   2.931  0.00  0.00    +0.005 A 
ATOM      4  C   LIG    1       28.865 -12.842   3.142  0.00  0.00    +0.000 A 
ATOM      5  C   LIG    1       29.331 -12.563   4.420  0.00  0.00    +0.000 A 
ATOM      6  C   LIG    1       28.446 -12.588   5.491  0.00  0.00    +0.000 A 
ATOM      7  C   LIG    1       27.098 -12.910   5.287  0.00  0.00    +0.005 A 
ENDBRANCH   1   2
BRANCH   1   9
ATOM      8  C   LIG    1       23.290 -13.683   1.813  0.00  0.00    +0.009 C 
ATOM      9  C   LIG    1       24.655 -13.116   2.258  0.00  0.00    +0.007 C 
ATOM     10  C   LIG    1       24.685 -11.619   1.917  0.00  0.00    +0.009 C 
ENDBRANCH   1   9
BRANCH   1  11
ATOM     11  C   LIG    1       24.193 -12.662   4.632  0.00  0.00    +0.074 C 
ATOM     12  N   LIG    1       23.518 -11.994   5.293  0.00  0.00    -0.196 NA
ENDBRANCH   1  11
BRANCH   1  13
ATOM     13  C   LIG    1       24.729 -15.009   4.032  0.00  0.00    +0.045 C 
BRANCH  13  14
ATOM     14  C   LIG    1       25.491 -16.159   3.278  0.00  0.00    +0.055 C 
ATOM     15  C   LIG    1       26.950 -16.343   3.724  0.00  0.00    +0.024 C 
BRANCH  14  16
ATOM     16  N   LIG    1       24.707 -17.434   3.302  0.00  0.00    -0.306 NA
ATOM     17  C   LIG    1       23.504 -17.424   4.133  0.00  0.00    +0.105 C 
ATOM     18  C   LIG    1       25.520 -18.611   3.632  0.00  0.00    +0.105 C 
ENDBRANCH  14  16
ENDBRANCH  13  14
ENDBRANCH   1  13
TORSDOF 6
ENDMDL
MODEL 6
REMARK VINA RESULT:      -0.6      4.400      7.525
REMARK  Name = *****
REMARK                            x       y       z     vdW  Elec       q    Type
REMARK                         _______ _______ _______ _____ _____    ______ ____
ROOT
ATOM      1  C   LIG    1       24.895 -20.322   5.018  0.00  0.00    +0.086 C 
ENDROOT
BRANCH   1   2
ATOM      2  C   LIG    1       26.238 -19.550   4.970  0.00  0.00    -0.027 A 
ATOM      3  C   LIG    1       26.390 -18.391   4.180  0.00  0.00    +0.005 A 
ATOM      4  C   LIG    1       27.606 -17.701   4.114  0.00  0.00    +0.000 A 
ATOM      5  C   LIG    1       28.694 -18.128   4.864  0.00  0.00    +0.000 A 
ATOM      6  C   LIG    1       28.575 -19.263   5.656  0.00  0.00    +0.000 A 
ATOM      7  C   LIG    1       27.373 -19.982   5.686  0.00  0.00    +0.005 A 
ENDBRANCH   1   2
BRANCH   1   9
ATOM      8  C   LIG    1       26.221 -21.530   6.978  0.00  0.00    +0.009 C 
ATOM      9  C   LIG    1       24.945 -21.495   6.111  0.00  0.00    +0.007 C 
ATOM     10  C   LIG    1       23.729 -21.572   7.045  0.00  0.00    +0.009 C 
ENDBRANCH   1   9
BRANCH   1  11
ATOM     11  C   LIG    1       24.608 -21.019   3.721  0.00  0.00    +0.074 C 
ATOM     12  N   LIG    1       24.424 -21.571   2.721  0.00  0.00    -0.196 NA
ENDBRANCH   1  11
BRANCH   1  13
ATOM     13  C   LIG    1       23.644 -19.390   5.325  0.00  0.00    +0.045 C 
BRANCH  13  14
ATOM     14  C   LIG    1       22.350 -19.472   4.435  0.00  0.00    +0.055 C 
ATOM     15  C   LIG    1       21.441 -20.668   4.759  0.00  0.00    +0.024 C 
BRANCH  14  16
ATOM     16  N   LIG    1       21.618 -18.166   4.423  0.00  0.00    -0.306 NA
ATOM     17  C   LIG    1       20.620 -18.008   3.365  0.00  0.00    +0.105 C 
ATOM     18  C   LIG    1       22.510 -17.000   4.433  0.00  0.00    +0.105 C 
ENDBRANCH  14  16
ENDBRANCH  13  14
ENDBRANCH   1  13
TORSDOF 6
ENDMDL
MODEL 7
REMARK VINA RESULT:      -0.5      1.028      2.064
REMARK  Name = *****
REMARK                            x       y       z     vdW  Elec       q    Type
REMARK                         _______ _______ _______ _____ _____    ______ ____
ROOT
ATOM      1  C   LIG    1       24.954 -13.872   3.699  0.00  0.00    +0.086 C 
ENDROOT
BRANCH   1   2
ATOM      2  C   LIG    1       24.065 -15.083   4.077  0.00  0.00    -0.027 A 
ATOM      3  C   LIG    1       24.426 -16.399   3.718  0.00  0.00    +0.005 A 
ATOM      4  C   LIG    1       23.617 -17.496   4.036  0.00  0.00    +0.000 A 
ATOM      5  C   LIG    1       22.443 -17.314   4.754  0.00  0.00    +0.000 A 
ATOM      6  C   LIG    1       22.061 -16.031   5.127  0.00  0.00    +0.000 A 
ATOM      7  C   LIG    1       22.846 -14.928   4.767  0.00  0.00    +0.005 A 
ENDBRANCH   1   2
BRANCH   1   9
ATOM      8  C   LIG    1       23.937 -11.908   5.172  0.00  0.00    +0.009 C 
ATOM      9  C   LIG    1       25.121 -12.871   4.942  0.00  0.00    +0.007 C 
ATOM     10  C   LIG    1       25.461 -13.540   6.281  0.00  0.00    +0.009 C 
ENDBRANCH   1   9
BRANCH   1  11
ATOM     11  C   LIG    1       24.330 -13.040   2.618  0.00  0.00    +0.074 C 
ATOM     12  N   LIG    1       23.826 -12.381   1.812  0.00  0.00    -0.196 NA
ENDBRANCH   1  11
BRANCH   1  13
ATOM     13  C   LIG    1       26.398 -14.288   3.182  0.00  0.00    +0.045 C 
BRANCH  13  14
ATOM     14  C   LIG    1       27.567 -14.551   4.202  0.00  0.00    +0.055 C 
ATOM     15  C   LIG    1       28.103 -15.991   4.183  0.00  0.00    +0.024 C 
BRANCH  14  16
ATOM     16  N   LIG    1       28.646 -13.522   4.065  0.00  0.00    -0.306 NA
ATOM     17  C   LIG    1       28.701 -12.516   5.125  0.00  0.00    +0.105 C 
ATOM     18  C   LIG    1       28.652 -12.856   2.757  0.00  0.00    +0.105 C 
ENDBRANCH  14  16
ENDBRANCH  13  14
ENDBRANCH   1  13
TORSDOF 6
ENDMDL
MODEL 8
REMARK VINA RESULT:      -0.3      1.166      1.697
REMARK  Name = *****
REMARK                            x       y       z     vdW  Elec       q    Type
REMARK                         _______ _______ _______ _____ _____    ______ ____
ROOT
ATOM      1  C   LIG    1       25.105 -14.575   3.622  0.00  0.00    +0.086 C 
ENDROOT
BRANCH   1   2
ATOM      2  C   LIG    1       24.587 -16.031   3.728  0.00  0.00    -0.027 A 
ATOM      3  C   LIG    1       23.293 -16.317   4.212  0.00  0.00    +0.005 A 
ATOM      4  C   LIG    1       22.826 -17.631   4.332  0.00  0.00    +0.000 A 
ATOM      5  C   LIG    1       23.625 -18.696   3.937  0.00  0.00    +0.000 A 
ATOM      6  C   LIG    1       24.903 -18.448   3.451  0.00  0.00    +0.000 A 
ATOM      7  C   LIG    1       25.389 -17.136   3.376  0.00  0.00    +0.005 A 
ENDBRANCH   1   2
BRANCH   1   9
ATOM      8  C   LIG    1       23.264 -12.698   4.009  0.00  0.00    +0.009 C 
ATOM      9  C   LIG    1       23.986 -13.611   2.996  0.00  0.00    +0.007 C 
ATOM     10  C   LIG    1       24.452 -12.746   1.817  0.00  0.00    +0.009 C 
ENDBRANCH   1   9
BRANCH   1  11
ATOM     11  C   LIG    1       26.272 -14.467   2.686  0.00  0.00    +0.074 C 
ATOM     12  N   LIG    1       27.196 -14.379   1.996  0.00  0.00    -0.196 NA
ENDBRANCH   1  11
BRANCH   1  13
ATOM     13  C   LIG    1       25.576 -13.971   5.015  0.00  0.00    +0.045 C 
BRANCH  13  14
ATOM     14  C   LIG    1       26.248 -12.551   5.083  0.00  0.00    +0.055 C 
ATOM     15  C   LIG    1       25.421 -11.502   5.843  0.00  0.00    +0.024 C 
BRANCH  14  16
ATOM     16  N   LIG    1       27.662 -12.644   5.566  0.00  0.00    -0.306 NA
ATOM     17  C   LIG    1       28.694 -12.432   4.551  0.00  0.00    +0.105 C 
ATOM     18  C   LIG    1       27.945 -13.882   6.301  0.00  0.00    +0.105 C 
ENDBRANCH  14  16
ENDBRANCH  13  14
ENDBRANCH   1  13
TORSDOF 6
ENDMDL
MODEL 9
REMARK VINA RESULT:      -0.3      2.182      4.797
REMARK  Name = *****
REMARK                            x       y       z     vdW  Elec       q    Type
REMARK                         _______ _______ _______ _____ _____    ______ ____
ROOT
ATOM      1  C   LIG    1       25.512 -14.467   3.308  0.00  0.00    +0.086 C 
ENDROOT
BRANCH   1   2
ATOM      2  C   LIG    1       26.725 -13.765   3.968  0.00  0.00    -0.027 A 
ATOM      3  C   LIG    1       26.696 -13.368   5.322  0.00  0.00    +0.005 A 
ATOM      4  C   LIG    1       27.779 -12.714   5.920  0.00  0.00    +0.000 A 
ATOM      5  C   LIG    1       28.937 -12.470   5.193  0.00  0.00    +0.000 A 
ATOM      6  C   LIG    1       28.999 -12.853   3.859  0.00  0.00    +0.000 A 
ATOM      7  C   LIG    1       27.898 -13.465   3.247  0.00  0.00    +0.005 A 
ENDBRANCH   1   2
BRANCH   1   9
ATOM      8  C   LIG    1       23.428 -13.605   1.904  0.00  0.00    +0.009 C 
ATOM      9  C   LIG    1       24.963 -13.616   2.064  0.00  0.00    +0.007 C 
ATOM     10  C   LIG    1       25.463 -12.167   1.989  0.00  0.00    +0.009 C 
ENDBRANCH   1   9
BRANCH   1  11
ATOM     11  C   LIG    1       24.348 -14.566   4.249  0.00  0.00    +0.074 C 
ATOM     12  N   LIG    1       23.430 -14.615   4.952  0.00  0.00    -0.196 NA
ENDBRANCH   1  11
BRANCH   1  13
ATOM     13  C   LIG    1       25.830 -15.944   2.815  0.00  0.00    +0.045 C 
BRANCH  13  14
ATOM     14  C   LIG    1       25.584 -17.173   3.765  0.00  0.00    +0.055 C 
ATOM     15  C   LIG    1       24.267 -17.918   3.499  0.00  0.00    +0.024 C 
BRANCH  14  16
ATOM     16  N   LIG    1       26.774 -18.081   3.795  0.00  0.00    -0.306 NA
ATOM     17  C   LIG    1       26.549 -19.404   4.377  0.00  0.00    +0.105 C 
ATOM     18  C   LIG    1       27.957 -17.469   4.412  0.00  0.00    +0.105 C 
ENDBRANCH  14  16
ENDBRANCH  13  14
ENDBRANCH   1  13
TORSDOF 6
ENDMDL
