MODEL 1
REMARK VINA RESULT:      -4.4      0.000      0.000
REMARK  Name = *****
REMARK                            x       y       z     vdW  Elec       q    Type
REMARK                         _______ _______ _______ _____ _____    ______ ____
ROOT
ATOM      1  O   LIG    1       29.186 -11.972   5.444  0.00  0.00    -0.227 OA
ATOM      2  C   LIG    1       28.357 -12.528   4.751  0.00  0.00    +0.401 C 
ATOM      3  O   LIG    1       27.540 -13.540   5.164  0.00  0.00    -0.442 OA
ATOM      4  C   LIG    1       26.629 -13.872   4.091  0.00  0.00    +0.133 C 
ATOM      5  C   LIG    1       25.268 -13.225   4.391  0.00  0.00    +0.065 C 
ATOM      6  C   LIG    1       24.186 -13.732   3.438  0.00  0.00    +0.088 C 
ATOM      7  N   LIG    1       24.062 -15.197   3.416  0.00  0.00    -0.302 NA
ATOM      8  C   LIG    1       25.357 -15.814   3.080  0.00  0.00    +0.088 C 
ATOM      9  C   LIG    1       26.496 -15.394   4.012  0.00  0.00    +0.065 C 
ATOM     10  C   LIG    1       27.306 -13.274   2.860  0.00  0.00    +0.155 C 
ATOM     11  N   LIG    1       28.127 -12.261   3.430  0.00  0.00    -0.277 N 
ATOM     12  H   LIG    1       28.784 -11.674   2.933  0.00  0.00    +0.152 HD
ENDROOT
BRANCH   7  13
ATOM     13  C   LIG    1       23.502 -15.777   4.659  0.00  0.00    +0.089 C 
BRANCH  13  14
ATOM     14  C   LIG    1       22.371 -16.801   4.448  0.00  0.00    +0.050 C 
BRANCH  14  15
ATOM     15  C   LIG    1       22.890 -18.223   4.448  0.00  0.00    -0.046 A 
ATOM     16  C   LIG    1       23.952 -18.600   3.617  0.00  0.00    +0.003 A 
ATOM     17  C   LIG    1       24.427 -19.914   3.626  0.00  0.00    +0.000 A 
ATOM     18  C   LIG    1       23.849 -20.862   4.469  0.00  0.00    +0.000 A 
ATOM     19  C   LIG    1       22.797 -20.496   5.306  0.00  0.00    +0.000 A 
ATOM     20  C   LIG    1       22.321 -19.183   5.298  0.00  0.00    +0.003 A 
ENDBRANCH  14  15
ENDBRANCH  13  14
ENDBRANCH   7  13
TORSDOF 3
ENDMDL
MODEL 2
REMARK VINA RESULT:      -3.8      1.020      1.572
REMARK  Name = *****
REMARK                            x       y       z     vdW  Elec       q    Type
REMARK                         _______ _______ _______ _____ _____    ______ ____
ROOT
ATOM      1  O   LIG    1       29.475 -13.376   3.694  0.00  0.00    -0.227 OA
ATOM      2  C   LIG    1       28.270 -13.346   3.537  0.00  0.00    +0.401 C 
ATOM      3  O   LIG    1       27.419 -14.379   3.805  0.00  0.00    -0.442 OA
ATOM      4  C   LIG    1       26.061 -13.934   3.586  0.00  0.00    +0.133 C 
ATOM      5  C   LIG    1       25.426 -13.619   4.949  0.00  0.00    +0.065 C 
ATOM      6  C   LIG    1       23.921 -13.383   4.824  0.00  0.00    +0.088 C 
ATOM      7  N   LIG    1       23.205 -14.488   4.170  0.00  0.00    -0.302 NA
ATOM      8  C   LIG    1       23.785 -14.756   2.842  0.00  0.00    +0.088 C 
ATOM      9  C   LIG    1       25.286 -15.046   2.875  0.00  0.00    +0.065 C 
ATOM     10  C   LIG    1       26.237 -12.689   2.718  0.00  0.00    +0.155 C 
ATOM     11  N   LIG    1       27.567 -12.290   3.031  0.00  0.00    -0.277 N 
ATOM     12  H   LIG    1       28.077 -11.527   2.605  0.00  0.00    +0.152 HD
ENDROOT
BRANCH   7  13
ATOM     13  C   LIG    1       23.133 -15.726   4.979  0.00  0.00    +0.089 C 
BRANCH  13  14
ATOM     14  C   LIG    1       22.201 -16.818   4.419  0.00  0.00    +0.050 C 
BRANCH  14  15
ATOM     15  C   LIG    1       22.850 -18.185   4.450  0.00  0.00    -0.046 A 
ATOM     16  C   LIG    1       22.309 -19.220   5.222  0.00  0.00    +0.003 A 
ATOM     17  C   LIG    1       22.912 -20.479   5.242  0.00  0.00    +0.000 A 
ATOM     18  C   LIG    1       24.059 -20.719   4.486  0.00  0.00    +0.000 A 
ATOM     19  C   LIG    1       24.602 -19.699   3.709  0.00  0.00    +0.000 A 
ATOM     20  C   LIG    1       24.000 -18.438   3.688  0.00  0.00    +0.003 A 
ENDBRANCH  14  15
ENDBRANCH  13  14
ENDBRANCH   7  13
TORSDOF 3
ENDMDL
MODEL 3
REMARK VINA RESULT:      -3.6      2.055      2.960
REMARK  Name = *****
REMARK                            x       y       z     vdW  Elec       q    Type
REMARK                         _______ _______ _______ _____ _____    ______ ____
ROOT
ATOM      1  O   LIG    1       23.086 -11.447   5.776  0.00  0.00    -0.227 OA
ATOM      2  C   LIG    1       23.884 -12.022   5.063  0.00  0.00    +0.401 C 
ATOM      3  O   LIG    1       24.537 -13.176   5.390  0.00  0.00    -0.442 OA
ATOM      4  C   LIG    1       25.325 -13.604   4.254  0.00  0.00    +0.133 C 
ATOM      5  C   LIG    1       24.571 -14.737   3.539  0.00  0.00    +0.065 C 
ATOM      6  C   LIG    1       25.446 -15.410   2.483  0.00  0.00    +0.088 C 
ATOM      7  N   LIG    1       26.729 -15.900   3.007  0.00  0.00    -0.302 NA
ATOM      8  C   LIG    1       27.472 -14.801   3.650  0.00  0.00    +0.088 C 
ATOM      9  C   LIG    1       26.685 -14.093   4.754  0.00  0.00    +0.065 C 
ATOM     10  C   LIG    1       25.428 -12.339   3.404  0.00  0.00    +0.155 C 
ATOM     11  N   LIG    1       24.292 -11.595   3.831  0.00  0.00    -0.277 N 
ATOM     12  H   LIG    1       24.046 -10.659   3.536  0.00  0.00    +0.152 HD
ENDROOT
BRANCH   7  13
ATOM     13  C   LIG    1       26.607 -17.064   3.917  0.00  0.00    +0.089 C 
BRANCH  13  14
ATOM     14  C   LIG    1       26.106 -18.360   3.252  0.00  0.00    +0.050 C 
BRANCH  14  15
ATOM     15  C   LIG    1       24.935 -18.961   3.998  0.00  0.00    -0.046 A 
ATOM     16  C   LIG    1       23.633 -18.487   3.792  0.00  0.00    +0.003 A 
ATOM     17  C   LIG    1       22.556 -19.050   4.482  0.00  0.00    +0.000 A 
ATOM     18  C   LIG    1       22.769 -20.095   5.381  0.00  0.00    +0.000 A 
ATOM     19  C   LIG    1       24.059 -20.578   5.589  0.00  0.00    +0.000 A 
ATOM     20  C   LIG    1       25.137 -20.016   4.900  0.00  0.00    +0.003 A 
ENDBRANCH  14  15
ENDBRANCH  13  14
ENDBRANCH   7  13
TORSDOF 3
ENDMDL
MODEL 4
REMARK VINA RESULT:      -3.6      3.826      6.173
REMARK  Name = *****
REMARK                            x       y       z     vdW  Elec       q    Type
REMARK                         _______ _______ _______ _____ _____    ______ ____
ROOT
ATOM      1  O   LIG    1       29.452 -19.102   6.227  0.00  0.00    -0.227 OA
ATOM      2  C   LIG    1       28.441 -19.776   6.249  0.00  0.00    +0.401 C 
ATOM      3  O   LIG    1       27.170 -19.284   6.182  0.00  0.00    -0.442 OA
ATOM      4  C   LIG    1       26.242 -20.393   6.137  0.00  0.00    +0.133 C 
ATOM      5  C   LIG    1       25.786 -20.587   4.683  0.00  0.00    +0.065 C 
ATOM      6  C   LIG    1       24.621 -21.571   4.588  0.00  0.00    +0.088 C 
ATOM      7  N   LIG    1       23.477 -21.212   5.439  0.00  0.00    -0.302 NA
ATOM      8  C   LIG    1       23.907 -21.074   6.842  0.00  0.00    +0.088 C 
ATOM      9  C   LIG    1       25.047 -20.072   7.038  0.00  0.00    +0.065 C 
ATOM     10  C   LIG    1       27.073 -21.565   6.654  0.00  0.00    +0.155 C 
ATOM     11  N   LIG    1       28.402 -21.136   6.381  0.00  0.00    -0.277 N 
ATOM     12  H   LIG    1       29.252 -21.623   6.636  0.00  0.00    +0.152 HD
ENDROOT
BRANCH   7  13
ATOM     13  C   LIG    1       22.741 -20.008   4.987  0.00  0.00    +0.089 C 
BRANCH  13  14
ATOM     14  C   LIG    1       23.365 -19.275   3.785  0.00  0.00    +0.050 C 
BRANCH  14  15
ATOM     15  C   LIG    1       23.459 -17.783   4.019  0.00  0.00    -0.046 A 
ATOM     16  C   LIG    1       22.402 -17.082   4.614  0.00  0.00    +0.003 A 
ATOM     17  C   LIG    1       22.497 -15.705   4.830  0.00  0.00    +0.000 A 
ATOM     18  C   LIG    1       23.652 -15.016   4.460  0.00  0.00    +0.000 A 
ATOM     19  C   LIG    1       24.712 -15.705   3.874  0.00  0.00    +0.000 A 
ATOM     20  C   LIG    1       24.618 -17.082   3.657  0.00  0.00    +0.003 A 
ENDBRANCH  14  15
ENDBRANCH  13  14
ENDBRANCH   7  13
TORSDOF 3
ENDMDL
MODEL 5
REMARK VINA RESULT:      -3.5      3.326      4.296
REMARK  Name = *****
REMARK                            x       y       z     vdW  Elec       q    Type
REMARK                         _______ _______ _______ _____ _____    ______ ____
ROOT
ATOM      1  O   LIG    1       23.156 -11.457   4.727  0.00  0.00    -0.227 OA
ATOM      2  C   LIG    1       23.974 -12.167   4.176  0.00  0.00    +0.401 C 
ATOM      3  O   LIG    1       24.874 -12.968   4.817  0.00  0.00    -0.442 OA
ATOM      4  C   LIG    1       25.607 -13.730   3.830  0.00  0.00    +0.133 C 
ATOM      5  C   LIG    1       25.024 -15.151   3.780  0.00  0.00    +0.065 C 
ATOM      6  C   LIG    1       25.900 -16.086   2.947  0.00  0.00    +0.088 C 
ATOM      7  N   LIG    1       27.303 -16.123   3.386  0.00  0.00    -0.302 NA
ATOM      8  C   LIG    1       27.874 -14.765   3.386  0.00  0.00    +0.088 C 
ATOM      9  C   LIG    1       27.083 -13.767   4.233  0.00  0.00    +0.065 C 
ATOM     10  C   LIG    1       25.367 -12.950   2.539  0.00  0.00    +0.155 C 
ATOM     11  N   LIG    1       24.157 -12.258   2.825  0.00  0.00    -0.277 N 
ATOM     12  H   LIG    1       23.700 -11.582   2.227  0.00  0.00    +0.152 HD
ENDROOT
BRANCH   7  13
ATOM     13  C   LIG    1       27.511 -16.790   4.693  0.00  0.00    +0.089 C 
BRANCH  13  14
ATOM     14  C   LIG    1       28.741 -17.713   4.765  0.00  0.00    +0.050 C 
BRANCH  14  15
ATOM     15  C   LIG    1       28.458 -18.969   5.561  0.00  0.00    -0.046 A 
ATOM     16  C   LIG    1       29.465 -19.579   6.321  0.00  0.00    +0.003 A 
ATOM     17  C   LIG    1       29.194 -20.736   7.055  0.00  0.00    +0.000 A 
ATOM     18  C   LIG    1       27.915 -21.292   7.042  0.00  0.00    +0.000 A 
ATOM     19  C   LIG    1       26.906 -20.689   6.296  0.00  0.00    +0.000 A 
ATOM     20  C   LIG    1       27.174 -19.532   5.560  0.00  0.00    +0.003 A 
ENDBRANCH  14  15
ENDBRANCH  13  14
ENDBRANCH   7  13
TORSDOF 3
ENDMDL
MODEL 6
REMARK VINA RESULT:      -3.2      3.466      6.985
REMARK  Name = *****
REMARK                            x       y       z     vdW  Elec       q    Type
REMARK                         _______ _______ _______ _____ _____    ______ ____
ROOT
ATOM      1  O   LIG    1       22.672 -21.572   6.863  0.00  0.00    -0.227 OA
ATOM      2  C   LIG    1       23.164 -21.019   5.898  0.00  0.00    +0.401 C 
ATOM      3  O   LIG    1       23.634 -19.738   5.885  0.00  0.00    -0.442 OA
ATOM      4  C   LIG    1       24.230 -19.473   4.594  0.00  0.00    +0.133 C 
ATOM      5  C   LIG    1       25.757 -19.579   4.731  0.00  0.00    +0.065 C 
ATOM      6  C   LIG    1       26.468 -19.071   3.477  0.00  0.00    +0.088 C 
ATOM      7  N   LIG    1       26.082 -17.704   3.096  0.00  0.00    -0.302 NA
ATOM      8  C   LIG    1       24.622 -17.617   2.918  0.00  0.00    +0.088 C 
ATOM      9  C   LIG    1       23.826 -18.068   4.144  0.00  0.00    +0.065 C 
ATOM     10  C   LIG    1       23.642 -20.569   3.706  0.00  0.00    +0.155 C 
ATOM     11  N   LIG    1       23.296 -21.571   4.656  0.00  0.00    -0.277 N 
ATOM     12  H   LIG    1       22.818 -22.441   4.458  0.00  0.00    +0.152 HD
ENDROOT
BRANCH   7  13
ATOM     13  C   LIG    1       26.569 -16.657   4.024  0.00  0.00    +0.089 C 
BRANCH  13  14
ATOM     14  C   LIG    1       27.060 -15.363   3.347  0.00  0.00    +0.050 C 
BRANCH  14  15
ATOM     15  C   LIG    1       25.986 -14.297   3.321  0.00  0.00    -0.046 A 
ATOM     16  C   LIG    1       25.763 -13.530   2.170  0.00  0.00    +0.003 A 
ATOM     17  C   LIG    1       24.768 -12.550   2.153  0.00  0.00    +0.000 A 
ATOM     18  C   LIG    1       23.981 -12.331   3.284  0.00  0.00    +0.000 A 
ATOM     19  C   LIG    1       24.189 -13.094   4.431  0.00  0.00    +0.000 A 
ATOM     20  C   LIG    1       25.184 -14.073   4.450  0.00  0.00    +0.003 A 
ENDBRANCH  14  15
ENDBRANCH  13  14
ENDBRANCH   7  13
TORSDOF 3
ENDMDL
MODEL 7
REMARK VINA RESULT:      -1.8      4.545      6.849
REMARK  Name = *****
REMARK                            x       y       z     vdW  Elec       q    Type
REMARK                         _______ _______ _______ _____ _____    ______ ____
ROOT
ATOM      1  O   LIG    1       21.757 -16.182   3.716  0.00  0.00    -0.227 OA
ATOM      2  C   LIG    1       21.964 -17.349   3.986  0.00  0.00    +0.401 C 
ATOM      3  O   LIG    1       23.152 -17.852   4.430  0.00  0.00    -0.442 OA
ATOM      4  C   LIG    1       22.980 -19.256   4.734  0.00  0.00    +0.133 C 
ATOM      5  C   LIG    1       22.835 -19.410   6.256  0.00  0.00    +0.065 C 
ATOM      6  C   LIG    1       22.899 -20.877   6.678  0.00  0.00    +0.088 C 
ATOM      7  N   LIG    1       24.106 -21.572   6.207  0.00  0.00    -0.302 NA
ATOM      8  C   LIG    1       24.218 -21.464   4.741  0.00  0.00    +0.088 C 
ATOM      9  C   LIG    1       24.204 -20.022   4.230  0.00  0.00    +0.065 C 
ATOM     10  C   LIG    1       21.703 -19.622   3.981  0.00  0.00    +0.155 C 
ATOM     11  N   LIG    1       21.055 -18.361   3.855  0.00  0.00    -0.277 N 
ATOM     12  H   LIG    1       20.195 -18.179   3.355  0.00  0.00    +0.152 HD
ENDROOT
BRANCH   7  13
ATOM     13  C   LIG    1       25.356 -21.132   6.870  0.00  0.00    +0.089 C 
BRANCH  13  14
ATOM     14  C   LIG    1       26.652 -21.480   6.115  0.00  0.00    +0.050 C 
BRANCH  14  15
ATOM     15  C   LIG    1       27.612 -20.311   6.072  0.00  0.00    -0.046 A 
ATOM     16  C   LIG    1       28.591 -20.148   7.061  0.00  0.00    +0.003 A 
ATOM     17  C   LIG    1       29.475 -19.068   7.012  0.00  0.00    +0.000 A 
ATOM     18  C   LIG    1       29.394 -18.143   5.971  0.00  0.00    +0.000 A 
ATOM     19  C   LIG    1       28.430 -18.300   4.978  0.00  0.00    +0.000 A 
ATOM     20  C   LIG    1       27.545 -19.379   5.026  0.00  0.00    +0.003 A 
ENDBRANCH  14  15
ENDBRANCH  13  14
ENDBRANCH   7  13
TORSDOF 3
ENDMDL
