MODEL 1
REMARK VINA RESULT:      -7.2      0.000      0.000
REMARK  Name = *****
REMARK                            x       y       z     vdW  Elec       q    Type
REMARK                         _______ _______ _______ _____ _____    ______ ____
ROOT
ATOM      1  C   LIG    1       27.785 -20.470   6.870  0.00  0.00    +0.103 C 
ATOM      2  C   LIG    1       27.164 -19.964   5.695  0.00  0.00    +0.171 C 
ATOM      3  F   LIG    1       27.913 -19.239   4.848  0.00  0.00    -0.201 F 
ATOM      4  C   LIG    1       25.795 -20.136   5.379  0.00  0.00    +0.090 C 
ATOM      5  C   LIG    1       25.025 -20.854   6.315  0.00  0.00    +0.052 C 
ATOM      6  C   LIG    1       23.577 -21.061   6.085  0.00  0.00    +0.203 C 
ATOM      7  C   LIG    1       22.978 -20.512   4.857  0.00  0.00    +0.122 C 
ATOM      8  C   LIG    1       23.801 -19.853   4.032  0.00  0.00    +0.105 C 
ATOM      9  O   LIG    1       22.877 -21.667   6.894  0.00  0.00    -0.286 OA
ATOM     10  C   LIG    1       25.586 -21.379   7.476  0.00  0.00    +0.054 C 
ATOM     11  N   LIG    1       25.165 -19.642   4.209  0.00  0.00    -0.341 NA
ATOM     12  C   LIG    1       26.940 -21.200   7.729  0.00  0.00    +0.148 C 
ATOM     13  F   LIG    1       27.419 -21.791   8.835  0.00  0.00    -0.203 F 
ENDROOT
BRANCH   1  18
ATOM     14  C   LIG    1       31.726 -18.612   9.269  0.00  0.00    +0.105 C 
ATOM     15  N   LIG    1       31.859 -19.626   8.228  0.00  0.00    -0.302 NA
ATOM     16  C   LIG    1       31.146 -20.870   8.581  0.00  0.00    +0.103 C 
ATOM     17  C   LIG    1       29.602 -20.817   8.483  0.00  0.00    +0.120 C 
ATOM     18  N   LIG    1       29.162 -20.310   7.159  0.00  0.00    -0.323 NA
ATOM     19  C   LIG    1       29.826 -19.038   6.796  0.00  0.00    +0.120 C 
ATOM     20  C   LIG    1       31.363 -19.146   6.923  0.00  0.00    +0.103 C 
ENDBRANCH   1  18
BRANCH   7  21
ATOM     21  C   LIG    1       21.547 -20.637   4.508  0.00  0.00    +0.342 C 
ATOM     22  O   LIG    1       20.888 -19.726   4.041  0.00  0.00    -0.245 OA
BRANCH  21  23
ATOM     23  O   LIG    1       21.022 -21.861   4.742  0.00  0.00    -0.477 OA
ATOM     24  H   LIG    1       21.521 -22.601   4.318  0.00  0.00    +0.295 HD
ENDBRANCH  21  23
ENDBRANCH   7  21
BRANCH  11  25
ATOM     25  C   LIG    1       25.891 -18.763   3.259  0.00  0.00    +0.155 C 
BRANCH  25  26
ATOM     26  C   LIG    1       25.481 -17.300   3.413  0.00  0.00    +0.235 C 
ATOM     27  F   LIG    1       26.591 -16.509   3.387  0.00  0.00    -0.247 F 
ENDBRANCH  25  26
ENDBRANCH  11  25
TORSDOF 5
ENDMDL
MODEL 2
REMARK VINA RESULT:      -6.9      1.983      3.688
REMARK  Name = *****
REMARK                            x       y       z     vdW  Elec       q    Type
REMARK                         _______ _______ _______ _____ _____    ______ ____
ROOT
ATOM      1  C   LIG    1       28.707 -19.596   7.169  0.00  0.00    +0.103 C 
ATOM      2  C   LIG    1       27.626 -20.482   7.428  0.00  0.00    +0.171 C 
ATOM      3  F   LIG    1       27.655 -21.197   8.564  0.00  0.00    -0.201 F 
ATOM      4  C   LIG    1       26.540 -20.695   6.545  0.00  0.00    +0.090 C 
ATOM      5  C   LIG    1       26.567 -19.971   5.337  0.00  0.00    +0.052 C 
ATOM      6  C   LIG    1       25.489 -20.149   4.338  0.00  0.00    +0.203 C 
ATOM      7  C   LIG    1       24.395 -21.083   4.649  0.00  0.00    +0.122 C 
ATOM      8  C   LIG    1       24.462 -21.714   5.827  0.00  0.00    +0.105 C 
ATOM      9  O   LIG    1       25.498 -19.545   3.268  0.00  0.00    -0.286 OA
ATOM     10  C   LIG    1       27.598 -19.083   5.038  0.00  0.00    +0.054 C 
ATOM     11  N   LIG    1       25.453 -21.571   6.794  0.00  0.00    -0.341 NA
ATOM     12  C   LIG    1       28.629 -18.894   5.949  0.00  0.00    +0.148 C 
ATOM     13  F   LIG    1       29.550 -17.975   5.619  0.00  0.00    -0.203 F 
ENDROOT
BRANCH   1  18
ATOM     14  C   LIG    1       32.533 -17.106   9.145  0.00  0.00    +0.105 C 
ATOM     15  N   LIG    1       32.058 -18.369   9.702  0.00  0.00    -0.302 NA
ATOM     16  C   LIG    1       30.652 -18.279  10.146  0.00  0.00    +0.103 C 
ATOM     17  C   LIG    1       29.588 -18.250   9.023  0.00  0.00    +0.120 C 
ATOM     18  N   LIG    1       29.774 -19.376   8.073  0.00  0.00    -0.323 NA
ATOM     19  C   LIG    1       31.165 -19.467   7.575  0.00  0.00    +0.120 C 
ATOM     20  C   LIG    1       32.183 -19.479   8.738  0.00  0.00    +0.103 C 
ENDBRANCH   1  18
BRANCH   7  21
ATOM     21  C   LIG    1       23.263 -21.361   3.739  0.00  0.00    +0.342 C 
ATOM     22  O   LIG    1       22.108 -21.075   3.998  0.00  0.00    -0.245 OA
BRANCH  21  23
ATOM     23  O   LIG    1       23.616 -21.957   2.579  0.00  0.00    -0.477 OA
ATOM     24  H   LIG    1       24.253 -21.434   2.034  0.00  0.00    +0.295 HD
ENDBRANCH  21  23
ENDBRANCH   7  21
BRANCH  11  25
ATOM     25  C   LIG    1       25.440 -22.461   7.982  0.00  0.00    +0.155 C 
BRANCH  25  26
ATOM     26  C   LIG    1       25.546 -23.933   7.589  0.00  0.00    +0.235 C 
ATOM     27  F   LIG    1       26.516 -24.087   6.645  0.00  0.00    -0.247 F 
ENDBRANCH  25  26
ENDBRANCH  11  25
TORSDOF 5
ENDMDL
MODEL 3
REMARK VINA RESULT:      -6.3     10.214     13.009
REMARK  Name = *****
REMARK                            x       y       z     vdW  Elec       q    Type
REMARK                         _______ _______ _______ _____ _____    ______ ____
ROOT
ATOM      1  C   LIG    1       21.477 -28.292  13.210  0.00  0.00    +0.103 C 
ATOM      2  C   LIG    1       22.787 -27.809  13.474  0.00  0.00    +0.171 C 
ATOM      3  F   LIG    1       22.930 -26.845  14.397  0.00  0.00    -0.201 F 
ATOM      4  C   LIG    1       23.950 -28.246  12.794  0.00  0.00    +0.090 C 
ATOM      5  C   LIG    1       23.759 -29.218  11.794  0.00  0.00    +0.052 C 
ATOM      6  C   LIG    1       24.912 -29.716  11.009  0.00  0.00    +0.203 C 
ATOM      7  C   LIG    1       26.249 -29.181  11.314  0.00  0.00    +0.122 C 
ATOM      8  C   LIG    1       26.320 -28.266  12.289  0.00  0.00    +0.105 C 
ATOM      9  O   LIG    1       24.772 -30.550  10.117  0.00  0.00    -0.286 OA
ATOM     10  C   LIG    1       22.498 -29.732  11.503  0.00  0.00    +0.054 C 
ATOM     11  N   LIG    1       25.264 -27.777  13.051  0.00  0.00    -0.341 NA
ATOM     12  C   LIG    1       21.392 -29.286  12.214  0.00  0.00    +0.148 C 
ATOM     13  F   LIG    1       20.222 -29.875  11.921  0.00  0.00    -0.203 F 
ENDROOT
BRANCH   1  18
ATOM     14  C   LIG    1       16.600 -27.776  14.043  0.00  0.00    +0.105 C 
ATOM     15  N   LIG    1       17.604 -27.279  14.979  0.00  0.00    -0.302 NA
ATOM     16  C   LIG    1       18.454 -28.369  15.500  0.00  0.00    +0.103 C 
ATOM     17  C   LIG    1       19.501 -28.942  14.514  0.00  0.00    +0.120 C 
ATOM     18  N   LIG    1       20.327 -27.863  13.916  0.00  0.00    -0.323 NA
ATOM     19  C   LIG    1       19.502 -26.775  13.344  0.00  0.00    +0.120 C 
ATOM     20  C   LIG    1       18.468 -26.251  14.367  0.00  0.00    +0.103 C 
ENDBRANCH   1  18
BRANCH   7  21
ATOM     21  C   LIG    1       27.482 -29.582  10.604  0.00  0.00    +0.342 C 
ATOM     22  O   LIG    1       28.500 -29.933  11.173  0.00  0.00    -0.245 OA
BRANCH  21  23
ATOM     23  O   LIG    1       27.387 -29.539   9.256  0.00  0.00    -0.477 OA
ATOM     24  H   LIG    1       28.251 -29.640   8.788  0.00  0.00    +0.295 HD
ENDBRANCH  21  23
ENDBRANCH   7  21
BRANCH  11  25
ATOM     25  C   LIG    1       25.508 -26.656  13.993  0.00  0.00    +0.155 C 
BRANCH  25  26
ATOM     26  C   LIG    1       25.911 -25.377  13.262  0.00  0.00    +0.235 C 
ATOM     27  F   LIG    1       25.067 -24.365  13.612  0.00  0.00    -0.247 F 
ENDBRANCH  25  26
ENDBRANCH  11  25
TORSDOF 5
ENDMDL
MODEL 4
REMARK VINA RESULT:      -6.3     10.251     12.223
REMARK  Name = *****
REMARK                            x       y       z     vdW  Elec       q    Type
REMARK                         _______ _______ _______ _____ _____    ______ ____
ROOT
ATOM      1  C   LIG    1       25.402 -29.274  11.486  0.00  0.00    +0.103 C 
ATOM      2  C   LIG    1       24.641 -28.661  12.518  0.00  0.00    +0.171 C 
ATOM      3  F   LIG    1       23.490 -29.247  12.885  0.00  0.00    -0.201 F 
ATOM      4  C   LIG    1       24.993 -27.446  13.154  0.00  0.00    +0.090 C 
ATOM      5  C   LIG    1       26.177 -26.829  12.707  0.00  0.00    +0.052 C 
ATOM      6  C   LIG    1       26.612 -25.541  13.293  0.00  0.00    +0.203 C 
ATOM      7  C   LIG    1       25.786 -24.941  14.354  0.00  0.00    +0.122 C 
ATOM      8  C   LIG    1       24.685 -25.613  14.709  0.00  0.00    +0.105 C 
ATOM      9  O   LIG    1       27.631 -24.970  12.909  0.00  0.00    -0.286 OA
ATOM     10  C   LIG    1       26.965 -27.393  11.707  0.00  0.00    +0.054 C 
ATOM     11  N   LIG    1       24.245 -26.826  14.188  0.00  0.00    -0.341 NA
ATOM     12  C   LIG    1       26.586 -28.598  11.130  0.00  0.00    +0.148 C 
ATOM     13  F   LIG    1       27.430 -29.110  10.220  0.00  0.00    -0.203 F 
ENDROOT
BRANCH   1  18
ATOM     14  C   LIG    1       22.485 -33.189  10.536  0.00  0.00    +0.105 C 
ATOM     15  N   LIG    1       23.771 -33.001   9.872  0.00  0.00    -0.302 NA
ATOM     16  C   LIG    1       23.808 -31.747   9.093  0.00  0.00    +0.103 C 
ATOM     17  C   LIG    1       23.919 -30.441   9.916  0.00  0.00    +0.120 C 
ATOM     18  N   LIG    1       25.049 -30.503  10.877  0.00  0.00    -0.323 NA
ATOM     19  C   LIG    1       25.016 -31.729  11.705  0.00  0.00    +0.120 C 
ATOM     20  C   LIG    1       24.892 -32.999  10.832  0.00  0.00    +0.103 C 
ENDBRANCH   1  18
BRANCH   7  21
ATOM     21  C   LIG    1       26.098 -23.657  15.017  0.00  0.00    +0.342 C 
ATOM     22  O   LIG    1       25.250 -22.927  15.500  0.00  0.00    -0.245 OA
BRANCH  21  23
ATOM     23  O   LIG    1       27.415 -23.356  15.057  0.00  0.00    -0.477 OA
ATOM     24  H   LIG    1       27.937 -23.911  15.686  0.00  0.00    +0.295 HD
ENDBRANCH  21  23
ENDBRANCH   7  21
BRANCH  11  25
ATOM     25  C   LIG    1       22.922 -27.356  14.602  0.00  0.00    +0.155 C 
BRANCH  25  26
ATOM     26  C   LIG    1       21.775 -26.516  14.044  0.00  0.00    +0.235 C 
ATOM     27  F   LIG    1       21.634 -26.763  12.711  0.00  0.00    -0.247 F 
ENDBRANCH  25  26
ENDBRANCH  11  25
TORSDOF 5
ENDMDL
MODEL 5
REMARK VINA RESULT:      -6.2     10.552     13.304
REMARK  Name = *****
REMARK                            x       y       z     vdW  Elec       q    Type
REMARK                         _______ _______ _______ _____ _____    ______ ____
ROOT
ATOM      1  C   LIG    1       21.754 -28.836  12.495  0.00  0.00    +0.103 C 
ATOM      2  C   LIG    1       23.117 -29.235  12.467  0.00  0.00    +0.171 C 
ATOM      3  F   LIG    1       23.398 -30.495  12.099  0.00  0.00    -0.201 F 
ATOM      4  C   LIG    1       24.200 -28.404  12.844  0.00  0.00    +0.090 C 
ATOM      5  C   LIG    1       23.867 -27.106  13.277  0.00  0.00    +0.052 C 
ATOM      6  C   LIG    1       24.929 -26.174  13.720  0.00  0.00    +0.203 C 
ATOM      7  C   LIG    1       26.326 -26.634  13.679  0.00  0.00    +0.122 C 
ATOM      8  C   LIG    1       26.532 -27.883  13.244  0.00  0.00    +0.105 C 
ATOM      9  O   LIG    1       24.666 -25.041  14.121  0.00  0.00    -0.286 OA
ATOM     10  C   LIG    1       22.548 -26.661  13.315  0.00  0.00    +0.054 C 
ATOM     11  N   LIG    1       25.565 -28.787  12.815  0.00  0.00    -0.341 NA
ATOM     12  C   LIG    1       21.524 -27.509  12.913  0.00  0.00    +0.148 C 
ATOM     13  F   LIG    1       20.287 -26.988  12.915  0.00  0.00    -0.203 F 
ENDROOT
BRANCH   1  18
ATOM     14  C   LIG    1       19.474 -33.164  11.594  0.00  0.00    +0.105 C 
ATOM     15  N   LIG    1       18.798 -31.882  11.426  0.00  0.00    -0.302 NA
ATOM     16  C   LIG    1       18.736 -31.125  12.693  0.00  0.00    +0.103 C 
ATOM     17  C   LIG    1       20.064 -30.485  13.166  0.00  0.00    +0.120 C 
ATOM     18  N   LIG    1       20.684 -29.671  12.091  0.00  0.00    -0.323 NA
ATOM     19  C   LIG    1       20.801 -30.417  10.817  0.00  0.00    +0.120 C 
ATOM     20  C   LIG    1       19.450 -31.043  10.402  0.00  0.00    +0.103 C 
ENDBRANCH   1  18
BRANCH   7  21
ATOM     21  C   LIG    1       27.480 -25.812  14.099  0.00  0.00    +0.342 C 
ATOM     22  O   LIG    1       28.152 -26.053  15.087  0.00  0.00    -0.245 OA
BRANCH  21  23
ATOM     23  O   LIG    1       27.743 -24.765  13.286  0.00  0.00    -0.477 OA
ATOM     24  H   LIG    1       27.709 -23.886  13.737  0.00  0.00    +0.295 HD
ENDBRANCH  21  23
ENDBRANCH   7  21
BRANCH  11  25
ATOM     25  C   LIG    1       25.964 -30.182  12.502  0.00  0.00    +0.155 C 
BRANCH  25  26
ATOM     26  C   LIG    1       26.526 -30.308  11.088  0.00  0.00    +0.235 C 
ATOM     27  F   LIG    1       25.799 -29.531  10.236  0.00  0.00    -0.247 F 
ENDBRANCH  25  26
ENDBRANCH  11  25
TORSDOF 5
ENDMDL
MODEL 6
REMARK VINA RESULT:      -6.1      9.710     10.987
REMARK  Name = *****
REMARK                            x       y       z     vdW  Elec       q    Type
REMARK                         _______ _______ _______ _____ _____    ______ ____
ROOT
ATOM      1  C   LIG    1       25.694 -29.834   9.485  0.00  0.00    +0.103 C 
ATOM      2  C   LIG    1       25.510 -29.341   8.165  0.00  0.00    +0.171 C 
ATOM      3  F   LIG    1       25.259 -28.031   8.010  0.00  0.00    -0.201 F 
ATOM      4  C   LIG    1       25.530 -30.148   7.001  0.00  0.00    +0.090 C 
ATOM      5  C   LIG    1       25.741 -31.526   7.202  0.00  0.00    +0.052 C 
ATOM      6  C   LIG    1       25.750 -32.454   6.049  0.00  0.00    +0.203 C 
ATOM      7  C   LIG    1       25.549 -31.897   4.702  0.00  0.00    +0.122 C 
ATOM      8  C   LIG    1       25.364 -30.573   4.622  0.00  0.00    +0.105 C 
ATOM      9  O   LIG    1       25.913 -33.663   6.197  0.00  0.00    -0.286 OA
ATOM     10  C   LIG    1       25.937 -32.059   8.474  0.00  0.00    +0.054 C 
ATOM     11  N   LIG    1       25.354 -29.668   5.678  0.00  0.00    -0.341 NA
ATOM     12  C   LIG    1       25.929 -31.221   9.581  0.00  0.00    +0.148 C 
ATOM     13  F   LIG    1       26.190 -31.799  10.764  0.00  0.00    -0.203 F 
ENDROOT
BRANCH   1  18
ATOM     14  C   LIG    1       26.604 -28.691  14.239  0.00  0.00    +0.105 C 
ATOM     15  N   LIG    1       26.017 -27.731  13.310  0.00  0.00    -0.302 NA
ATOM     16  C   LIG    1       26.915 -27.451  12.171  0.00  0.00    +0.103 C 
ATOM     17  C   LIG    1       27.033 -28.572  11.109  0.00  0.00    +0.120 C 
ATOM     18  N   LIG    1       25.696 -29.010  10.636  0.00  0.00    -0.323 NA
ATOM     19  C   LIG    1       24.784 -29.341  11.755  0.00  0.00    +0.120 C 
ATOM     20  C   LIG    1       24.716 -28.194  12.788  0.00  0.00    +0.103 C 
ENDBRANCH   1  18
BRANCH   7  21
ATOM     21  C   LIG    1       25.525 -32.709   3.466  0.00  0.00    +0.342 C 
ATOM     22  O   LIG    1       26.434 -32.725   2.656  0.00  0.00    -0.245 OA
BRANCH  21  23
ATOM     23  O   LIG    1       24.406 -33.450   3.309  0.00  0.00    -0.477 OA
ATOM     24  H   LIG    1       24.573 -34.368   2.984  0.00  0.00    +0.295 HD
ENDBRANCH  21  23
ENDBRANCH   7  21
BRANCH  11  25
ATOM     25  C   LIG    1       24.990 -28.253   5.417  0.00  0.00    +0.155 C 
BRANCH  25  26
ATOM     26  C   LIG    1       26.203 -27.423   5.000  0.00  0.00    +0.235 C 
ATOM     27  F   LIG    1       25.900 -26.700   3.885  0.00  0.00    -0.247 F 
ENDBRANCH  25  26
ENDBRANCH  11  25
TORSDOF 5
ENDMDL
MODEL 7
REMARK VINA RESULT:      -6.0      7.917     10.096
REMARK  Name = *****
REMARK                            x       y       z     vdW  Elec       q    Type
REMARK                         _______ _______ _______ _____ _____    ______ ____
ROOT
ATOM      1  C   LIG    1       25.241 -26.584   6.557  0.00  0.00    +0.103 C 
ATOM      2  C   LIG    1       25.628 -27.513   7.561  0.00  0.00    +0.171 C 
ATOM      3  F   LIG    1       25.982 -27.031   8.763  0.00  0.00    -0.201 F 
ATOM      4  C   LIG    1       25.709 -28.912   7.363  0.00  0.00    +0.090 C 
ATOM      5  C   LIG    1       25.385 -29.380   6.075  0.00  0.00    +0.052 C 
ATOM      6  C   LIG    1       25.468 -30.825   5.766  0.00  0.00    +0.203 C 
ATOM      7  C   LIG    1       25.880 -31.748   6.836  0.00  0.00    +0.122 C 
ATOM      8  C   LIG    1       26.159 -31.200   8.025  0.00  0.00    +0.105 C 
ATOM      9  O   LIG    1       25.210 -31.259   4.645  0.00  0.00    -0.286 OA
ATOM     10  C   LIG    1       24.991 -28.513   5.059  0.00  0.00    +0.054 C 
ATOM     11  N   LIG    1       26.088 -29.850   8.358  0.00  0.00    -0.341 NA
ATOM     12  C   LIG    1       24.907 -27.150   5.311  0.00  0.00    +0.148 C 
ATOM     13  F   LIG    1       24.457 -26.388   4.301  0.00  0.00    -0.203 F 
ENDROOT
BRANCH   1  18
ATOM     14  C   LIG    1       24.738 -21.812   5.244  0.00  0.00    +0.105 C 
ATOM     15  N   LIG    1       24.826 -22.227   6.640  0.00  0.00    -0.302 NA
ATOM     16  C   LIG    1       23.723 -23.138   7.012  0.00  0.00    +0.103 C 
ATOM     17  C   LIG    1       23.823 -24.582   6.463  0.00  0.00    +0.120 C 
ATOM     18  N   LIG    1       25.142 -25.188   6.777  0.00  0.00    -0.323 NA
ATOM     19  C   LIG    1       26.270 -24.318   6.376  0.00  0.00    +0.120 C 
ATOM     20  C   LIG    1       26.111 -22.888   6.941  0.00  0.00    +0.103 C 
ENDBRANCH   1  18
BRANCH   7  21
ATOM     21  C   LIG    1       26.013 -33.210   6.661  0.00  0.00    +0.342 C 
ATOM     22  O   LIG    1       27.041 -33.822   6.893  0.00  0.00    -0.245 OA
BRANCH  21  23
ATOM     23  O   LIG    1       24.889 -33.823   6.229  0.00  0.00    -0.477 OA
ATOM     24  H   LIG    1       24.878 -34.799   6.383  0.00  0.00    +0.295 HD
ENDBRANCH  21  23
ENDBRANCH   7  21
BRANCH  11  25
ATOM     25  C   LIG    1       26.573 -29.405   9.688  0.00  0.00    +0.155 C 
BRANCH  25  26
ATOM     26  C   LIG    1       25.540 -29.662  10.783  0.00  0.00    +0.235 C 
ATOM     27  F   LIG    1       24.286 -29.586  10.256  0.00  0.00    -0.247 F 
ENDBRANCH  25  26
ENDBRANCH  11  25
TORSDOF 5
ENDMDL
MODEL 8
REMARK VINA RESULT:      -5.8     10.452     13.022
REMARK  Name = *****
REMARK                            x       y       z     vdW  Elec       q    Type
REMARK                         _______ _______ _______ _____ _____    ______ ____
ROOT
ATOM      1  C   LIG    1       21.818 -28.975  12.537  0.00  0.00    +0.103 C 
ATOM      2  C   LIG    1       23.236 -28.892  12.556  0.00  0.00    +0.171 C 
ATOM      3  F   LIG    1       23.808 -28.076  13.456  0.00  0.00    -0.201 F 
ATOM      4  C   LIG    1       24.088 -29.579  11.657  0.00  0.00    +0.090 C 
ATOM      5  C   LIG    1       23.455 -30.384  10.690  0.00  0.00    +0.052 C 
ATOM      6  C   LIG    1       24.261 -31.119   9.689  0.00  0.00    +0.203 C 
ATOM      7  C   LIG    1       25.726 -30.996   9.745  0.00  0.00    +0.122 C 
ATOM      8  C   LIG    1       26.226 -30.211  10.708  0.00  0.00    +0.105 C 
ATOM      9  O   LIG    1       23.734 -31.813   8.822  0.00  0.00    -0.286 OA
ATOM     10  C   LIG    1       22.069 -30.508  10.634  0.00  0.00    +0.054 C 
ATOM     11  N   LIG    1       25.504 -29.510  11.669  0.00  0.00    -0.341 NA
ATOM     12  C   LIG    1       21.279 -29.829  11.553  0.00  0.00    +0.148 C 
ATOM     13  F   LIG    1       19.957 -30.051  11.476  0.00  0.00    -0.203 F 
ENDROOT
BRANCH   1  18
ATOM     14  C   LIG    1       17.489 -27.425  14.435  0.00  0.00    +0.105 C 
ATOM     15  N   LIG    1       18.766 -27.137  15.079  0.00  0.00    -0.302 NA
ATOM     16  C   LIG    1       19.479 -28.372  15.462  0.00  0.00    +0.103 C 
ATOM     17  C   LIG    1       20.122 -29.171  14.301  0.00  0.00    +0.120 C 
ATOM     18  N   LIG    1       20.981 -28.301  13.458  0.00  0.00    -0.323 NA
ATOM     19  C   LIG    1       20.279 -27.072  13.021  0.00  0.00    +0.120 C 
ATOM     20  C   LIG    1       19.648 -26.325  14.218  0.00  0.00    +0.103 C 
ENDBRANCH   1  18
BRANCH   7  21
ATOM     21  C   LIG    1       26.648 -31.666   8.804  0.00  0.00    +0.342 C 
ATOM     22  O   LIG    1       27.400 -32.568   9.128  0.00  0.00    -0.245 OA
BRANCH  21  23
ATOM     23  O   LIG    1       26.585 -31.201   7.536  0.00  0.00    -0.477 OA
ATOM     24  H   LIG    1       26.000 -31.730   6.941  0.00  0.00    +0.295 HD
ENDBRANCH  21  23
ENDBRANCH   7  21
BRANCH  11  25
ATOM     25  C   LIG    1       26.219 -28.573  12.572  0.00  0.00    +0.155 C 
BRANCH  25  26
ATOM     26  C   LIG    1       26.912 -27.455  11.796  0.00  0.00    +0.235 C 
ATOM     27  F   LIG    1       26.627 -26.254  12.373  0.00  0.00    -0.247 F 
ENDBRANCH  25  26
ENDBRANCH  11  25
TORSDOF 5
ENDMDL
MODEL 9
REMARK VINA RESULT:      -5.5      6.459      8.500
REMARK  Name = *****
REMARK                            x       y       z     vdW  Elec       q    Type
REMARK                         _______ _______ _______ _____ _____    ______ ____
ROOT
ATOM      1  C   LIG    1       25.468 -24.711   6.103  0.00  0.00    +0.103 C 
ATOM      2  C   LIG    1       25.707 -25.711   7.085  0.00  0.00    +0.171 C 
ATOM      3  F   LIG    1       26.167 -25.319   8.284  0.00  0.00    -0.201 F 
ATOM      4  C   LIG    1       25.534 -27.099   6.868  0.00  0.00    +0.090 C 
ATOM      5  C   LIG    1       25.103 -27.480   5.583  0.00  0.00    +0.052 C 
ATOM      6  C   LIG    1       24.921 -28.912   5.253  0.00  0.00    +0.203 C 
ATOM      7  C   LIG    1       25.187 -29.911   6.301  0.00  0.00    +0.122 C 
ATOM      8  C   LIG    1       25.585 -29.441   7.489  0.00  0.00    +0.105 C 
ATOM      9  O   LIG    1       24.564 -29.274   4.133  0.00  0.00    -0.286 OA
ATOM     10  C   LIG    1       24.845 -26.540   4.588  0.00  0.00    +0.054 C 
ATOM     11  N   LIG    1       25.763 -28.106   7.840  0.00  0.00    -0.341 NA
ATOM     12  C   LIG    1       25.010 -25.188   4.858  0.00  0.00    +0.148 C 
ATOM     13  F   LIG    1       24.680 -24.342   3.871  0.00  0.00    -0.203 F 
ENDROOT
BRANCH   1  18
ATOM     14  C   LIG    1       25.846 -20.608   8.890  0.00  0.00    +0.105 C 
ATOM     15  N   LIG    1       25.962 -20.571   7.435  0.00  0.00    -0.302 NA
ATOM     16  C   LIG    1       27.093 -21.391   6.955  0.00  0.00    +0.103 C 
ATOM     17  C   LIG    1       26.888 -22.925   7.008  0.00  0.00    +0.120 C 
ATOM     18  N   LIG    1       25.622 -23.324   6.343  0.00  0.00    -0.323 NA
ATOM     19  C   LIG    1       24.461 -22.550   6.836  0.00  0.00    +0.120 C 
ATOM     20  C   LIG    1       24.726 -21.028   6.771  0.00  0.00    +0.103 C 
ENDBRANCH   1  18
BRANCH   7  21
ATOM     21  C   LIG    1       25.055 -31.370   6.104  0.00  0.00    +0.342 C 
ATOM     22  O   LIG    1       25.918 -32.170   6.419  0.00  0.00    -0.245 OA
BRANCH  21  23
ATOM     23  O   LIG    1       23.883 -31.753   5.552  0.00  0.00    -0.477 OA
ATOM     24  H   LIG    1       23.836 -31.622   4.574  0.00  0.00    +0.295 HD
ENDBRANCH  21  23
ENDBRANCH   7  21
BRANCH  11  25
ATOM     25  C   LIG    1       26.349 -27.776   9.163  0.00  0.00    +0.155 C 
BRANCH  25  26
ATOM     26  C   LIG    1       26.261 -28.954  10.132  0.00  0.00    +0.235 C 
ATOM     27  F   LIG    1       25.515 -28.600  11.216  0.00  0.00    -0.247 F 
ENDBRANCH  25  26
ENDBRANCH  11  25
TORSDOF 5
ENDMDL
