MODEL 1
REMARK VINA RESULT:      -5.8      0.000      0.000
REMARK  Name = *****
REMARK                            x       y       z     vdW  Elec       q    Type
REMARK                         _______ _______ _______ _____ _____    ______ ____
ROOT
ATOM      1 CL   LIG    1       22.295 -20.726   4.919  0.00  0.00    -0.119 Cl
ATOM      2  C   LIG    1       23.894 -21.435   5.354  0.00  0.00    +0.119 C 
ATOM      3  C   LIG    1       23.793 -22.245   6.662  0.00  0.00    +0.119 C 
ATOM      4 CL   LIG    1       23.093 -21.278   8.009  0.00  0.00    -0.119 Cl
ATOM      5  C   LIG    1       25.155 -22.839   7.079  0.00  0.00    +0.119 C 
ATOM      6 CL   LIG    1       25.544 -24.210   5.960  0.00  0.00    -0.119 Cl
ATOM      7  C   LIG    1       26.326 -21.838   7.048  0.00  0.00    +0.119 C 
ATOM      8 CL   LIG    1       26.276 -20.767   8.494  0.00  0.00    -0.119 Cl
ATOM      9  C   LIG    1       26.366 -21.038   5.730  0.00  0.00    +0.119 C 
ATOM     10 CL   LIG    1       27.726 -19.853   5.745  0.00  0.00    -0.119 Cl
ATOM     11  C   LIG    1       25.017 -20.377   5.379  0.00  0.00    +0.119 C 
ATOM     12 CL   LIG    1       25.139 -19.593   3.752  0.00  0.00    -0.119 Cl
ENDROOT
TORSDOF 0
ENDMDL
MODEL 2
REMARK VINA RESULT:      -5.5      0.809      2.249
REMARK  Name = *****
REMARK                            x       y       z     vdW  Elec       q    Type
REMARK                         _______ _______ _______ _____ _____    ______ ____
ROOT
ATOM      1 CL   LIG    1       25.170 -19.290   3.511  0.00  0.00    -0.119 Cl
ATOM      2  C   LIG    1       25.354 -20.718   4.595  0.00  0.00    +0.119 C 
ATOM      3  C   LIG    1       23.986 -21.372   4.873  0.00  0.00    +0.119 C 
ATOM      4 CL   LIG    1       22.784 -20.192   5.507  0.00  0.00    -0.119 Cl
ATOM      5  C   LIG    1       24.107 -22.580   5.825  0.00  0.00    +0.119 C 
ATOM      6 CL   LIG    1       24.863 -23.950   4.914  0.00  0.00    -0.119 Cl
ATOM      7  C   LIG    1       24.945 -22.316   7.091  0.00  0.00    +0.119 C 
ATOM      8 CL   LIG    1       23.990 -21.378   8.294  0.00  0.00    -0.119 Cl
ATOM      9  C   LIG    1       26.292 -21.639   6.760  0.00  0.00    +0.119 C 
ATOM     10 CL   LIG    1       27.229 -21.313   8.265  0.00  0.00    -0.119 Cl
ATOM     11  C   LIG    1       26.139 -20.380   5.880  0.00  0.00    +0.119 C 
ATOM     12 CL   LIG    1       27.780 -19.757   5.436  0.00  0.00    -0.119 Cl
ENDROOT
TORSDOF 0
ENDMDL
MODEL 3
REMARK VINA RESULT:      -5.5      1.018      1.733
REMARK  Name = *****
REMARK                            x       y       z     vdW  Elec       q    Type
REMARK                         _______ _______ _______ _____ _____    ______ ____
ROOT
ATOM      1 CL   LIG    1       24.653 -19.634   4.180  0.00  0.00    -0.119 Cl
ATOM      2  C   LIG    1       25.372 -20.950   5.180  0.00  0.00    +0.119 C 
ATOM      3  C   LIG    1       24.272 -21.725   5.933  0.00  0.00    +0.119 C 
ATOM      4 CL   LIG    1       23.215 -20.639   6.903  0.00  0.00    -0.119 Cl
ATOM      5  C   LIG    1       24.859 -22.840   6.823  0.00  0.00    +0.119 C 
ATOM      6 CL   LIG    1       25.430 -24.184   5.751  0.00  0.00    -0.119 Cl
ATOM      7  C   LIG    1       26.035 -22.395   7.714  0.00  0.00    +0.119 C 
ATOM      8 CL   LIG    1       25.432 -21.480   9.141  0.00  0.00    -0.119 Cl
ATOM      9  C   LIG    1       27.094 -21.603   6.918  0.00  0.00    +0.119 C 
ATOM     10 CL   LIG    1       28.435 -21.068   7.998  0.00  0.00    -0.119 Cl
ATOM     11  C   LIG    1       26.495 -20.436   6.104  0.00  0.00    +0.119 C 
ATOM     12 CL   LIG    1       27.796 -19.674   5.103  0.00  0.00    -0.119 Cl
ENDROOT
TORSDOF 0
ENDMDL
MODEL 4
REMARK VINA RESULT:      -4.7      1.259      3.621
REMARK  Name = *****
REMARK                            x       y       z     vdW  Elec       q    Type
REMARK                         _______ _______ _______ _____ _____    ______ ____
ROOT
ATOM      1 CL   LIG    1       28.152 -21.489   8.020  0.00  0.00    -0.119 Cl
ATOM      2  C   LIG    1       26.558 -21.064   7.295  0.00  0.00    +0.119 C 
ATOM      3  C   LIG    1       25.510 -22.152   7.604  0.00  0.00    +0.119 C 
ATOM      4 CL   LIG    1       26.063 -23.791   7.107  0.00  0.00    -0.119 Cl
ATOM      5  C   LIG    1       24.141 -21.831   6.970  0.00  0.00    +0.119 C 
ATOM      6 CL   LIG    1       23.384 -20.476   7.903  0.00  0.00    -0.119 Cl
ATOM      7  C   LIG    1       24.203 -21.424   5.485  0.00  0.00    +0.119 C 
ATOM      8 CL   LIG    1       24.421 -22.875   4.443  0.00  0.00    -0.119 Cl
ATOM      9  C   LIG    1       25.283 -20.352   5.226  0.00  0.00    +0.119 C 
ATOM     10 CL   LIG    1       25.352 -19.927   3.475  0.00  0.00    -0.119 Cl
ATOM     11  C   LIG    1       26.667 -20.735   5.791  0.00  0.00    +0.119 C 
ATOM     12 CL   LIG    1       27.811 -19.352   5.560  0.00  0.00    -0.119 Cl
ENDROOT
TORSDOF 0
ENDMDL
MODEL 5
REMARK VINA RESULT:      -4.6      1.398      4.195
REMARK  Name = *****
REMARK                            x       y       z     vdW  Elec       q    Type
REMARK                         _______ _______ _______ _____ _____    ______ ____
ROOT
ATOM      1 CL   LIG    1       28.171 -22.178   7.474  0.00  0.00    -0.119 Cl
ATOM      2  C   LIG    1       26.595 -22.070   6.606  0.00  0.00    +0.119 C 
ATOM      3  C   LIG    1       25.962 -20.677   6.795  0.00  0.00    +0.119 C 
ATOM      4 CL   LIG    1       25.810 -20.228   8.531  0.00  0.00    -0.119 Cl
ATOM      5  C   LIG    1       24.595 -20.564   6.089  0.00  0.00    +0.119 C 
ATOM      6 CL   LIG    1       24.883 -20.473   4.303  0.00  0.00    -0.119 Cl
ATOM      7  C   LIG    1       23.632 -21.734   6.368  0.00  0.00    +0.119 C 
ATOM      8 CL   LIG    1       22.881 -21.557   7.994  0.00  0.00    -0.119 Cl
ATOM      9  C   LIG    1       24.321 -23.103   6.189  0.00  0.00    +0.119 C 
ATOM     10 CL   LIG    1       23.175 -24.446   6.557  0.00  0.00    -0.119 Cl
ATOM     11  C   LIG    1       25.642 -23.226   6.977  0.00  0.00    +0.119 C 
ATOM     12 CL   LIG    1       26.431 -24.806   6.580  0.00  0.00    -0.119 Cl
ENDROOT
TORSDOF 0
ENDMDL
MODEL 6
REMARK VINA RESULT:      -4.3      1.126      3.975
REMARK  Name = *****
REMARK                            x       y       z     vdW  Elec       q    Type
REMARK                         _______ _______ _______ _____ _____    ______ ____
ROOT
ATOM      1 CL   LIG    1       27.839 -19.795   5.702  0.00  0.00    -0.119 Cl
ATOM      2  C   LIG    1       26.326 -20.773   5.761  0.00  0.00    +0.119 C 
ATOM      3  C   LIG    1       25.599 -20.735   4.401  0.00  0.00    +0.119 C 
ATOM      4 CL   LIG    1       25.295 -19.053   3.839  0.00  0.00    -0.119 Cl
ATOM      5  C   LIG    1       24.283 -21.539   4.429  0.00  0.00    +0.119 C 
ATOM      6 CL   LIG    1       24.693 -23.303   4.449  0.00  0.00    -0.119 Cl
ATOM      7  C   LIG    1       23.374 -21.237   5.636  0.00  0.00    +0.119 C 
ATOM      8 CL   LIG    1       22.498 -19.684   5.391  0.00  0.00    -0.119 Cl
ATOM      9  C   LIG    1       24.154 -21.263   6.967  0.00  0.00    +0.119 C 
ATOM     10 CL   LIG    1       23.068 -20.870   8.351  0.00  0.00    -0.119 Cl
ATOM     11  C   LIG    1       25.420 -20.380   6.946  0.00  0.00    +0.119 C 
ATOM     12 CL   LIG    1       26.329 -20.601   8.496  0.00  0.00    -0.119 Cl
ENDROOT
TORSDOF 0
ENDMDL
MODEL 7
REMARK VINA RESULT:      -4.1      1.506      3.325
REMARK  Name = *****
REMARK                            x       y       z     vdW  Elec       q    Type
REMARK                         _______ _______ _______ _____ _____    ______ ____
ROOT
ATOM      1 CL   LIG    1       24.340 -21.445   3.222  0.00  0.00    -0.119 Cl
ATOM      2  C   LIG    1       24.364 -21.807   4.987  0.00  0.00    +0.119 C 
ATOM      3  C   LIG    1       24.832 -20.577   5.790  0.00  0.00    +0.119 C 
ATOM      4 CL   LIG    1       26.413 -19.945   5.208  0.00  0.00    -0.119 Cl
ATOM      5  C   LIG    1       24.892 -20.865   7.304  0.00  0.00    +0.119 C 
ATOM      6 CL   LIG    1       23.197 -20.951   7.936  0.00  0.00    -0.119 Cl
ATOM      7  C   LIG    1       25.619 -22.171   7.679  0.00  0.00    +0.119 C 
ATOM      8 CL   LIG    1       27.402 -21.950   7.581  0.00  0.00    -0.119 Cl
ATOM      9  C   LIG    1       25.132 -23.365   6.830  0.00  0.00    +0.119 C 
ATOM     10 CL   LIG    1       26.028 -24.867   7.270  0.00  0.00    -0.119 Cl
ATOM     11  C   LIG    1       25.165 -23.086   5.313  0.00  0.00    +0.119 C 
ATOM     12 CL   LIG    1       24.440 -24.489   4.430  0.00  0.00    -0.119 Cl
ENDROOT
TORSDOF 0
ENDMDL
MODEL 8
REMARK VINA RESULT:      -4.1      1.523      3.886
REMARK  Name = *****
REMARK                            x       y       z     vdW  Elec       q    Type
REMARK                         _______ _______ _______ _____ _____    ______ ____
ROOT
ATOM      1 CL   LIG    1       28.632 -19.168   5.555  0.00  0.00    -0.119 Cl
ATOM      2  C   LIG    1       27.248 -19.933   6.420  0.00  0.00    +0.119 C 
ATOM      3  C   LIG    1       27.750 -20.796   7.595  0.00  0.00    +0.119 C 
ATOM      4 CL   LIG    1       28.975 -22.008   7.076  0.00  0.00    -0.119 Cl
ATOM      5  C   LIG    1       26.589 -21.490   8.338  0.00  0.00    +0.119 C 
ATOM      6 CL   LIG    1       25.701 -20.239   9.302  0.00  0.00    -0.119 Cl
ATOM      7  C   LIG    1       25.579 -22.205   7.420  0.00  0.00    +0.119 C 
ATOM      8 CL   LIG    1       26.246 -23.778   6.855  0.00  0.00    -0.119 Cl
ATOM      9  C   LIG    1       25.128 -21.307   6.249  0.00  0.00    +0.119 C 
ATOM     10 CL   LIG    1       23.976 -22.188   5.178  0.00  0.00    -0.119 Cl
ATOM     11  C   LIG    1       26.308 -20.695   5.464  0.00  0.00    +0.119 C 
ATOM     12 CL   LIG    1       25.667 -19.554   4.214  0.00  0.00    -0.119 Cl
ENDROOT
TORSDOF 0
ENDMDL
MODEL 9
REMARK VINA RESULT:      -4.1      1.476      3.618
REMARK  Name = *****
REMARK                            x       y       z     vdW  Elec       q    Type
REMARK                         _______ _______ _______ _____ _____    ______ ____
ROOT
ATOM      1 CL   LIG    1       25.828 -24.575   7.455  0.00  0.00    -0.119 Cl
ATOM      2  C   LIG    1       25.862 -23.050   6.495  0.00  0.00    +0.119 C 
ATOM      3  C   LIG    1       25.906 -21.821   7.425  0.00  0.00    +0.119 C 
ATOM      4 CL   LIG    1       24.570 -21.831   8.630  0.00  0.00    -0.119 Cl
ATOM      5  C   LIG    1       25.905 -20.497   6.633  0.00  0.00    +0.119 C 
ATOM      6 CL   LIG    1       27.532 -20.293   5.864  0.00  0.00    -0.119 Cl
ATOM      7  C   LIG    1       24.832 -20.412   5.530  0.00  0.00    +0.119 C 
ATOM      8 CL   LIG    1       23.219 -20.061   6.248  0.00  0.00    -0.119 Cl
ATOM      9  C   LIG    1       24.814 -21.676   4.644  0.00  0.00    +0.119 C 
ATOM     10 CL   LIG    1       23.524 -21.557   3.390  0.00  0.00    -0.119 Cl
ATOM     11  C   LIG    1       24.724 -22.986   5.456  0.00  0.00    +0.119 C 
ATOM     12 CL   LIG    1       24.857 -24.397   4.331  0.00  0.00    -0.119 Cl
ENDROOT
TORSDOF 0
ENDMDL
