MODEL 1
REMARK VINA RESULT:      -1.5      0.000      0.000
REMARK  Name = *****
REMARK                            x       y       z     vdW  Elec       q    Type
REMARK                         _______ _______ _______ _____ _____    ______ ____
ROOT
ATOM      1  N   LIG    1       23.018 -16.175   4.345  0.00  0.00    -0.297 NA
ATOM      2  C   LIG    1       22.645 -16.888   5.581  0.00  0.00    +0.100 C 
ATOM      3  C   LIG    1       22.184 -18.358   5.339  0.00  0.00    +0.100 C 
ATOM      4  N   LIG    1       22.652 -18.950   4.052  0.00  0.00    -0.299 NA
ATOM      5  C   LIG    1       22.054 -18.093   2.999  0.00  0.00    +0.100 C 
ATOM      6  C   LIG    1       22.102 -16.548   3.255  0.00  0.00    +0.100 C 
ENDROOT
BRANCH   1   7
ATOM      7  C   LIG    1       23.246 -14.728   4.480  0.00  0.00    +0.120 C 
BRANCH   7   8
ATOM      8  C   LIG    1       24.009 -13.941   3.336  0.00  0.00    +0.162 C 
BRANCH   8   9
ATOM      9  C   LIG    1       25.530 -13.824   3.525  0.00  0.00    -0.018 A 
ATOM     10  C   LIG    1       26.430 -13.822   2.446  0.00  0.00    +0.006 A 
ATOM     11  C   LIG    1       27.813 -13.683   2.647  0.00  0.00    +0.000 A 
ATOM     12  C   LIG    1       28.323 -13.498   3.928  0.00  0.00    +0.000 A 
ATOM     13  C   LIG    1       27.457 -13.522   5.016  0.00  0.00    +0.000 A 
ATOM     14  C   LIG    1       26.083 -13.728   4.819  0.00  0.00    +0.006 A 
ENDBRANCH   8   9
BRANCH   8  15
ATOM     15  O   LIG    1       23.406 -12.655   3.049  0.00  0.00    -0.371 OA
BRANCH  15  17
ATOM     16  C   LIG    1       23.503 -11.467   5.160  0.00  0.00    +0.034 C 
ATOM     17  C   LIG    1       24.032 -11.574   3.745  0.00  0.00    +0.157 C 
ENDBRANCH  15  17
ENDBRANCH   8  15
ENDBRANCH   7   8
ENDBRANCH   1   7
BRANCH   4  18
ATOM     18  C   LIG    1       24.142 -18.957   4.013  0.00  0.00    +0.095 C 
BRANCH  18  19
ATOM     19  C   LIG    1       24.852 -20.330   4.117  0.00  0.00    +0.071 C 
ATOM     20  C   LIG    1       24.013 -21.546   3.753  0.00  0.00    +0.017 C 
BRANCH  19  21
ATOM     21  C   LIG    1       25.277 -20.526   5.617  0.00  0.00    +0.167 C 
ATOM     22  O   LIG    1       24.496 -20.827   6.494  0.00  0.00    -0.292 OA
BRANCH  21  23
ATOM     23  C   LIG    1       26.732 -20.446   5.951  0.00  0.00    +0.018 A 
ATOM     24  C   LIG    1       27.485 -19.382   5.436  0.00  0.00    +0.011 A 
ATOM     25  C   LIG    1       28.840 -19.259   5.732  0.00  0.00    +0.001 A 
ATOM     26  C   LIG    1       29.470 -20.211   6.535  0.00  0.00    +0.000 A 
ATOM     27  C   LIG    1       28.736 -21.278   7.047  0.00  0.00    +0.001 A 
ATOM     28  C   LIG    1       27.379 -21.404   6.763  0.00  0.00    +0.011 A 
ENDBRANCH  21  23
ENDBRANCH  19  21
ENDBRANCH  18  19
ENDBRANCH   4  18
TORSDOF 9
ENDMDL
MODEL 2
REMARK VINA RESULT:      -1.4      2.096      5.128
REMARK  Name = *****
REMARK                            x       y       z     vdW  Elec       q    Type
REMARK                         _______ _______ _______ _____ _____    ______ ____
ROOT
ATOM      1  N   LIG    1       26.086 -18.056   3.690  0.00  0.00    -0.297 NA
ATOM      2  C   LIG    1       25.249 -18.978   2.900  0.00  0.00    +0.100 C 
ATOM      3  C   LIG    1       25.110 -20.396   3.535  0.00  0.00    +0.100 C 
ATOM      4  N   LIG    1       25.391 -20.448   4.999  0.00  0.00    -0.299 NA
ATOM      5  C   LIG    1       26.802 -20.012   5.132  0.00  0.00    +0.100 C 
ATOM      6  C   LIG    1       27.231 -18.783   4.261  0.00  0.00    +0.100 C 
ENDROOT
BRANCH   1   7
ATOM      7  C   LIG    1       26.436 -16.785   3.038  0.00  0.00    +0.120 C 
BRANCH   7   8
ATOM      8  C   LIG    1       26.569 -15.466   3.905  0.00  0.00    +0.162 C 
BRANCH   8   9
ATOM      9  C   LIG    1       25.566 -14.352   3.561  0.00  0.00    -0.018 A 
ATOM     10  C   LIG    1       24.600 -13.895   4.472  0.00  0.00    +0.006 A 
ATOM     11  C   LIG    1       23.716 -12.855   4.141  0.00  0.00    +0.000 A 
ATOM     12  C   LIG    1       23.808 -12.219   2.907  0.00  0.00    +0.000 A 
ATOM     13  C   LIG    1       24.740 -12.669   1.977  0.00  0.00    +0.000 A 
ATOM     14  C   LIG    1       25.577 -13.752   2.285  0.00  0.00    +0.006 A 
ENDBRANCH   8   9
BRANCH   8  15
ATOM     15  O   LIG    1       27.928 -14.965   3.950  0.00  0.00    -0.371 OA
BRANCH  15  17
ATOM     16  C   LIG    1       29.193 -12.908   3.746  0.00  0.00    +0.034 C 
ATOM     17  C   LIG    1       28.012 -13.607   4.387  0.00  0.00    +0.157 C 
ENDBRANCH  15  17
ENDBRANCH   8  15
ENDBRANCH   7   8
ENDBRANCH   1   7
BRANCH   4  18
ATOM     18  C   LIG    1       24.441 -19.559   5.727  0.00  0.00    +0.095 C 
BRANCH  18  19
ATOM     19  C   LIG    1       23.212 -20.224   6.396  0.00  0.00    +0.071 C 
ATOM     20  C   LIG    1       23.459 -21.569   7.061  0.00  0.00    +0.017 C 
BRANCH  19  21
ATOM     21  C   LIG    1       22.148 -20.484   5.269  0.00  0.00    +0.167 C 
ATOM     22  O   LIG    1       21.654 -21.571   5.061  0.00  0.00    -0.292 OA
BRANCH  21  23
ATOM     23  C   LIG    1       21.643 -19.308   4.495  0.00  0.00    +0.018 A 
ATOM     24  C   LIG    1       20.509 -19.470   3.686  0.00  0.00    +0.011 A 
ATOM     25  C   LIG    1       19.995 -18.399   2.958  0.00  0.00    +0.001 A 
ATOM     26  C   LIG    1       20.618 -17.152   3.014  0.00  0.00    +0.000 A 
ATOM     27  C   LIG    1       21.750 -16.980   3.807  0.00  0.00    +0.001 A 
ATOM     28  C   LIG    1       22.266 -18.042   4.544  0.00  0.00    +0.011 A 
ENDBRANCH  21  23
ENDBRANCH  19  21
ENDBRANCH  18  19
ENDBRANCH   4  18
TORSDOF 9
ENDMDL
MODEL 3
REMARK VINA RESULT:      -0.7      2.406      5.409
REMARK  Name = *****
REMARK                            x       y       z     vdW  Elec       q    Type
REMARK                         _______ _______ _______ _____ _____    ______ ____
ROOT
ATOM      1  N   LIG    1       26.109 -19.211   4.297  0.00  0.00    -0.297 NA
ATOM      2  C   LIG    1       25.313 -20.034   3.367  0.00  0.00    +0.100 C 
ATOM      3  C   LIG    1       24.546 -21.200   4.065  0.00  0.00    +0.100 C 
ATOM      4  N   LIG    1       24.327 -21.008   5.528  0.00  0.00    -0.299 NA
ATOM      5  C   LIG    1       25.690 -20.931   6.110  0.00  0.00    +0.100 C 
ATOM      6  C   LIG    1       26.731 -20.069   5.319  0.00  0.00    +0.100 C 
ENDROOT
BRANCH   1   7
ATOM      7  C   LIG    1       27.025 -18.242   3.676  0.00  0.00    +0.120 C 
BRANCH   7   8
ATOM      8  C   LIG    1       27.707 -17.122   4.566  0.00  0.00    +0.162 C 
BRANCH   8   9
ATOM      9  C   LIG    1       27.437 -15.676   4.119  0.00  0.00    -0.018 A 
ATOM     10  C   LIG    1       27.759 -14.565   4.914  0.00  0.00    +0.006 A 
ATOM     11  C   LIG    1       27.528 -13.254   4.468  0.00  0.00    +0.000 A 
ATOM     12  C   LIG    1       27.012 -13.024   3.196  0.00  0.00    +0.000 A 
ATOM     13  C   LIG    1       26.661 -14.107   2.398  0.00  0.00    +0.000 A 
ATOM     14  C   LIG    1       26.830 -15.417   2.873  0.00  0.00    +0.006 A 
ENDBRANCH   8   9
BRANCH   8  15
ATOM     15  O   LIG    1       29.121 -17.362   4.772  0.00  0.00    -0.371 OA
BRANCH  15  17
ATOM     16  C   LIG    1       29.474 -18.354   6.956  0.00  0.00    +0.034 C 
ATOM     17  C   LIG    1       29.389 -18.586   5.461  0.00  0.00    +0.157 C 
ENDBRANCH  15  17
ENDBRANCH   8  15
ENDBRANCH   7   8
ENDBRANCH   1   7
BRANCH   4  18
ATOM     18  C   LIG    1       23.529 -19.771   5.761  0.00  0.00    +0.095 C 
BRANCH  18  19
ATOM     19  C   LIG    1       22.020 -19.820   5.417  0.00  0.00    +0.071 C 
ATOM     20  C   LIG    1       21.512 -21.126   4.824  0.00  0.00    +0.017 C 
BRANCH  19  21
ATOM     21  C   LIG    1       21.749 -18.715   4.333  0.00  0.00    +0.167 C 
ATOM     22  O   LIG    1       21.009 -18.880   3.388  0.00  0.00    -0.292 OA
BRANCH  21  23
ATOM     23  C   LIG    1       22.349 -17.362   4.545  0.00  0.00    +0.018 A 
ATOM     24  C   LIG    1       21.764 -16.505   5.488  0.00  0.00    +0.011 A 
ATOM     25  C   LIG    1       22.297 -15.241   5.728  0.00  0.00    +0.001 A 
ATOM     26  C   LIG    1       23.415 -14.805   5.015  0.00  0.00    +0.000 A 
ATOM     27  C   LIG    1       24.000 -15.643   4.069  0.00  0.00    +0.001 A 
ATOM     28  C   LIG    1       23.479 -16.912   3.828  0.00  0.00    +0.011 A 
ENDBRANCH  21  23
ENDBRANCH  19  21
ENDBRANCH  18  19
ENDBRANCH   4  18
TORSDOF 9
ENDMDL
MODEL 4
REMARK VINA RESULT:      -0.5      1.602      2.809
REMARK  Name = *****
REMARK                            x       y       z     vdW  Elec       q    Type
REMARK                         _______ _______ _______ _____ _____    ______ ____
ROOT
ATOM      1  N   LIG    1       22.555 -17.903   4.222  0.00  0.00    -0.297 NA
ATOM      2  C   LIG    1       22.837 -18.212   5.637  0.00  0.00    +0.100 C 
ATOM      3  C   LIG    1       22.385 -19.642   6.066  0.00  0.00    +0.100 C 
ATOM      4  N   LIG    1       22.223 -20.604   4.938  0.00  0.00    -0.299 NA
ATOM      5  C   LIG    1       21.163 -20.015   4.084  0.00  0.00    +0.100 C 
ATOM      6  C   LIG    1       21.253 -18.472   3.836  0.00  0.00    +0.100 C 
ENDROOT
BRANCH   1   7
ATOM      7  C   LIG    1       22.752 -16.503   3.817  0.00  0.00    +0.120 C 
BRANCH   7   8
ATOM      8  C   LIG    1       24.170 -15.822   4.002  0.00  0.00    +0.162 C 
BRANCH   8   9
ATOM      9  C   LIG    1       24.172 -14.286   3.938  0.00  0.00    -0.018 A 
ATOM     10  C   LIG    1       24.440 -13.577   2.755  0.00  0.00    +0.006 A 
ATOM     11  C   LIG    1       24.405 -12.174   2.719  0.00  0.00    +0.000 A 
ATOM     12  C   LIG    1       24.056 -11.449   3.854  0.00  0.00    +0.000 A 
ATOM     13  C   LIG    1       23.810 -12.124   5.045  0.00  0.00    +0.000 A 
ATOM     14  C   LIG    1       23.912 -13.524   5.095  0.00  0.00    +0.006 A 
ENDBRANCH   8   9
BRANCH   8  15
ATOM     15  O   LIG    1       25.178 -16.393   3.132  0.00  0.00    -0.371 OA
BRANCH  15  17
ATOM     16  C   LIG    1       27.248 -15.156   3.377  0.00  0.00    +0.034 C 
ATOM     17  C   LIG    1       26.481 -16.416   3.720  0.00  0.00    +0.157 C 
ENDBRANCH  15  17
ENDBRANCH   8  15
ENDBRANCH   7   8
ENDBRANCH   1   7
BRANCH   4  18
ATOM     18  C   LIG    1       23.520 -20.763   4.220  0.00  0.00    +0.095 C 
BRANCH  18  19
ATOM     19  C   LIG    1       24.768 -21.110   5.070  0.00  0.00    +0.071 C 
ATOM     20  C   LIG    1       24.623 -20.932   6.574  0.00  0.00    +0.017 C 
BRANCH  19  21
ATOM     21  C   LIG    1       25.923 -20.143   4.625  0.00  0.00    +0.167 C 
ATOM     22  O   LIG    1       25.822 -19.373   3.694  0.00  0.00    -0.292 OA
BRANCH  21  23
ATOM     23  C   LIG    1       27.161 -20.095   5.462  0.00  0.00    +0.018 A 
ATOM     24  C   LIG    1       27.469 -21.196   6.274  0.00  0.00    +0.011 A 
ATOM     25  C   LIG    1       28.619 -21.201   7.059  0.00  0.00    +0.001 A 
ATOM     26  C   LIG    1       29.473 -20.097   7.059  0.00  0.00    +0.000 A 
ATOM     27  C   LIG    1       29.174 -18.993   6.264  0.00  0.00    +0.001 A 
ATOM     28  C   LIG    1       28.031 -18.982   5.469  0.00  0.00    +0.011 A 
ENDBRANCH  21  23
ENDBRANCH  19  21
ENDBRANCH  18  19
ENDBRANCH   4  18
TORSDOF 9
ENDMDL
MODEL 5
REMARK VINA RESULT:      -0.1      2.125      4.873
REMARK  Name = *****
REMARK                            x       y       z     vdW  Elec       q    Type
REMARK                         _______ _______ _______ _____ _____    ______ ____
ROOT
ATOM      1  N   LIG    1       27.035 -17.123   4.113  0.00  0.00    -0.297 NA
ATOM      2  C   LIG    1       26.397 -18.166   3.288  0.00  0.00    +0.100 C 
ATOM      3  C   LIG    1       26.792 -19.618   3.702  0.00  0.00    +0.100 C 
ATOM      4  N   LIG    1       27.304 -19.746   5.097  0.00  0.00    -0.299 NA
ATOM      5  C   LIG    1       28.523 -18.901   5.134  0.00  0.00    +0.100 C 
ATOM      6  C   LIG    1       28.421 -17.509   4.424  0.00  0.00    +0.100 C 
ENDROOT
BRANCH   1   7
ATOM      7  C   LIG    1       26.881 -15.741   3.634  0.00  0.00    +0.120 C 
BRANCH   7   8
ATOM      8  C   LIG    1       26.216 -14.652   4.575  0.00  0.00    +0.162 C 
BRANCH   8   9
ATOM      9  C   LIG    1       25.419 -13.558   3.846  0.00  0.00    -0.018 A 
ATOM     10  C   LIG    1       25.489 -13.368   2.456  0.00  0.00    +0.006 A 
ATOM     11  C   LIG    1       24.726 -12.379   1.814  0.00  0.00    +0.000 A 
ATOM     12  C   LIG    1       23.841 -11.589   2.541  0.00  0.00    +0.000 A 
ATOM     13  C   LIG    1       23.771 -11.740   3.922  0.00  0.00    +0.000 A 
ATOM     14  C   LIG    1       24.584 -12.683   4.571  0.00  0.00    +0.006 A 
ENDBRANCH   8   9
BRANCH   8  15
ATOM     15  O   LIG    1       27.157 -14.087   5.521  0.00  0.00    -0.371 OA
BRANCH  15  17
ATOM     16  C   LIG    1       28.706 -13.205   3.878  0.00  0.00    +0.034 C 
ATOM     17  C   LIG    1       27.788 -12.897   5.042  0.00  0.00    +0.157 C 
ENDBRANCH  15  17
ENDBRANCH   8  15
ENDBRANCH   7   8
ENDBRANCH   1   7
BRANCH   4  18
ATOM     18  C   LIG    1       26.260 -19.295   6.061  0.00  0.00    +0.095 C 
BRANCH  18  19
ATOM     19  C   LIG    1       25.097 -20.273   6.361  0.00  0.00    +0.071 C 
ATOM     20  C   LIG    1       25.477 -21.569   7.062  0.00  0.00    +0.017 C 
BRANCH  19  21
ATOM     21  C   LIG    1       24.467 -20.690   4.984  0.00  0.00    +0.167 C 
ATOM     22  O   LIG    1       24.928 -21.563   4.280  0.00  0.00    -0.292 OA
BRANCH  21  23
ATOM     23  C   LIG    1       23.176 -20.054   4.580  0.00  0.00    +0.018 A 
ATOM     24  C   LIG    1       21.988 -20.783   4.731  0.00  0.00    +0.011 A 
ATOM     25  C   LIG    1       20.761 -20.226   4.381  0.00  0.00    +0.001 A 
ATOM     26  C   LIG    1       20.702 -18.934   3.858  0.00  0.00    +0.000 A 
ATOM     27  C   LIG    1       21.875 -18.201   3.695  0.00  0.00    +0.001 A 
ATOM     28  C   LIG    1       23.106 -18.747   4.049  0.00  0.00    +0.011 A 
ENDBRANCH  21  23
ENDBRANCH  19  21
ENDBRANCH  18  19
ENDBRANCH   4  18
TORSDOF 9
ENDMDL
MODEL 6
REMARK VINA RESULT:       1.5      2.336      4.926
REMARK  Name = *****
REMARK                            x       y       z     vdW  Elec       q    Type
REMARK                         _______ _______ _______ _____ _____    ______ ____
ROOT
ATOM      1  N   LIG    1       23.522 -19.716   5.484  0.00  0.00    -0.297 NA
ATOM      2  C   LIG    1       23.518 -20.395   6.793  0.00  0.00    +0.100 C 
ATOM      3  C   LIG    1       24.538 -21.572   6.890  0.00  0.00    +0.100 C 
ATOM      4  N   LIG    1       25.652 -21.507   5.900  0.00  0.00    -0.299 NA
ATOM      5  C   LIG    1       24.989 -21.572   4.575  0.00  0.00    +0.100 C 
ATOM      6  C   LIG    1       23.695 -20.705   4.407  0.00  0.00    +0.100 C 
ENDROOT
BRANCH   1   7
ATOM      7  C   LIG    1       22.436 -18.751   5.255  0.00  0.00    +0.120 C 
BRANCH   7   8
ATOM      8  C   LIG    1       22.561 -17.686   4.089  0.00  0.00    +0.162 C 
BRANCH   8   9
ATOM      9  C   LIG    1       22.755 -16.232   4.550  0.00  0.00    -0.018 A 
ATOM     10  C   LIG    1       22.216 -15.739   5.750  0.00  0.00    +0.006 A 
ATOM     11  C   LIG    1       22.434 -14.415   6.161  0.00  0.00    +0.000 A 
ATOM     12  C   LIG    1       23.234 -13.565   5.403  0.00  0.00    +0.000 A 
ATOM     13  C   LIG    1       23.759 -14.020   4.198  0.00  0.00    +0.000 A 
ATOM     14  C   LIG    1       23.485 -15.324   3.756  0.00  0.00    +0.006 A 
ENDBRANCH   8   9
BRANCH   8  15
ATOM     15  O   LIG    1       21.495 -17.800   3.116  0.00  0.00    -0.371 OA
BRANCH  15  17
ATOM     16  C   LIG    1       19.364 -18.956   3.096  0.00  0.00    +0.034 C 
ATOM     17  C   LIG    1       20.195 -17.849   3.710  0.00  0.00    +0.157 C 
ENDBRANCH  15  17
ENDBRANCH   8  15
ENDBRANCH   7   8
ENDBRANCH   1   7
BRANCH   4  18
ATOM     18  C   LIG    1       26.430 -20.251   6.096  0.00  0.00    +0.095 C 
BRANCH  18  19
ATOM     19  C   LIG    1       27.947 -20.295   5.785  0.00  0.00    +0.071 C 
ATOM     20  C   LIG    1       28.829 -20.932   6.848  0.00  0.00    +0.017 C 
BRANCH  19  21
ATOM     21  C   LIG    1       28.440 -18.810   5.641  0.00  0.00    +0.167 C 
ATOM     22  O   LIG    1       29.447 -18.391   6.170  0.00  0.00    -0.292 OA
BRANCH  21  23
ATOM     23  C   LIG    1       27.689 -17.907   4.716  0.00  0.00    +0.018 A 
ATOM     24  C   LIG    1       28.049 -16.553   4.656  0.00  0.00    +0.011 A 
ATOM     25  C   LIG    1       27.385 -15.678   3.799  0.00  0.00    +0.001 A 
ATOM     26  C   LIG    1       26.338 -16.138   3.001  0.00  0.00    +0.000 A 
ATOM     27  C   LIG    1       25.964 -17.479   3.057  0.00  0.00    +0.001 A 
ATOM     28  C   LIG    1       26.627 -18.363   3.904  0.00  0.00    +0.011 A 
ENDBRANCH  21  23
ENDBRANCH  19  21
ENDBRANCH  18  19
ENDBRANCH   4  18
TORSDOF 9
ENDMDL
