MODEL 1
REMARK VINA RESULT:      -6.0      0.000      0.000
REMARK  Name = *****
REMARK                            x       y       z     vdW  Elec       q    Type
REMARK                         _______ _______ _______ _____ _____    ______ ____
ROOT
ATOM      1  C   LIG    1       23.030 -19.396   4.006  0.00  0.00    +0.058 C 
ATOM      2  C   LIG    1       23.100 -17.881   4.366  0.00  0.00    +0.056 C 
ATOM      3  C   LIG    1       24.373 -17.266   3.885  0.00  0.00    -0.018 C 
ATOM      4  C   LIG    1       25.472 -18.020   3.533  0.00  0.00    +0.020 C 
ATOM      5  N   LIG    1       26.477 -17.173   3.160  0.00  0.00    -0.358 NA
ATOM      6  H   LIG    1       27.398 -17.450   2.849  0.00  0.00    +0.166 HD
ATOM      7  C   LIG    1       26.044 -15.867   3.258  0.00  0.00    +0.047 C 
ATOM      8  C   LIG    1       26.717 -14.674   2.971  0.00  0.00    +0.027 C 
ATOM      9  C   LIG    1       26.020 -13.477   3.164  0.00  0.00    +0.015 C 
ATOM     10  C   LIG    1       24.704 -13.470   3.636  0.00  0.00    +0.037 C 
ATOM     11  C   LIG    1       24.041 -14.679   3.906  0.00  0.00    +0.023 C 
ATOM     12  C   LIG    1       25.554 -19.503   3.523  0.00  0.00    +0.055 C 
ATOM     13  C   LIG    1       24.724 -15.897   3.717  0.00  0.00    +0.004 C 
ATOM     14  C   LIG    1       24.380 -20.100   4.320  0.00  0.00    +0.025 C 
ENDROOT
BRANCH  10  15
ATOM     15  C   LIG    1       24.032 -12.155   3.818  0.00  0.00    +0.242 C 
ATOM     16  O   LIG    1       23.737 -11.729   4.929  0.00  0.00    -0.270 OA
ATOM     17  N   LIG    1       23.712 -11.447   2.693  0.00  0.00    -0.325 N 
ATOM     18  H   LIG    1       23.163 -10.608   2.834  0.00  0.00    +0.145 HD
ATOM     19  H   LIG    1       23.717 -11.857   1.771  0.00  0.00    +0.145 HD
ENDBRANCH  10  15
BRANCH   1  21
ATOM     20  C   LIG    1       22.449 -21.245   5.496  0.00  0.00    +0.101 C 
ATOM     21  N   LIG    1       21.958 -20.108   4.729  0.00  0.00    -0.316 NA
ATOM     22  H   LIG    1       21.502 -19.455   5.368  0.00  0.00    +0.122 HD
ENDBRANCH   1  21
TORSDOF 2
ENDMDL
MODEL 2
REMARK VINA RESULT:      -5.9      2.942      6.613
REMARK  Name = *****
REMARK                            x       y       z     vdW  Elec       q    Type
REMARK                         _______ _______ _______ _____ _____    ______ ____
ROOT
ATOM      1  C   LIG    1       26.239 -14.047   2.774  0.00  0.00    +0.058 C 
ATOM      2  C   LIG    1       26.161 -15.535   3.230  0.00  0.00    +0.056 C 
ATOM      3  C   LIG    1       24.793 -15.884   3.719  0.00  0.00    -0.018 C 
ATOM      4  C   LIG    1       23.868 -14.925   4.075  0.00  0.00    +0.020 C 
ATOM      5  N   LIG    1       22.733 -15.555   4.498  0.00  0.00    -0.358 NA
ATOM      6  H   LIG    1       21.888 -15.100   4.815  0.00  0.00    +0.166 HD
ATOM      7  C   LIG    1       22.902 -16.921   4.416  0.00  0.00    +0.047 C 
ATOM      8  C   LIG    1       22.012 -17.956   4.726  0.00  0.00    +0.027 C 
ATOM      9  C   LIG    1       22.458 -19.269   4.541  0.00  0.00    +0.015 C 
ATOM     10  C   LIG    1       23.748 -19.539   4.074  0.00  0.00    +0.037 C 
ATOM     11  C   LIG    1       24.622 -18.486   3.756  0.00  0.00    +0.023 C 
ATOM     12  C   LIG    1       24.050 -13.453   3.987  0.00  0.00    +0.055 C 
ATOM     13  C   LIG    1       24.192 -17.155   3.933  0.00  0.00    +0.004 C 
ATOM     14  C   LIG    1       25.542 -13.117   3.806  0.00  0.00    +0.025 C 
ENDROOT
BRANCH  10  15
ATOM     15  C   LIG    1       24.149 -20.962   3.907  0.00  0.00    +0.242 C 
ATOM     16  O   LIG    1       24.760 -21.567   4.780  0.00  0.00    -0.270 OA
ATOM     17  N   LIG    1       23.848 -21.569   2.719  0.00  0.00    -0.325 N 
ATOM     18  H   LIG    1       24.221 -22.500   2.586  0.00  0.00    +0.145 HD
ATOM     19  H   LIG    1       23.567 -21.053   1.899  0.00  0.00    +0.145 HD
ENDBRANCH  10  15
BRANCH   1  21
ATOM     20  C   LIG    1       28.314 -13.330   3.851  0.00  0.00    +0.101 C 
ATOM     21  N   LIG    1       27.626 -13.576   2.590  0.00  0.00    -0.316 NA
ATOM     22  H   LIG    1       28.146 -14.281   2.066  0.00  0.00    +0.122 HD
ENDBRANCH   1  21
TORSDOF 2
ENDMDL
MODEL 3
REMARK VINA RESULT:      -5.6      2.183      6.161
REMARK  Name = *****
REMARK                            x       y       z     vdW  Elec       q    Type
REMARK                         _______ _______ _______ _____ _____    ______ ____
ROOT
ATOM      1  C   LIG    1       24.725 -13.522   4.158  0.00  0.00    +0.058 C 
ATOM      2  C   LIG    1       23.876 -14.820   4.010  0.00  0.00    +0.056 C 
ATOM      3  C   LIG    1       24.741 -16.010   3.750  0.00  0.00    -0.018 C 
ATOM      4  C   LIG    1       26.045 -15.895   3.318  0.00  0.00    +0.020 C 
ATOM      5  N   LIG    1       26.557 -17.150   3.151  0.00  0.00    -0.358 NA
ATOM      6  H   LIG    1       27.495 -17.370   2.845  0.00  0.00    +0.166 HD
ATOM      7  C   LIG    1       25.601 -18.089   3.477  0.00  0.00    +0.047 C 
ATOM      8  C   LIG    1       25.676 -19.487   3.472  0.00  0.00    +0.027 C 
ATOM      9  C   LIG    1       24.535 -20.197   3.859  0.00  0.00    +0.015 C 
ATOM     10  C   LIG    1       23.358 -19.537   4.227  0.00  0.00    +0.037 C 
ATOM     11  C   LIG    1       23.307 -18.133   4.237  0.00  0.00    +0.023 C 
ATOM     12  C   LIG    1       26.790 -14.629   3.098  0.00  0.00    +0.055 C 
ATOM     13  C   LIG    1       24.446 -17.398   3.853  0.00  0.00    +0.004 C 
ATOM     14  C   LIG    1       25.810 -13.444   3.047  0.00  0.00    +0.025 C 
ENDROOT
BRANCH  10  15
ATOM     15  C   LIG    1       22.186 -20.363   4.621  0.00  0.00    +0.242 C 
ATOM     16  O   LIG    1       21.039 -20.030   4.348  0.00  0.00    -0.270 OA
ATOM     17  N   LIG    1       22.427 -21.499   5.344  0.00  0.00    -0.325 N 
ATOM     18  H   LIG    1       21.613 -21.989   5.692  0.00  0.00    +0.145 HD
ATOM     19  H   LIG    1       23.314 -21.683   5.790  0.00  0.00    +0.145 HD
ENDBRANCH  10  15
BRANCH   1  21
ATOM     20  C   LIG    1       23.927 -11.667   2.779  0.00  0.00    +0.101 C 
ATOM     21  N   LIG    1       23.910 -12.293   4.096  0.00  0.00    -0.316 NA
ATOM     22  H   LIG    1       22.945 -12.525   4.334  0.00  0.00    +0.122 HD
ENDBRANCH   1  21
TORSDOF 2
ENDMDL
MODEL 4
REMARK VINA RESULT:      -3.7      2.492      3.175
REMARK  Name = *****
REMARK                            x       y       z     vdW  Elec       q    Type
REMARK                         _______ _______ _______ _____ _____    ______ ____
ROOT
ATOM      1  C   LIG    1       24.308 -19.151   3.964  0.00  0.00    +0.058 C 
ATOM      2  C   LIG    1       25.287 -17.996   3.592  0.00  0.00    +0.056 C 
ATOM      3  C   LIG    1       24.699 -16.660   3.911  0.00  0.00    -0.018 C 
ATOM      4  C   LIG    1       23.349 -16.480   4.129  0.00  0.00    +0.020 C 
ATOM      5  N   LIG    1       23.124 -15.155   4.373  0.00  0.00    -0.358 NA
ATOM      6  H   LIG    1       22.227 -14.735   4.570  0.00  0.00    +0.166 HD
ATOM      7  C   LIG    1       24.317 -14.465   4.324  0.00  0.00    +0.047 C 
ATOM      8  C   LIG    1       24.575 -13.103   4.522  0.00  0.00    +0.027 C 
ATOM      9  C   LIG    1       25.902 -12.674   4.412  0.00  0.00    +0.015 C 
ATOM     10  C   LIG    1       26.932 -13.569   4.104  0.00  0.00    +0.037 C 
ATOM     11  C   LIG    1       26.654 -14.934   3.922  0.00  0.00    +0.023 C 
ATOM     12  C   LIG    1       22.310 -17.541   4.134  0.00  0.00    +0.055 C 
ATOM     13  C   LIG    1       25.324 -15.388   4.030  0.00  0.00    +0.004 C 
ATOM     14  C   LIG    1       22.865 -18.824   3.489  0.00  0.00    +0.025 C 
ENDROOT
BRANCH  10  15
ATOM     15  C   LIG    1       28.316 -13.035   4.000  0.00  0.00    +0.242 C 
ATOM     16  O   LIG    1       29.068 -13.361   3.089  0.00  0.00    -0.270 OA
ATOM     17  N   LIG    1       28.744 -12.191   4.988  0.00  0.00    -0.325 N 
ATOM     18  H   LIG    1       29.719 -11.923   4.956  0.00  0.00    +0.145 HD
ATOM     19  H   LIG    1       28.256 -12.086   5.865  0.00  0.00    +0.145 HD
ENDBRANCH  10  15
BRANCH   1  21
ATOM     20  C   LIG    1       24.466 -21.570   4.279  0.00  0.00    +0.101 C 
ATOM     21  N   LIG    1       24.705 -20.448   3.380  0.00  0.00    -0.316 NA
ATOM     22  H   LIG    1       24.173 -20.599   2.521  0.00  0.00    +0.122 HD
ENDBRANCH   1  21
TORSDOF 2
ENDMDL
MODEL 5
REMARK VINA RESULT:      -3.2      1.875      2.267
REMARK  Name = *****
REMARK                            x       y       z     vdW  Elec       q    Type
REMARK                         _______ _______ _______ _____ _____    ______ ____
ROOT
ATOM      1  C   LIG    1       25.921 -19.613   3.817  0.00  0.00    +0.058 C 
ATOM      2  C   LIG    1       25.335 -18.174   3.711  0.00  0.00    +0.056 C 
ATOM      3  C   LIG    1       26.401 -17.139   3.867  0.00  0.00    -0.018 C 
ATOM      4  C   LIG    1       27.633 -17.425   4.415  0.00  0.00    +0.020 C 
ATOM      5  N   LIG    1       28.371 -16.275   4.442  0.00  0.00    -0.358 NA
ATOM      6  H   LIG    1       29.317 -16.189   4.787  0.00  0.00    +0.166 HD
ATOM      7  C   LIG    1       27.635 -15.238   3.909  0.00  0.00    +0.047 C 
ATOM      8  C   LIG    1       27.981 -13.895   3.722  0.00  0.00    +0.027 C 
ATOM      9  C   LIG    1       27.022 -13.054   3.148  0.00  0.00    +0.015 C 
ATOM     10  C   LIG    1       25.759 -13.534   2.784  0.00  0.00    +0.037 C 
ATOM     11  C   LIG    1       25.436 -14.888   2.969  0.00  0.00    +0.023 C 
ATOM     12  C   LIG    1       28.105 -18.757   4.871  0.00  0.00    +0.055 C 
ATOM     13  C   LIG    1       26.388 -15.753   3.544  0.00  0.00    +0.004 C 
ATOM     14  C   LIG    1       26.911 -19.718   5.011  0.00  0.00    +0.025 C 
ENDROOT
BRANCH  10  15
ATOM     15  C   LIG    1       24.792 -12.576   2.183  0.00  0.00    +0.242 C 
ATOM     16  O   LIG    1       25.135 -11.458   1.815  0.00  0.00    -0.270 OA
ATOM     17  N   LIG    1       23.486 -12.970   2.093  0.00  0.00    -0.325 N 
ATOM     18  H   LIG    1       22.828 -12.267   1.780  0.00  0.00    +0.145 HD
ATOM     19  H   LIG    1       23.121 -13.767   2.592  0.00  0.00    +0.145 HD
ENDBRANCH  10  15
BRANCH   1  21
ATOM     20  C   LIG    1       24.561 -20.904   5.388  0.00  0.00    +0.101 C 
ATOM     21  N   LIG    1       24.879 -20.645   3.989  0.00  0.00    -0.316 NA
ATOM     22  H   LIG    1       24.030 -20.338   3.513  0.00  0.00    +0.122 HD
ENDBRANCH   1  21
TORSDOF 2
ENDMDL
