MODEL 1
REMARK VINA RESULT:      13.4      0.000      0.000
REMARK  Name = *****
REMARK                            x       y       z     vdW  Elec       q    Type
REMARK                         _______ _______ _______ _____ _____    ______ ____
ROOT
ATOM      1  C   LIG    1       21.919 -16.853   4.667  0.00  0.00    +0.061 A 
ATOM      2  C   LIG    1       22.944 -17.756   4.482  0.00  0.00    +0.049 A 
ATOM      3  I   LIG    1       23.639 -18.479   6.633  0.00  0.00    -0.041 I 
ATOM      4  C   LIG    1       23.906 -17.329   3.560  0.00  0.00    +0.066 A 
ATOM      5  C   LIG    1       23.945 -15.823   3.560  0.00  0.00    +0.040 A 
ATOM      6  I   LIG    1       24.689 -14.131   2.080  0.00  0.00    -0.042 I 
ATOM      7  C   LIG    1       23.542 -15.108   4.707  0.00  0.00    +0.065 A 
ATOM      8  C   LIG    1       22.331 -15.603   5.168  0.00  0.00    +0.049 A 
ATOM      9  I   LIG    1       21.191 -14.786   6.702  0.00  0.00    -0.041 I 
ENDROOT
BRANCH   1  11
ATOM     10  C   LIG    1       20.221 -17.939   3.045  0.00  0.00    +0.243 C 
ATOM     11  N   LIG    1       20.976 -16.936   3.606  0.00  0.00    -0.282 N 
ATOM     12  H   LIG    1       21.311 -16.403   2.809  0.00  0.00    +0.155 HD
ATOM     13  O   LIG    1       20.307 -17.925   1.812  0.00  0.00    -0.273 OA
BRANCH  10  14
ATOM     14  C   LIG    1       19.481 -19.216   3.649  0.00  0.00    +0.255 C 
BRANCH  14  16
ATOM     15  C   LIG    1       20.952 -20.814   4.658  0.00  0.00    +0.194 C 
ATOM     16  O   LIG    1       19.862 -20.582   3.728  0.00  0.00    -0.374 OA
ENDBRANCH  14  16
ENDBRANCH  10  14
ENDBRANCH   1  11
BRANCH   4  17
ATOM     17  C   LIG    1       24.893 -18.597   3.230  0.00  0.00    +0.248 C 
ATOM     18  N   LIG    1       24.520 -20.016   3.170  0.00  0.00    -0.298 N 
ATOM     19  C   LIG    1       23.238 -20.723   3.288  0.00  0.00    +0.132 C 
ATOM     20  O   LIG    1       26.012 -18.327   2.888  0.00  0.00    -0.270 OA
BRANCH  18  21
ATOM     21  C   LIG    1       25.642 -20.858   3.530  0.00  0.00    +0.141 C 
BRANCH  21  22
ATOM     22  C   LIG    1       25.572 -21.438   4.948  0.00  0.00    +0.157 C 
BRANCH  22  23
ATOM     23  O   LIG    1       24.277 -21.245   5.581  0.00  0.00    -0.388 OA
ATOM     24  H   LIG    1       24.354 -21.706   6.440  0.00  0.00    +0.210 HD
ENDBRANCH  22  23
BRANCH  22  25
ATOM     25  C   LIG    1       26.480 -20.638   5.820  0.00  0.00    +0.188 C 
BRANCH  25  26
ATOM     26  O   LIG    1       27.458 -20.074   4.956  0.00  0.00    -0.392 OA
ATOM     27  H   LIG    1       27.119 -19.198   4.712  0.00  0.00    +0.209 HD
ENDBRANCH  25  26
ENDBRANCH  22  25
ENDBRANCH  21  22
ENDBRANCH  18  21
ENDBRANCH   4  17
BRANCH   7  28
ATOM     28  C   LIG    1       24.461 -14.040   5.385  0.00  0.00    +0.246 C 
ATOM     29  N   LIG    1       25.880 -13.928   5.422  0.00  0.00    -0.309 N 
ATOM     30  H   LIG    1       26.092 -13.094   5.959  0.00  0.00    +0.149 HD
ATOM     31  O   LIG    1       23.885 -13.131   6.015  0.00  0.00    -0.270 OA
BRANCH  29  32
ATOM     32  C   LIG    1       27.188 -14.502   4.912  0.00  0.00    +0.138 C 
BRANCH  32  33
ATOM     33  C   LIG    1       28.167 -13.587   4.210  0.00  0.00    +0.157 C 
BRANCH  33  34
ATOM     34  O   LIG    1       27.862 -13.203   2.879  0.00  0.00    -0.388 OA
ATOM     35  H   LIG    1       27.330 -13.939   2.470  0.00  0.00    +0.210 HD
ENDBRANCH  33  34
BRANCH  33  36
ATOM     36  C   LIG    1       27.963 -12.357   4.966  0.00  0.00    +0.188 C 
BRANCH  36  37
ATOM     37  O   LIG    1       29.096 -11.900   5.588  0.00  0.00    -0.392 OA
ATOM     38  H   LIG    1       29.917 -11.569   5.158  0.00  0.00    +0.209 HD
ENDBRANCH  36  37
ENDBRANCH  33  36
ENDBRANCH  32  33
ENDBRANCH  29  32
ENDBRANCH   7  28
TORSDOF 15
ENDMDL
MODEL 2
REMARK VINA RESULT:      13.4      2.470      4.962
REMARK  Name = *****
REMARK                            x       y       z     vdW  Elec       q    Type
REMARK                         _______ _______ _______ _____ _____    ______ ____
ROOT
ATOM      1  C   LIG    1       23.614 -13.844   4.261  0.00  0.00    +0.061 A 
ATOM      2  C   LIG    1       23.512 -15.218   4.198  0.00  0.00    +0.049 A 
ATOM      3  I   LIG    1       22.751 -15.965   6.317  0.00  0.00    -0.041 I 
ATOM      4  C   LIG    1       24.625 -15.834   3.614  0.00  0.00    +0.066 A 
ATOM      5  C   LIG    1       25.839 -14.974   3.853  0.00  0.00    +0.040 A 
ATOM      6  I   LIG    1       27.981 -14.730   2.874  0.00  0.00    -0.042 I 
ATOM      7  C   LIG    1       25.878 -14.104   4.961  0.00  0.00    +0.065 A 
ATOM      8  C   LIG    1       24.697 -13.378   5.032  0.00  0.00    +0.049 A 
ATOM      9  I   LIG    1       24.309 -11.817   6.347  0.00  0.00    -0.041 I 
ENDROOT
BRANCH   1  11
ATOM     10  C   LIG    1       23.896 -12.302   2.204  0.00  0.00    +0.243 C 
ATOM     11  N   LIG    1       23.312 -13.257   3.003  0.00  0.00    -0.282 N 
ATOM     12  H   LIG    1       22.319 -13.048   2.953  0.00  0.00    +0.155 HD
ATOM     13  O   LIG    1       23.062 -11.475   1.816  0.00  0.00    -0.273 OA
BRANCH  10  14
ATOM     14  C   LIG    1       25.412 -11.921   1.888  0.00  0.00    +0.255 C 
BRANCH  14  16
ATOM     15  C   LIG    1       27.607 -12.341   2.750  0.00  0.00    +0.194 C 
ATOM     16  O   LIG    1       26.462 -11.448   2.718  0.00  0.00    -0.374 OA
ENDBRANCH  14  16
ENDBRANCH  10  14
ENDBRANCH   1  11
BRANCH   4  17
ATOM     17  C   LIG    1       24.251 -17.409   3.346  0.00  0.00    +0.248 C 
ATOM     18  N   LIG    1       23.014 -18.102   3.727  0.00  0.00    -0.298 N 
ATOM     19  C   LIG    1       21.761 -17.651   4.346  0.00  0.00    +0.132 C 
ATOM     20  O   LIG    1       25.021 -18.032   2.666  0.00  0.00    -0.270 OA
BRANCH  18  21
ATOM     21  C   LIG    1       23.265 -19.508   3.966  0.00  0.00    +0.141 C 
BRANCH  21  22
ATOM     22  C   LIG    1       23.768 -19.833   5.378  0.00  0.00    +0.157 C 
BRANCH  22  23
ATOM     23  O   LIG    1       25.142 -20.312   5.399  0.00  0.00    -0.388 OA
ATOM     24  H   LIG    1       25.408 -20.329   4.459  0.00  0.00    +0.210 HD
ENDBRANCH  22  23
BRANCH  22  25
ATOM     25  C   LIG    1       23.007 -21.013   5.880  0.00  0.00    +0.188 C 
BRANCH  25  26
ATOM     26  O   LIG    1       21.897 -21.166   5.005  0.00  0.00    -0.392 OA
ATOM     27  H   LIG    1       22.219 -21.707   4.266  0.00  0.00    +0.209 HD
ENDBRANCH  25  26
ENDBRANCH  22  25
ENDBRANCH  21  22
ENDBRANCH  18  21
ENDBRANCH   4  17
BRANCH   7  28
ATOM     28  C   LIG    1       27.049 -14.131   5.999  0.00  0.00    +0.246 C 
ATOM     29  N   LIG    1       28.151 -15.023   6.127  0.00  0.00    -0.309 N 
ATOM     30  H   LIG    1       28.691 -14.704   6.923  0.00  0.00    +0.149 HD
ATOM     31  O   LIG    1       27.035 -13.246   6.875  0.00  0.00    -0.270 OA
BRANCH  29  32
ATOM     32  C   LIG    1       28.881 -16.198   5.505  0.00  0.00    +0.138 C 
BRANCH  32  33
ATOM     33  C   LIG    1       28.157 -17.517   5.357  0.00  0.00    +0.157 C 
BRANCH  33  34
ATOM     34  O   LIG    1       27.721 -17.881   4.057  0.00  0.00    -0.388 OA
ATOM     35  H   LIG    1       27.948 -17.128   3.445  0.00  0.00    +0.210 HD
ENDBRANCH  33  34
BRANCH  33  36
ATOM     36  C   LIG    1       29.252 -18.446   5.613  0.00  0.00    +0.188 C 
BRANCH  36  37
ATOM     37  O   LIG    1       28.844 -19.745   5.774  0.00  0.00    -0.392 OA
ATOM     38  H   LIG    1       28.415 -20.138   6.568  0.00  0.00    +0.209 HD
ENDBRANCH  36  37
ENDBRANCH  33  36
ENDBRANCH  32  33
ENDBRANCH  29  32
ENDBRANCH   7  28
TORSDOF 15
ENDMDL
MODEL 3
REMARK VINA RESULT:      16.0      2.517      6.286
REMARK  Name = *****
REMARK                            x       y       z     vdW  Elec       q    Type
REMARK                         _______ _______ _______ _____ _____    ______ ____
ROOT
ATOM      1  C   LIG    1       25.670 -14.939   2.378  0.00  0.00    +0.061 A 
ATOM      2  C   LIG    1       26.469 -15.911   2.941  0.00  0.00    +0.049 A 
ATOM      3  I   LIG    1       25.505 -18.011   2.401  0.00  0.00    -0.041 I 
ATOM      4  C   LIG    1       26.825 -15.643   4.267  0.00  0.00    +0.066 A 
ATOM      5  C   LIG    1       25.744 -14.806   4.902  0.00  0.00    +0.040 A 
ATOM      6  I   LIG    1       25.576 -13.358   6.768  0.00  0.00    -0.042 I 
ATOM      7  C   LIG    1       24.425 -14.869   4.409  0.00  0.00    +0.065 A 
ATOM      8  C   LIG    1       24.433 -14.757   3.026  0.00  0.00    +0.049 A 
ATOM      9  I   LIG    1       22.755 -14.588   1.812  0.00  0.00    -0.041 I 
ENDROOT
BRANCH   1  11
ATOM     10  C   LIG    1       27.004 -12.734   2.603  0.00  0.00    +0.243 C 
ATOM     11  N   LIG    1       26.447 -13.821   1.970  0.00  0.00    -0.282 N 
ATOM     12  H   LIG    1       26.070 -13.439   1.108  0.00  0.00    +0.155 HD
ATOM     13  O   LIG    1       26.756 -11.688   1.992  0.00  0.00    -0.273 OA
BRANCH  10  14
ATOM     14  C   LIG    1       27.671 -12.529   4.037  0.00  0.00    +0.255 C 
BRANCH  14  16
ATOM     15  C   LIG    1       29.174 -12.199   5.872  0.00  0.00    +0.194 C 
ATOM     16  O   LIG    1       29.020 -12.337   4.435  0.00  0.00    -0.374 OA
ENDBRANCH  14  16
ENDBRANCH  10  14
ENDBRANCH   1  11
BRANCH   4  17
ATOM     17  C   LIG    1       27.986 -16.714   4.709  0.00  0.00    +0.248 C 
ATOM     18  N   LIG    1       27.845 -18.170   4.834  0.00  0.00    -0.298 N 
ATOM     19  C   LIG    1       26.743 -19.100   4.551  0.00  0.00    +0.132 C 
ATOM     20  O   LIG    1       29.098 -16.276   4.832  0.00  0.00    -0.270 OA
BRANCH  18  21
ATOM     21  C   LIG    1       28.755 -18.692   5.832  0.00  0.00    +0.141 C 
BRANCH  21  22
ATOM     22  C   LIG    1       28.243 -19.934   6.572  0.00  0.00    +0.157 C 
BRANCH  22  23
ATOM     23  O   LIG    1       29.049 -21.119   6.323  0.00  0.00    -0.388 OA
ATOM     24  H   LIG    1       28.417 -21.773   5.964  0.00  0.00    +0.210 HD
ENDBRANCH  22  23
BRANCH  22  25
ATOM     25  C   LIG    1       26.925 -20.311   5.986  0.00  0.00    +0.188 C 
BRANCH  25  26
ATOM     26  O   LIG    1       26.257 -21.074   6.982  0.00  0.00    -0.392 OA
ATOM     27  H   LIG    1       26.057 -21.929   6.568  0.00  0.00    +0.209 HD
ENDBRANCH  25  26
ENDBRANCH  22  25
ENDBRANCH  21  22
ENDBRANCH  18  21
ENDBRANCH   4  17
BRANCH   7  28
ATOM     28  C   LIG    1       23.205 -15.180   5.338  0.00  0.00    +0.246 C 
ATOM     29  N   LIG    1       22.328 -16.301   5.370  0.00  0.00    -0.309 N 
ATOM     30  H   LIG    1       21.667 -16.132   6.120  0.00  0.00    +0.149 HD
ATOM     31  O   LIG    1       22.924 -14.318   6.193  0.00  0.00    -0.270 OA
BRANCH  29  32
ATOM     32  C   LIG    1       22.041 -17.674   4.793  0.00  0.00    +0.138 C 
BRANCH  32  33
ATOM     33  C   LIG    1       22.955 -18.826   5.150  0.00  0.00    +0.157 C 
BRANCH  33  34
ATOM     34  O   LIG    1       22.644 -19.569   6.317  0.00  0.00    -0.388 OA
ATOM     35  H   LIG    1       22.837 -20.527   6.121  0.00  0.00    +0.210 HD
ENDBRANCH  33  34
BRANCH  33  36
ATOM     36  C   LIG    1       22.639 -19.753   4.070  0.00  0.00    +0.188 C 
BRANCH  36  37
ATOM     37  O   LIG    1       23.556 -20.763   3.927  0.00  0.00    -0.392 OA
ATOM     38  H   LIG    1       24.291 -20.810   3.276  0.00  0.00    +0.209 HD
ENDBRANCH  36  37
ENDBRANCH  33  36
ENDBRANCH  32  33
ENDBRANCH  29  32
ENDBRANCH   7  28
TORSDOF 15
ENDMDL
