MODEL 1
REMARK VINA RESULT:      -8.4      0.000      0.000
REMARK  Name = *****
REMARK                            x       y       z     vdW  Elec       q    Type
REMARK                         _______ _______ _______ _____ _____    ______ ____
ROOT
ATOM      1  C   LIG    1       29.184 -20.356   7.002  0.00  0.00    +0.119 C 
ATOM      2  N   LIG    1       28.029 -20.316   7.922  0.00  0.00    -0.330 N 
ATOM      3  H   LIG    1       28.090 -20.900   8.759  0.00  0.00    +0.147 HD
ATOM      4  C   LIG    1       26.738 -20.448   7.375  0.00  0.00    +0.133 A 
ATOM      5  C   LIG    1       26.476 -20.349   6.048  0.00  0.00    +0.126 A 
ATOM      6  N   LIG    1       25.185 -20.474   5.618  0.00  0.00    -0.315 N 
ATOM      7  H   LIG    1       25.076 -20.748   4.653  0.00  0.00    +0.170 HD
ATOM      8  C   LIG    1       24.187 -20.785   6.481  0.00  0.00    +0.195 A 
ATOM      9  N   LIG    1       24.315 -20.924   7.756  0.00  0.00    -0.176 NA
ATOM     10  N   LIG    1       27.515 -20.144   5.143  0.00  0.00    -0.327 N 
ATOM     11  H   LIG    1       27.206 -19.667   4.301  0.00  0.00    +0.147 HD
ATOM     12  C   LIG    1       25.574 -20.774   8.299  0.00  0.00    +0.297 A 
ATOM     13  O   LIG    1       25.808 -20.923   9.499  0.00  0.00    -0.264 OA
ATOM     14  C   LIG    1       28.824 -19.680   5.644  0.00  0.00    +0.128 C 
ENDROOT
BRANCH   8  15
ATOM     15  N   LIG    1       22.981 -20.934   5.880  0.00  0.00    -0.329 N 
ATOM     16  H   LIG    1       22.529 -21.784   6.209  0.00  0.00    +0.145 HD
ATOM     17  H   LIG    1       22.365 -20.139   5.996  0.00  0.00    +0.145 HD
ENDBRANCH   8  15
BRANCH   1  18
ATOM     18  C   LIG    1       30.443 -19.735   7.650  0.00  0.00    +0.164 C 
BRANCH  18  20
ATOM     19  C   LIG    1       31.144 -21.827   9.035  0.00  0.00    +0.040 C 
ATOM     20  C   LIG    1       30.919 -20.321   9.000  0.00  0.00    +0.142 C 
BRANCH  20  21
ATOM     21  O   LIG    1       32.179 -19.706   9.321  0.00  0.00    -0.389 OA
ATOM     22  H   LIG    1       32.046 -18.744   9.200  0.00  0.00    +0.210 HD
ENDBRANCH  20  21
ENDBRANCH  18  20
BRANCH  18  23
ATOM     23  O   LIG    1       31.546 -19.752   6.721  0.00  0.00    -0.387 OA
ATOM     24  H   LIG    1       31.562 -18.878   6.288  0.00  0.00    +0.210 HD
ENDBRANCH  18  23
ENDBRANCH   1  18
TORSDOF 5
ENDMDL
MODEL 2
REMARK VINA RESULT:      -7.9      1.141      1.565
REMARK  Name = *****
REMARK                            x       y       z     vdW  Elec       q    Type
REMARK                         _______ _______ _______ _____ _____    ______ ____
ROOT
ATOM      1  C   LIG    1       29.484 -20.284   7.396  0.00  0.00    +0.119 C 
ATOM      2  N   LIG    1       28.238 -20.221   8.188  0.00  0.00    -0.330 N 
ATOM      3  H   LIG    1       28.211 -20.780   9.043  0.00  0.00    +0.147 HD
ATOM      4  C   LIG    1       27.012 -20.369   7.512  0.00  0.00    +0.133 A 
ATOM      5  C   LIG    1       26.891 -20.308   6.163  0.00  0.00    +0.126 A 
ATOM      6  N   LIG    1       25.652 -20.447   5.603  0.00  0.00    -0.315 N 
ATOM      7  H   LIG    1       25.645 -20.748   4.640  0.00  0.00    +0.170 HD
ATOM      8  C   LIG    1       24.568 -20.735   6.366  0.00  0.00    +0.195 A 
ATOM      9  N   LIG    1       24.561 -20.838   7.650  0.00  0.00    -0.176 NA
ATOM     10  N   LIG    1       28.019 -20.127   5.367  0.00  0.00    -0.327 N 
ATOM     11  H   LIG    1       27.801 -19.675   4.483  0.00  0.00    +0.147 HD
ATOM     12  C   LIG    1       25.756 -20.671   8.318  0.00  0.00    +0.297 A 
ATOM     13  O   LIG    1       25.863 -20.787   9.539  0.00  0.00    -0.264 OA
ATOM     14  C   LIG    1       29.269 -19.647   5.990  0.00  0.00    +0.128 C 
ENDROOT
BRANCH   8  15
ATOM     15  N   LIG    1       23.432 -20.904   5.646  0.00  0.00    -0.329 N 
ATOM     16  H   LIG    1       23.186 -20.038   5.171  0.00  0.00    +0.145 HD
ATOM     17  H   LIG    1       23.477 -21.669   4.984  0.00  0.00    +0.145 HD
ENDBRANCH   8  15
BRANCH   1  18
ATOM     18  C   LIG    1       30.668 -19.644   8.155  0.00  0.00    +0.164 C 
BRANCH  18  20
ATOM     19  C   LIG    1       30.276 -17.529   9.625  0.00  0.00    +0.040 C 
ATOM     20  C   LIG    1       30.693 -18.102   8.276  0.00  0.00    +0.142 C 
BRANCH  20  21
ATOM     21  O   LIG    1       32.044 -17.669   8.042  0.00  0.00    -0.389 OA
ATOM     22  H   LIG    1       32.555 -17.946   8.829  0.00  0.00    +0.210 HD
ENDBRANCH  20  21
ENDBRANCH  18  20
BRANCH  18  23
ATOM     23  O   LIG    1       30.789 -20.215   9.474  0.00  0.00    -0.387 OA
ATOM     24  H   LIG    1       31.407 -19.648   9.970  0.00  0.00    +0.210 HD
ENDBRANCH  18  23
ENDBRANCH   1  18
TORSDOF 5
ENDMDL
MODEL 3
REMARK VINA RESULT:      -7.4      2.725      6.158
REMARK  Name = *****
REMARK                            x       y       z     vdW  Elec       q    Type
REMARK                         _______ _______ _______ _____ _____    ______ ____
ROOT
ATOM      1  C   LIG    1       25.057 -20.502   5.609  0.00  0.00    +0.119 C 
ATOM      2  N   LIG    1       25.836 -21.246   6.620  0.00  0.00    -0.330 N 
ATOM      3  H   LIG    1       25.406 -21.352   7.541  0.00  0.00    +0.147 HD
ATOM      4  C   LIG    1       27.194 -20.913   6.792  0.00  0.00    +0.133 A 
ATOM      5  C   LIG    1       27.889 -20.142   5.919  0.00  0.00    +0.126 A 
ATOM      6  N   LIG    1       29.210 -19.890   6.167  0.00  0.00    -0.315 N 
ATOM      7  H   LIG    1       29.581 -19.063   5.725  0.00  0.00    +0.170 HD
ATOM      8  C   LIG    1       29.802 -20.320   7.308  0.00  0.00    +0.195 A 
ATOM      9  N   LIG    1       29.241 -21.040   8.219  0.00  0.00    -0.176 NA
ATOM     10  N   LIG    1       27.255 -19.602   4.803  0.00  0.00    -0.327 N 
ATOM     11  H   LIG    1       27.899 -19.436   4.035  0.00  0.00    +0.147 HD
ATOM     12  C   LIG    1       27.918 -21.387   8.044  0.00  0.00    +0.297 A 
ATOM     13  O   LIG    1       27.282 -22.040   8.872  0.00  0.00    -0.264 OA
ATOM     14  C   LIG    1       25.952 -20.153   4.381  0.00  0.00    +0.128 C 
ENDROOT
BRANCH   8  15
ATOM     15  N   LIG    1       31.094 -19.930   7.425  0.00  0.00    -0.329 N 
ATOM     16  H   LIG    1       31.685 -20.731   7.634  0.00  0.00    +0.145 HD
ATOM     17  H   LIG    1       31.446 -19.434   6.615  0.00  0.00    +0.145 HD
ENDBRANCH   8  15
BRANCH   1  18
ATOM     18  C   LIG    1       23.779 -21.271   5.203  0.00  0.00    +0.164 C 
BRANCH  18  20
ATOM     19  C   LIG    1       22.342 -19.161   4.685  0.00  0.00    +0.040 C 
ATOM     20  C   LIG    1       22.425 -20.535   5.338  0.00  0.00    +0.142 C 
BRANCH  20  21
ATOM     21  O   LIG    1       21.422 -21.353   4.713  0.00  0.00    -0.389 OA
ATOM     22  H   LIG    1       21.773 -21.581   3.830  0.00  0.00    +0.210 HD
ENDBRANCH  20  21
ENDBRANCH  18  20
BRANCH  18  23
ATOM     23  O   LIG    1       23.902 -21.775   3.857  0.00  0.00    -0.387 OA
ATOM     24  H   LIG    1       24.840 -21.684   3.608  0.00  0.00    +0.210 HD
ENDBRANCH  18  23
ENDBRANCH   1  18
TORSDOF 5
ENDMDL
MODEL 4
REMARK VINA RESULT:      -7.2      2.436      5.747
REMARK  Name = *****
REMARK                            x       y       z     vdW  Elec       q    Type
REMARK                         _______ _______ _______ _____ _____    ______ ____
ROOT
ATOM      1  C   LIG    1       24.788 -20.733   5.628  0.00  0.00    +0.119 C 
ATOM      2  N   LIG    1       25.733 -21.324   6.598  0.00  0.00    -0.330 N 
ATOM      3  H   LIG    1       25.389 -21.449   7.552  0.00  0.00    +0.147 HD
ATOM      4  C   LIG    1       27.041 -20.805   6.653  0.00  0.00    +0.133 A 
ATOM      5  C   LIG    1       27.559 -19.985   5.705  0.00  0.00    +0.126 A 
ATOM      6  N   LIG    1       28.847 -19.549   5.841  0.00  0.00    -0.315 N 
ATOM      7  H   LIG    1       29.069 -18.698   5.346  0.00  0.00    +0.170 HD
ATOM      8  C   LIG    1       29.574 -19.848   6.946  0.00  0.00    +0.195 A 
ATOM      9  N   LIG    1       29.185 -20.598   7.919  0.00  0.00    -0.176 NA
ATOM     10  N   LIG    1       26.777 -19.581   4.626  0.00  0.00    -0.327 N 
ATOM     11  H   LIG    1       27.334 -19.362   3.805  0.00  0.00    +0.147 HD
ATOM     12  C   LIG    1       27.912 -21.127   7.858  0.00  0.00    +0.297 A 
ATOM     13  O   LIG    1       27.433 -21.824   8.753  0.00  0.00    -0.264 OA
ATOM     14  C   LIG    1       25.534 -20.318   4.323  0.00  0.00    +0.128 C 
ENDROOT
BRANCH   8  15
ATOM     15  N   LIG    1       30.806 -19.284   6.949  0.00  0.00    -0.329 N 
ATOM     16  H   LIG    1       31.522 -20.006   6.955  0.00  0.00    +0.145 HD
ATOM     17  H   LIG    1       30.962 -18.637   6.185  0.00  0.00    +0.145 HD
ENDBRANCH   8  15
BRANCH   1  18
ATOM     18  C   LIG    1       23.600 -21.682   5.347  0.00  0.00    +0.164 C 
BRANCH  18  20
ATOM     19  C   LIG    1       23.277 -23.788   6.846  0.00  0.00    +0.040 C 
ATOM     20  C   LIG    1       22.903 -22.339   6.561  0.00  0.00    +0.142 C 
BRANCH  20  21
ATOM     21  O   LIG    1       23.260 -21.581   7.730  0.00  0.00    -0.389 OA
ATOM     22  H   LIG    1       24.064 -21.079   7.488  0.00  0.00    +0.210 HD
ENDBRANCH  20  21
ENDBRANCH  18  20
BRANCH  18  23
ATOM     23  O   LIG    1       22.604 -21.016   4.543  0.00  0.00    -0.387 OA
ATOM     24  H   LIG    1       23.044 -20.250   4.131  0.00  0.00    +0.210 HD
ENDBRANCH  18  23
ENDBRANCH   1  18
TORSDOF 5
ENDMDL
MODEL 5
REMARK VINA RESULT:      -7.1      2.189      3.147
REMARK  Name = *****
REMARK                            x       y       z     vdW  Elec       q    Type
REMARK                         _______ _______ _______ _____ _____    ______ ____
ROOT
ATOM      1  C   LIG    1       27.697 -20.415   6.790  0.00  0.00    +0.119 C 
ATOM      2  N   LIG    1       27.013 -20.079   5.524  0.00  0.00    -0.330 N 
ATOM      3  H   LIG    1       27.113 -19.117   5.192  0.00  0.00    +0.147 HD
ATOM      4  C   LIG    1       25.671 -20.473   5.369  0.00  0.00    +0.133 A 
ATOM      5  C   LIG    1       25.052 -21.357   6.190  0.00  0.00    +0.126 A 
ATOM      6  N   LIG    1       23.749 -21.689   5.944  0.00  0.00    -0.315 N 
ATOM      7  H   LIG    1       23.237 -22.042   6.738  0.00  0.00    +0.170 HD
ATOM      8  C   LIG    1       23.048 -21.081   4.955  0.00  0.00    +0.195 A 
ATOM      9  N   LIG    1       23.518 -20.214   4.126  0.00  0.00    -0.176 NA
ATOM     10  N   LIG    1       25.735 -21.898   7.277  0.00  0.00    -0.327 N 
ATOM     11  H   LIG    1       25.378 -22.811   7.542  0.00  0.00    +0.147 HD
ATOM     12  C   LIG    1       24.840 -19.842   4.261  0.00  0.00    +0.297 A 
ATOM     13  O   LIG    1       25.373 -18.995   3.544  0.00  0.00    -0.264 OA
ATOM     14  C   LIG    1       27.207 -21.794   7.326  0.00  0.00    +0.128 C 
ENDROOT
BRANCH   8  15
ATOM     15  N   LIG    1       21.754 -21.480   4.889  0.00  0.00    -0.329 N 
ATOM     16  H   LIG    1       21.701 -22.495   4.864  0.00  0.00    +0.145 HD
ATOM     17  H   LIG    1       21.175 -21.114   5.636  0.00  0.00    +0.145 HD
ENDBRANCH   8  15
BRANCH   1  18
ATOM     18  C   LIG    1       29.234 -20.360   6.633  0.00  0.00    +0.164 C 
BRANCH  18  20
ATOM     19  C   LIG    1       31.381 -19.026   7.265  0.00  0.00    +0.040 C 
ATOM     20  C   LIG    1       29.926 -18.988   6.813  0.00  0.00    +0.142 C 
BRANCH  20  21
ATOM     21  O   LIG    1       29.904 -18.320   5.540  0.00  0.00    -0.389 OA
ATOM     22  H   LIG    1       29.389 -18.898   4.943  0.00  0.00    +0.210 HD
ENDBRANCH  20  21
ENDBRANCH  18  20
BRANCH  18  23
ATOM     23  O   LIG    1       29.863 -21.316   7.511  0.00  0.00    -0.387 OA
ATOM     24  H   LIG    1       29.381 -22.157   7.402  0.00  0.00    +0.210 HD
ENDBRANCH  18  23
ENDBRANCH   1  18
TORSDOF 5
ENDMDL
MODEL 6
REMARK VINA RESULT:      -7.1      4.904      6.217
REMARK  Name = *****
REMARK                            x       y       z     vdW  Elec       q    Type
REMARK                         _______ _______ _______ _____ _____    ______ ____
ROOT
ATOM      1  C   LIG    1       25.359 -22.968   6.370  0.00  0.00    +0.119 C 
ATOM      2  N   LIG    1       26.189 -24.191   6.357  0.00  0.00    -0.330 N 
ATOM      3  H   LIG    1       27.076 -24.135   5.853  0.00  0.00    +0.147 HD
ATOM      4  C   LIG    1       25.566 -25.414   6.040  0.00  0.00    +0.133 A 
ATOM      5  C   LIG    1       24.221 -25.579   6.002  0.00  0.00    +0.126 A 
ATOM      6  N   LIG    1       23.714 -26.812   5.702  0.00  0.00    -0.315 N 
ATOM      7  H   LIG    1       22.772 -26.815   5.340  0.00  0.00    +0.170 HD
ATOM      8  C   LIG    1       24.531 -27.838   5.354  0.00  0.00    +0.195 A 
ATOM      9  N   LIG    1       25.818 -27.797   5.333  0.00  0.00    -0.176 NA
ATOM     10  N   LIG    1       23.376 -24.499   6.247  0.00  0.00    -0.327 N 
ATOM     11  H   LIG    1       22.475 -24.788   6.616  0.00  0.00    +0.147 HD
ATOM     12  C   LIG    1       26.433 -26.607   5.664  0.00  0.00    +0.297 A 
ATOM     13  O   LIG    1       27.654 -26.455   5.638  0.00  0.00    -0.264 OA
ATOM     14  C   LIG    1       23.925 -23.289   6.891  0.00  0.00    +0.128 C 
ENDROOT
BRANCH   8  15
ATOM     15  N   LIG    1       23.862 -28.970   5.024  0.00  0.00    -0.329 N 
ATOM     16  H   LIG    1       22.869 -28.857   5.210  0.00  0.00    +0.145 HD
ATOM     17  H   LIG    1       24.011 -29.269   4.068  0.00  0.00    +0.145 HD
ENDBRANCH   8  15
BRANCH   1  18
ATOM     18  C   LIG    1       26.036 -21.836   7.176  0.00  0.00    +0.164 C 
BRANCH  18  20
ATOM     19  C   LIG    1       27.947 -20.240   6.412  0.00  0.00    +0.040 C 
ATOM     20  C   LIG    1       26.458 -20.562   6.408  0.00  0.00    +0.142 C 
BRANCH  20  21
ATOM     21  O   LIG    1       26.076 -20.736   5.033  0.00  0.00    -0.389 OA
ATOM     22  H   LIG    1       26.878 -20.549   4.506  0.00  0.00    +0.210 HD
ENDBRANCH  20  21
ENDBRANCH  18  20
BRANCH  18  23
ATOM     23  O   LIG    1       25.209 -21.452   8.294  0.00  0.00    -0.387 OA
ATOM     24  H   LIG    1       24.297 -21.716   8.072  0.00  0.00    +0.210 HD
ENDBRANCH  18  23
ENDBRANCH   1  18
TORSDOF 5
ENDMDL
MODEL 7
REMARK VINA RESULT:      -7.0      2.788      6.212
REMARK  Name = *****
REMARK                            x       y       z     vdW  Elec       q    Type
REMARK                         _______ _______ _______ _____ _____    ______ ____
ROOT
ATOM      1  C   LIG    1       25.806 -21.245   5.604  0.00  0.00    +0.119 C 
ATOM      2  N   LIG    1       26.751 -20.109   5.608  0.00  0.00    -0.330 N 
ATOM      3  H   LIG    1       26.946 -19.674   4.705  0.00  0.00    +0.147 HD
ATOM      4  C   LIG    1       27.963 -20.254   6.310  0.00  0.00    +0.133 A 
ATOM      5  C   LIG    1       28.202 -21.261   7.187  0.00  0.00    +0.126 A 
ATOM      6  N   LIG    1       29.406 -21.304   7.832  0.00  0.00    -0.315 N 
ATOM      7  H   LIG    1       29.679 -22.212   8.178  0.00  0.00    +0.170 HD
ATOM      8  C   LIG    1       30.388 -20.415   7.540  0.00  0.00    +0.195 A 
ATOM      9  N   LIG    1       30.287 -19.431   6.714  0.00  0.00    -0.176 NA
ATOM     10  N   LIG    1       27.238 -22.242   7.405  0.00  0.00    -0.327 N 
ATOM     11  H   LIG    1       27.311 -22.658   8.330  0.00  0.00    +0.147 HD
ATOM     12  C   LIG    1       29.094 -19.272   6.041  0.00  0.00    +0.297 A 
ATOM     13  O   LIG    1       28.910 -18.388   5.204  0.00  0.00    -0.264 OA
ATOM     14  C   LIG    1       25.849 -21.995   6.970  0.00  0.00    +0.128 C 
ENDROOT
BRANCH   8  15
ATOM     15  N   LIG    1       31.537 -20.639   8.223  0.00  0.00    -0.329 N 
ATOM     16  H   LIG    1       31.394 -20.469   9.215  0.00  0.00    +0.145 HD
ATOM     17  H   LIG    1       31.928 -21.562   8.075  0.00  0.00    +0.145 HD
ENDBRANCH   8  15
BRANCH   1  18
ATOM     18  C   LIG    1       24.377 -20.790   5.230  0.00  0.00    +0.164 C 
BRANCH  18  20
ATOM     19  C   LIG    1       23.399 -18.856   3.785  0.00  0.00    +0.040 C 
ATOM     20  C   LIG    1       24.164 -20.173   3.828  0.00  0.00    +0.142 C 
BRANCH  20  21
ATOM     21  O   LIG    1       25.462 -19.918   3.264  0.00  0.00    -0.389 OA
ATOM     22  H   LIG    1       25.765 -20.770   2.892  0.00  0.00    +0.210 HD
ENDBRANCH  20  21
ENDBRANCH  18  20
BRANCH  18  23
ATOM     23  O   LIG    1       23.442 -21.874   5.408  0.00  0.00    -0.387 OA
ATOM     24  H   LIG    1       23.097 -22.095   4.523  0.00  0.00    +0.210 HD
ENDBRANCH  18  23
ENDBRANCH   1  18
TORSDOF 5
ENDMDL
MODEL 8
REMARK VINA RESULT:      -7.0      2.600      6.068
REMARK  Name = *****
REMARK                            x       y       z     vdW  Elec       q    Type
REMARK                         _______ _______ _______ _____ _____    ______ ____
ROOT
ATOM      1  C   LIG    1       26.451 -21.666   6.277  0.00  0.00    +0.119 C 
ATOM      2  N   LIG    1       27.041 -20.372   5.876  0.00  0.00    -0.330 N 
ATOM      3  H   LIG    1       27.081 -20.179   4.873  0.00  0.00    +0.147 HD
ATOM      4  C   LIG    1       28.266 -19.991   6.457  0.00  0.00    +0.133 A 
ATOM      5  C   LIG    1       28.802 -20.606   7.541  0.00  0.00    +0.126 A 
ATOM      6  N   LIG    1       29.989 -20.148   8.041  0.00  0.00    -0.315 N 
ATOM      7  H   LIG    1       30.513 -20.816   8.585  0.00  0.00    +0.170 HD
ATOM      8  C   LIG    1       30.675 -19.159   7.418  0.00  0.00    +0.195 A 
ATOM      9  N   LIG    1       30.280 -18.514   6.374  0.00  0.00    -0.176 NA
ATOM     10  N   LIG    1       28.157 -21.698   8.115  0.00  0.00    -0.327 N 
ATOM     11  H   LIG    1       28.370 -21.797   9.104  0.00  0.00    +0.147 HD
ATOM     12  C   LIG    1       29.070 -18.870   5.815  0.00  0.00    +0.297 A 
ATOM     13  O   LIG    1       28.623 -18.342   4.797  0.00  0.00    -0.264 OA
ATOM     14  C   LIG    1       26.741 -21.955   7.781  0.00  0.00    +0.128 C 
ENDROOT
BRANCH   8  15
ATOM     15  N   LIG    1       31.861 -18.872   8.009  0.00  0.00    -0.329 N 
ATOM     16  H   LIG    1       31.926 -19.340   8.909  0.00  0.00    +0.145 HD
ATOM     17  H   LIG    1       32.667 -19.092   7.436  0.00  0.00    +0.145 HD
ENDBRANCH   8  15
BRANCH   1  18
ATOM     18  C   LIG    1       24.941 -21.723   5.950  0.00  0.00    +0.164 C 
BRANCH  18  20
ATOM     19  C   LIG    1       22.933 -20.086   5.679  0.00  0.00    +0.040 C 
ATOM     20  C   LIG    1       24.029 -20.643   6.578  0.00  0.00    +0.142 C 
BRANCH  20  21
ATOM     21  O   LIG    1       23.374 -21.234   7.713  0.00  0.00    -0.389 OA
ATOM     22  H   LIG    1       22.603 -21.718   7.356  0.00  0.00    +0.210 HD
ENDBRANCH  20  21
ENDBRANCH  18  20
BRANCH  18  23
ATOM     23  O   LIG    1       24.736 -21.731   4.522  0.00  0.00    -0.387 OA
ATOM     24  H   LIG    1       23.806 -21.481   4.371  0.00  0.00    +0.210 HD
ENDBRANCH  18  23
ENDBRANCH   1  18
TORSDOF 5
ENDMDL
MODEL 9
REMARK VINA RESULT:      -6.9      2.034      2.589
REMARK  Name = *****
REMARK                            x       y       z     vdW  Elec       q    Type
REMARK                         _______ _______ _______ _____ _____    ______ ____
ROOT
ATOM      1  C   LIG    1       29.198 -19.610   7.487  0.00  0.00    +0.119 C 
ATOM      2  N   LIG    1       28.404 -19.508   6.245  0.00  0.00    -0.330 N 
ATOM      3  H   LIG    1       28.123 -18.568   5.959  0.00  0.00    +0.147 HD
ATOM      4  C   LIG    1       27.307 -20.377   6.084  0.00  0.00    +0.133 A 
ATOM      5  C   LIG    1       27.092 -21.462   6.868  0.00  0.00    +0.126 A 
ATOM      6  N   LIG    1       26.007 -22.253   6.618  0.00  0.00    -0.315 N 
ATOM      7  H   LIG    1       25.688 -22.807   7.399  0.00  0.00    +0.170 HD
ATOM      8  C   LIG    1       25.101 -21.918   5.666  0.00  0.00    +0.195 A 
ATOM      9  N   LIG    1       25.185 -20.905   4.875  0.00  0.00    -0.176 NA
ATOM     10  N   LIG    1       27.958 -21.746   7.922  0.00  0.00    -0.327 N 
ATOM     11  H   LIG    1       27.982 -22.736   8.146  0.00  0.00    +0.147 HD
ATOM     12  C   LIG    1       26.270 -20.064   5.015  0.00  0.00    +0.297 A 
ATOM     13  O   LIG    1       26.423 -19.049   4.334  0.00  0.00    -0.264 OA
ATOM     14  C   LIG    1       29.282 -21.093   7.961  0.00  0.00    +0.128 C 
ENDROOT
BRANCH   8  15
ATOM     15  N   LIG    1       24.054 -22.775   5.594  0.00  0.00    -0.329 N 
ATOM     16  H   LIG    1       23.437 -22.511   4.829  0.00  0.00    +0.145 HD
ATOM     17  H   LIG    1       24.326 -23.748   5.509  0.00  0.00    +0.145 HD
ENDBRANCH   8  15
BRANCH   1  18
ATOM     18  C   LIG    1       30.595 -18.969   7.319  0.00  0.00    +0.164 C 
BRANCH  18  20
ATOM     19  C   LIG    1       30.227 -17.723   9.576  0.00  0.00    +0.040 C 
ATOM     20  C   LIG    1       31.213 -18.262   8.547  0.00  0.00    +0.142 C 
BRANCH  20  21
ATOM     21  O   LIG    1       32.042 -19.219   9.229  0.00  0.00    -0.389 OA
ATOM     22  H   LIG    1       32.905 -18.780   9.361  0.00  0.00    +0.210 HD
ENDBRANCH  20  21
ENDBRANCH  18  20
BRANCH  18  23
ATOM     23  O   LIG    1       31.536 -19.942   6.820  0.00  0.00    -0.387 OA
ATOM     24  H   LIG    1       32.372 -19.466   6.658  0.00  0.00    +0.210 HD
ENDBRANCH  18  23
ENDBRANCH   1  18
TORSDOF 5
ENDMDL
