MODEL 1
REMARK VINA RESULT:      -8.6      0.000      0.000
REMARK  Name = *****
REMARK                            x       y       z     vdW  Elec       q    Type
REMARK                         _______ _______ _______ _____ _____    ______ ____
ROOT
ATOM      1  C   LIG    1       28.259 -20.320   7.517  0.00  0.00    +0.122 A 
ATOM      2  C   LIG    1       28.249 -20.173   6.138  0.00  0.00    +0.046 A 
ATOM      3  C   LIG    1       27.035 -20.193   5.433  0.00  0.00    +0.007 A 
ATOM      4  C   LIG    1       25.802 -20.397   6.072  0.00  0.00    -0.041 A 
ATOM      5  C   LIG    1       25.829 -20.512   7.467  0.00  0.00    +0.007 A 
ATOM      6  C   LIG    1       27.038 -20.485   8.176  0.00  0.00    +0.046 A 
ENDROOT
BRANCH   4   7
ATOM      7  C   LIG    1       24.521 -20.444   5.269  0.00  0.00    +0.058 C 
ATOM      8  C   LIG    1       23.509 -21.571   5.338  0.00  0.00    +0.126 C 
ATOM      9 CL   LIG    1       21.810 -21.141   5.126  0.00  0.00    -0.100 Cl
ATOM     10 CL   LIG    1       23.738 -22.977   6.365  0.00  0.00    -0.100 Cl
ATOM     11  C   LIG    1       24.405 -21.449   4.142  0.00  0.00    +0.050 C 
ENDBRANCH   4   7
BRANCH   1  12
ATOM     12  O   LIG    1       29.344 -20.342   8.339  0.00  0.00    -0.475 OA
BRANCH  12  14
ATOM     13  C   LIG    1       30.965 -19.224   6.810  0.00  0.00    +0.067 C 
ATOM     14  C   LIG    1       30.457 -19.442   8.244  0.00  0.00    +0.200 C 
ATOM     15  C   LIG    1       29.876 -18.088   8.704  0.00  0.00    +0.067 C 
BRANCH  14  16
ATOM     16  C   LIG    1       31.614 -19.759   9.211  0.00  0.00    +0.348 C 
ATOM     17  O   LIG    1       32.085 -20.879   9.388  0.00  0.00    -0.246 OA
BRANCH  16  18
ATOM     18  O   LIG    1       32.122 -18.667   9.832  0.00  0.00    -0.478 OA
ATOM     19  H   LIG    1       31.412 -18.093  10.190  0.00  0.00    +0.295 HD
ENDBRANCH  16  18
ENDBRANCH  14  16
ENDBRANCH  12  14
ENDBRANCH   1  12
TORSDOF 5
ENDMDL
MODEL 2
REMARK VINA RESULT:      -8.4      1.416      1.647
REMARK  Name = *****
REMARK                            x       y       z     vdW  Elec       q    Type
REMARK                         _______ _______ _______ _____ _____    ______ ____
ROOT
ATOM      1  C   LIG    1       28.181 -19.748   7.926  0.00  0.00    +0.122 A 
ATOM      2  C   LIG    1       27.989 -19.981   6.573  0.00  0.00    +0.046 A 
ATOM      3  C   LIG    1       26.815 -20.604   6.122  0.00  0.00    +0.007 A 
ATOM      4  C   LIG    1       25.817 -21.047   7.003  0.00  0.00    -0.041 A 
ATOM      5  C   LIG    1       26.014 -20.775   8.363  0.00  0.00    +0.007 A 
ATOM      6  C   LIG    1       27.182 -20.147   8.817  0.00  0.00    +0.046 A 
ENDROOT
BRANCH   4   7
ATOM      7  C   LIG    1       24.582 -21.744   6.476  0.00  0.00    +0.058 C 
ATOM      8  C   LIG    1       24.391 -23.248   6.456  0.00  0.00    +0.126 C 
ATOM      9 CL   LIG    1       22.750 -23.854   6.689  0.00  0.00    -0.100 Cl
ATOM     10 CL   LIG    1       25.622 -24.358   7.035  0.00  0.00    -0.100 Cl
ATOM     11  C   LIG    1       24.682 -22.517   5.178  0.00  0.00    +0.050 C 
ENDBRANCH   4   7
BRANCH   1  12
ATOM     12  O   LIG    1       29.264 -19.177   8.522  0.00  0.00    -0.475 OA
BRANCH  12  14
ATOM     13  C   LIG    1       31.102 -19.439   6.859  0.00  0.00    +0.067 C 
ATOM     14  C   LIG    1       30.622 -19.589   8.311  0.00  0.00    +0.200 C 
ATOM     15  C   LIG    1       31.446 -18.582   9.141  0.00  0.00    +0.067 C 
BRANCH  14  16
ATOM     16  C   LIG    1       30.958 -20.982   8.876  0.00  0.00    +0.348 C 
ATOM     17  O   LIG    1       30.169 -21.922   8.922  0.00  0.00    -0.246 OA
BRANCH  16  18
ATOM     18  O   LIG    1       32.243 -21.111   9.285  0.00  0.00    -0.478 OA
ATOM     19  H   LIG    1       32.393 -21.968   9.737  0.00  0.00    +0.295 HD
ENDBRANCH  16  18
ENDBRANCH  14  16
ENDBRANCH  12  14
ENDBRANCH   1  12
TORSDOF 5
ENDMDL
MODEL 3
REMARK VINA RESULT:      -8.3      1.407      1.774
REMARK  Name = *****
REMARK                            x       y       z     vdW  Elec       q    Type
REMARK                         _______ _______ _______ _____ _____    ______ ____
ROOT
ATOM      1  C   LIG    1       28.126 -19.738   7.843  0.00  0.00    +0.122 A 
ATOM      2  C   LIG    1       27.910 -19.988   6.497  0.00  0.00    +0.046 A 
ATOM      3  C   LIG    1       26.737 -20.633   6.075  0.00  0.00    +0.007 A 
ATOM      4  C   LIG    1       25.763 -21.082   6.980  0.00  0.00    -0.041 A 
ATOM      5  C   LIG    1       25.983 -20.794   8.333  0.00  0.00    +0.007 A 
ATOM      6  C   LIG    1       27.150 -20.144   8.758  0.00  0.00    +0.046 A 
ENDROOT
BRANCH   4   7
ATOM      7  C   LIG    1       24.529 -21.802   6.485  0.00  0.00    +0.058 C 
ATOM      8  C   LIG    1       24.379 -23.310   6.437  0.00  0.00    +0.126 C 
ATOM      9 CL   LIG    1       22.765 -23.968   6.718  0.00  0.00    -0.100 Cl
ATOM     10 CL   LIG    1       25.662 -24.397   6.944  0.00  0.00    -0.100 Cl
ATOM     11  C   LIG    1       24.600 -22.544   5.167  0.00  0.00    +0.050 C 
ENDBRANCH   4   7
BRANCH   1  12
ATOM     12  O   LIG    1       29.212 -19.146   8.412  0.00  0.00    -0.475 OA
BRANCH  12  14
ATOM     13  C   LIG    1       30.830 -21.040   8.469  0.00  0.00    +0.067 C 
ATOM     14  C   LIG    1       30.570 -19.551   8.192  0.00  0.00    +0.200 C 
ATOM     15  C   LIG    1       30.773 -19.354   6.675  0.00  0.00    +0.067 C 
BRANCH  14  16
ATOM     16  C   LIG    1       31.619 -18.657   8.881  0.00  0.00    +0.348 C 
ATOM     17  O   LIG    1       31.923 -18.732  10.068  0.00  0.00    -0.246 OA
BRANCH  16  18
ATOM     18  O   LIG    1       32.234 -17.790   8.041  0.00  0.00    -0.478 OA
ATOM     19  H   LIG    1       32.230 -18.119   7.117  0.00  0.00    +0.295 HD
ENDBRANCH  16  18
ENDBRANCH  14  16
ENDBRANCH  12  14
ENDBRANCH   1  12
TORSDOF 5
ENDMDL
MODEL 4
REMARK VINA RESULT:      -7.9      1.157      1.289
REMARK  Name = *****
REMARK                            x       y       z     vdW  Elec       q    Type
REMARK                         _______ _______ _______ _____ _____    ______ ____
ROOT
ATOM      1  C   LIG    1       28.338 -19.899   7.833  0.00  0.00    +0.122 A 
ATOM      2  C   LIG    1       28.421 -19.786   6.454  0.00  0.00    +0.046 A 
ATOM      3  C   LIG    1       27.305 -20.070   5.652  0.00  0.00    +0.007 A 
ATOM      4  C   LIG    1       26.087 -20.510   6.193  0.00  0.00    -0.041 A 
ATOM      5  C   LIG    1       26.012 -20.588   7.590  0.00  0.00    +0.007 A 
ATOM      6  C   LIG    1       27.123 -20.299   8.395  0.00  0.00    +0.046 A 
ENDROOT
BRANCH   4   7
ATOM      7  C   LIG    1       24.918 -20.837   5.290  0.00  0.00    +0.058 C 
ATOM      8  C   LIG    1       23.601 -21.413   5.769  0.00  0.00    +0.126 C 
ATOM      9 CL   LIG    1       22.144 -20.923   4.901  0.00  0.00    -0.100 Cl
ATOM     10 CL   LIG    1       23.299 -21.788   7.458  0.00  0.00    -0.100 Cl
ATOM     11  C   LIG    1       24.575 -22.291   5.042  0.00  0.00    +0.050 C 
ENDBRANCH   4   7
BRANCH   1  12
ATOM     12  O   LIG    1       29.328 -19.680   8.743  0.00  0.00    -0.475 OA
BRANCH  12  14
ATOM     13  C   LIG    1       31.173 -19.718   7.069  0.00  0.00    +0.067 C 
ATOM     14  C   LIG    1       30.717 -19.955   8.517  0.00  0.00    +0.200 C 
ATOM     15  C   LIG    1       31.446 -18.901   9.375  0.00  0.00    +0.067 C 
BRANCH  14  16
ATOM     16  C   LIG    1       31.186 -21.327   9.039  0.00  0.00    +0.348 C 
ATOM     17  O   LIG    1       30.727 -21.888  10.030  0.00  0.00    -0.246 OA
BRANCH  16  18
ATOM     18  O   LIG    1       32.137 -21.909   8.268  0.00  0.00    -0.478 OA
ATOM     19  H   LIG    1       32.874 -21.291   8.078  0.00  0.00    +0.295 HD
ENDBRANCH  16  18
ENDBRANCH  14  16
ENDBRANCH  12  14
ENDBRANCH   1  12
TORSDOF 5
ENDMDL
MODEL 5
REMARK VINA RESULT:      -7.8      4.353      7.006
REMARK  Name = *****
REMARK                            x       y       z     vdW  Elec       q    Type
REMARK                         _______ _______ _______ _____ _____    ______ ____
ROOT
ATOM      1  C   LIG    1       25.603 -20.427   6.506  0.00  0.00    +0.122 A 
ATOM      2  C   LIG    1       26.535 -20.091   5.535  0.00  0.00    +0.046 A 
ATOM      3  C   LIG    1       27.904 -20.075   5.844  0.00  0.00    +0.007 A 
ATOM      4  C   LIG    1       28.384 -20.355   7.133  0.00  0.00    -0.041 A 
ATOM      5  C   LIG    1       27.431 -20.722   8.091  0.00  0.00    +0.007 A 
ATOM      6  C   LIG    1       26.064 -20.745   7.786  0.00  0.00    +0.046 A 
ENDROOT
BRANCH   4   7
ATOM      7  C   LIG    1       29.866 -20.294   7.430  0.00  0.00    +0.058 C 
ATOM      8  C   LIG    1       30.545 -19.156   8.168  0.00  0.00    +0.126 C 
ATOM      9 CL   LIG    1       31.928 -19.568   9.184  0.00  0.00    -0.100 Cl
ATOM     10 CL   LIG    1       29.662 -17.753   8.745  0.00  0.00    -0.100 Cl
ATOM     11  C   LIG    1       30.716 -19.287   6.683  0.00  0.00    +0.050 C 
ENDBRANCH   4   7
BRANCH   1  12
ATOM     12  O   LIG    1       24.249 -20.470   6.373  0.00  0.00    -0.475 OA
BRANCH  12  14
ATOM     13  C   LIG    1       23.102 -22.657   6.709  0.00  0.00    +0.067 C 
ATOM     14  C   LIG    1       23.525 -21.537   5.746  0.00  0.00    +0.200 C 
ATOM     15  C   LIG    1       22.220 -20.867   5.267  0.00  0.00    +0.067 C 
BRANCH  14  16
ATOM     16  C   LIG    1       24.200 -22.105   4.482  0.00  0.00    +0.348 C 
ATOM     17  O   LIG    1       24.216 -21.543   3.390  0.00  0.00    -0.246 OA
BRANCH  16  18
ATOM     18  O   LIG    1       24.838 -23.283   4.686  0.00  0.00    -0.478 OA
ATOM     19  H   LIG    1       25.377 -23.540   3.908  0.00  0.00    +0.295 HD
ENDBRANCH  16  18
ENDBRANCH  14  16
ENDBRANCH  12  14
ENDBRANCH   1  12
TORSDOF 5
ENDMDL
MODEL 6
REMARK VINA RESULT:      -7.7      1.046      1.684
REMARK  Name = *****
REMARK                            x       y       z     vdW  Elec       q    Type
REMARK                         _______ _______ _______ _____ _____    ______ ____
ROOT
ATOM      1  C   LIG    1       28.105 -20.337   7.601  0.00  0.00    +0.122 A 
ATOM      2  C   LIG    1       28.138 -20.223   6.220  0.00  0.00    +0.046 A 
ATOM      3  C   LIG    1       26.947 -20.247   5.479  0.00  0.00    +0.007 A 
ATOM      4  C   LIG    1       25.692 -20.421   6.084  0.00  0.00    -0.041 A 
ATOM      5  C   LIG    1       25.675 -20.503   7.482  0.00  0.00    +0.007 A 
ATOM      6  C   LIG    1       26.863 -20.473   8.226  0.00  0.00    +0.046 A 
ENDROOT
BRANCH   4   7
ATOM      7  C   LIG    1       24.435 -20.473   5.244  0.00  0.00    +0.058 C 
ATOM      8  C   LIG    1       23.393 -21.570   5.330  0.00  0.00    +0.126 C 
ATOM      9 CL   LIG    1       21.713 -21.109   5.046  0.00  0.00    -0.100 Cl
ATOM     10 CL   LIG    1       23.554 -22.934   6.425  0.00  0.00    -0.100 Cl
ATOM     11  C   LIG    1       24.329 -21.525   4.159  0.00  0.00    +0.050 C 
ENDBRANCH   4   7
BRANCH   1  12
ATOM     12  O   LIG    1       29.164 -20.352   8.457  0.00  0.00    -0.475 OA
BRANCH  12  14
ATOM     13  C   LIG    1       29.852 -18.091   9.249  0.00  0.00    +0.067 C 
ATOM     14  C   LIG    1       30.210 -19.370   8.476  0.00  0.00    +0.200 C 
ATOM     15  C   LIG    1       31.342 -20.052   9.272  0.00  0.00    +0.067 C 
BRANCH  14  16
ATOM     16  C   LIG    1       30.801 -19.046   7.090  0.00  0.00    +0.348 C 
ATOM     17  O   LIG    1       30.371 -18.175   6.338  0.00  0.00    -0.246 OA
BRANCH  16  18
ATOM     18  O   LIG    1       31.895 -19.781   6.777  0.00  0.00    -0.478 OA
ATOM     19  H   LIG    1       32.561 -19.248   6.293  0.00  0.00    +0.295 HD
ENDBRANCH  16  18
ENDBRANCH  14  16
ENDBRANCH  12  14
ENDBRANCH   1  12
TORSDOF 5
ENDMDL
MODEL 7
REMARK VINA RESULT:      -7.5      5.583      7.519
REMARK  Name = *****
REMARK                            x       y       z     vdW  Elec       q    Type
REMARK                         _______ _______ _______ _____ _____    ______ ____
ROOT
ATOM      1  C   LIG    1       24.039 -25.050   6.183  0.00  0.00    +0.122 A 
ATOM      2  C   LIG    1       25.072 -24.391   5.535  0.00  0.00    +0.046 A 
ATOM      3  C   LIG    1       25.062 -22.992   5.426  0.00  0.00    +0.007 A 
ATOM      4  C   LIG    1       24.009 -22.210   5.925  0.00  0.00    -0.041 A 
ATOM      5  C   LIG    1       22.990 -22.889   6.605  0.00  0.00    +0.007 A 
ATOM      6  C   LIG    1       22.999 -24.286   6.721  0.00  0.00    +0.046 A 
ENDROOT
BRANCH   4   7
ATOM      7  C   LIG    1       24.023 -20.707   5.758  0.00  0.00    +0.058 C 
ATOM      8  C   LIG    1       23.955 -19.994   4.422  0.00  0.00    +0.126 C 
ATOM      9 CL   LIG    1       23.113 -18.443   4.378  0.00  0.00    -0.100 Cl
ATOM     10 CL   LIG    1       23.873 -20.862   2.897  0.00  0.00    -0.100 Cl
ATOM     11  C   LIG    1       25.255 -20.052   5.168  0.00  0.00    +0.050 C 
ENDBRANCH   4   7
BRANCH   1  12
ATOM     12  O   LIG    1       23.891 -26.392   6.355  0.00  0.00    -0.475 OA
BRANCH  12  14
ATOM     13  C   LIG    1       25.678 -27.096   4.766  0.00  0.00    +0.067 C 
ATOM     14  C   LIG    1       24.903 -27.366   6.066  0.00  0.00    +0.200 C 
ATOM     15  C   LIG    1       25.919 -27.196   7.215  0.00  0.00    +0.067 C 
BRANCH  14  16
ATOM     16  C   LIG    1       24.418 -28.827   6.140  0.00  0.00    +0.348 C 
ATOM     17  O   LIG    1       24.916 -29.689   6.858  0.00  0.00    -0.246 OA
BRANCH  16  18
ATOM     18  O   LIG    1       23.334 -29.083   5.368  0.00  0.00    -0.478 OA
ATOM     19  H   LIG    1       23.308 -28.501   4.580  0.00  0.00    +0.295 HD
ENDBRANCH  16  18
ENDBRANCH  14  16
ENDBRANCH  12  14
ENDBRANCH   1  12
TORSDOF 5
ENDMDL
MODEL 8
REMARK VINA RESULT:      -7.4      4.361      7.097
REMARK  Name = *****
REMARK                            x       y       z     vdW  Elec       q    Type
REMARK                         _______ _______ _______ _____ _____    ______ ____
ROOT
ATOM      1  C   LIG    1       26.073 -21.017   5.956  0.00  0.00    +0.122 A 
ATOM      2  C   LIG    1       26.602 -21.740   7.014  0.00  0.00    +0.046 A 
ATOM      3  C   LIG    1       27.906 -21.485   7.464  0.00  0.00    +0.007 A 
ATOM      4  C   LIG    1       28.735 -20.531   6.854  0.00  0.00    -0.041 A 
ATOM      5  C   LIG    1       28.173 -19.788   5.808  0.00  0.00    +0.007 A 
ATOM      6  C   LIG    1       26.869 -20.035   5.360  0.00  0.00    +0.046 A 
ENDROOT
BRANCH   4   7
ATOM      7  C   LIG    1       30.147 -20.311   7.350  0.00  0.00    +0.058 C 
ATOM      8  C   LIG    1       30.594 -19.104   8.151  0.00  0.00    +0.126 C 
ATOM      9 CL   LIG    1       31.859 -19.360   9.356  0.00  0.00    -0.100 Cl
ATOM     10 CL   LIG    1       29.497 -17.799   8.574  0.00  0.00    -0.100 Cl
ATOM     11  C   LIG    1       30.983 -19.223   6.707  0.00  0.00    +0.050 C 
ENDBRANCH   4   7
BRANCH   1  12
ATOM     12  O   LIG    1       24.841 -21.155   5.392  0.00  0.00    -0.475 OA
BRANCH  12  14
ATOM     13  C   LIG    1       23.536 -20.792   7.484  0.00  0.00    +0.067 C 
ATOM     14  C   LIG    1       23.646 -21.481   6.115  0.00  0.00    +0.200 C 
ATOM     15  C   LIG    1       22.516 -20.892   5.246  0.00  0.00    +0.067 C 
BRANCH  14  16
ATOM     16  C   LIG    1       23.359 -22.992   6.219  0.00  0.00    +0.348 C 
ATOM     17  O   LIG    1       22.448 -23.483   6.879  0.00  0.00    -0.246 OA
BRANCH  16  18
ATOM     18  O   LIG    1       24.183 -23.758   5.462  0.00  0.00    -0.478 OA
ATOM     19  H   LIG    1       24.999 -23.273   5.215  0.00  0.00    +0.295 HD
ENDBRANCH  16  18
ENDBRANCH  14  16
ENDBRANCH  12  14
ENDBRANCH   1  12
TORSDOF 5
ENDMDL
MODEL 9
REMARK VINA RESULT:      -7.4      1.395      1.981
REMARK  Name = *****
REMARK                            x       y       z     vdW  Elec       q    Type
REMARK                         _______ _______ _______ _____ _____    ______ ____
ROOT
ATOM      1  C   LIG    1       28.734 -20.782   7.065  0.00  0.00    +0.122 A 
ATOM      2  C   LIG    1       27.612 -21.515   7.420  0.00  0.00    +0.046 A 
ATOM      3  C   LIG    1       26.408 -21.352   6.718  0.00  0.00    +0.007 A 
ATOM      4  C   LIG    1       26.273 -20.430   5.668  0.00  0.00    -0.041 A 
ATOM      5  C   LIG    1       27.424 -19.722   5.303  0.00  0.00    +0.007 A 
ATOM      6  C   LIG    1       28.631 -19.887   5.997  0.00  0.00    +0.046 A 
ENDROOT
BRANCH   4   7
ATOM      7  C   LIG    1       24.947 -20.262   4.959  0.00  0.00    +0.058 C 
ATOM      8  C   LIG    1       23.595 -20.370   5.636  0.00  0.00    +0.126 C 
ATOM      9 CL   LIG    1       22.300 -19.342   5.018  0.00  0.00    -0.100 Cl
ATOM     10 CL   LIG    1       23.428 -20.731   7.347  0.00  0.00    -0.100 Cl
ATOM     11  C   LIG    1       24.074 -21.482   4.751  0.00  0.00    +0.050 C 
ENDBRANCH   4   7
BRANCH   1  12
ATOM     12  O   LIG    1       29.961 -20.810   7.653  0.00  0.00    -0.475 OA
BRANCH  12  14
ATOM     13  C   LIG    1       29.517 -18.800   9.058  0.00  0.00    +0.067 C 
ATOM     14  C   LIG    1       30.544 -19.715   8.373  0.00  0.00    +0.200 C 
ATOM     15  C   LIG    1       31.335 -20.398   9.508  0.00  0.00    +0.067 C 
BRANCH  14  16
ATOM     16  C   LIG    1       31.575 -18.902   7.566  0.00  0.00    +0.348 C 
ATOM     17  O   LIG    1       32.025 -19.239   6.474  0.00  0.00    -0.246 OA
BRANCH  16  18
ATOM     18  O   LIG    1       31.921 -17.728   8.147  0.00  0.00    -0.478 OA
ATOM     19  H   LIG    1       32.691 -17.835   8.746  0.00  0.00    +0.295 HD
ENDBRANCH  16  18
ENDBRANCH  14  16
ENDBRANCH  12  14
ENDBRANCH   1  12
TORSDOF 5
ENDMDL
