MODEL 1
REMARK VINA RESULT:      50.4      0.000      0.000
REMARK  Name = *****
REMARK                            x       y       z     vdW  Elec       q    Type
REMARK                         _______ _______ _______ _____ _____    ______ ____
ROOT
ATOM      1  C   LIG    1       22.913 -18.964   3.603  0.00  0.00    +0.176 C 
ATOM      2  O   LIG    1       22.737 -17.601   3.143  0.00  0.00    -0.461 OA
ATOM      3  C   LIG    1       22.509 -16.680   4.148  0.00  0.00    +0.308 C 
ATOM      4  O   LIG    1       22.085 -16.889   5.265  0.00  0.00    -0.251 OA
ATOM      5  C   LIG    1       22.887 -15.321   3.557  0.00  0.00    +0.129 C 
ATOM      6  C   LIG    1       24.390 -14.938   3.624  0.00  0.00    +0.040 C 
ATOM      7  C   LIG    1       25.412 -15.981   3.182  0.00  0.00    -0.004 C 
ATOM      8  C   LIG    1       26.070 -15.618   2.088  0.00  0.00    -0.015 C 
ATOM      9  C   LIG    1       25.914 -14.162   1.816  0.00  0.00    +0.023 C 
ATOM     10  C   LIG    1       27.194 -13.423   2.262  0.00  0.00    +0.006 C 
ATOM     11  C   LIG    1       27.003 -11.908   2.254  0.00  0.00    +0.018 C 
ATOM     12  C   LIG    1       28.272 -11.450   2.996  0.00  0.00    +0.039 C 
ATOM     13  C   LIG    1       28.487 -12.464   4.138  0.00  0.00    +0.120 C 
ATOM     14  C   LIG    1       25.717 -11.522   2.951  0.00  0.00    -0.027 C 
ATOM     15  C   LIG    1       24.692 -12.370   3.147  0.00  0.00    -0.026 C 
ATOM     16  C   LIG    1       27.652 -13.674   3.715  0.00  0.00    +0.036 C 
ATOM     17  C   LIG    1       25.791 -17.094   4.109  0.00  0.00    +0.165 C 
ATOM     18  O   LIG    1       25.037 -17.261   5.066  0.00  0.00    -0.292 OA
ATOM     19  C   LIG    1       27.148 -17.837   4.062  0.00  0.00    +0.086 C 
ATOM     20  C   LIG    1       27.993 -17.859   2.792  0.00  0.00    +0.018 C 
ATOM     21  C   LIG    1       27.033 -19.284   4.626  0.00  0.00    +0.132 C 
ATOM     22  C   LIG    1       26.433 -20.334   3.643  0.00  0.00    +0.032 C 
ATOM     23  C   LIG    1       24.915 -20.548   3.604  0.00  0.00    +0.006 C 
ATOM     24  C   LIG    1       24.647 -13.777   2.603  0.00  0.00    +0.027 C 
ATOM     25  C   LIG    1       24.135 -19.500   2.804  0.00  0.00    +0.045 C 
ENDROOT
BRANCH   1  27
ATOM     26  C   LIG    1       20.392 -18.984   3.317  0.00  0.00    +0.007 C 
ATOM     27  C   LIG    1       21.671 -19.808   3.319  0.00  0.00    +0.041 C 
ENDBRANCH   1  27
BRANCH  13  28
ATOM     28  O   LIG    1       28.033 -11.892   5.368  0.00  0.00    -0.371 OA
BRANCH  28  29
ATOM     29  C   LIG    1       27.634 -12.799   6.410  0.00  0.00    +0.150 C 
ATOM     30  C   LIG    1       26.241 -13.387   6.065  0.00  0.00    +0.178 C 
ATOM     31  C   LIG    1       26.308 -13.917   4.615  0.00  0.00    +0.178 C 
ATOM     32  C   LIG    1       27.471 -14.915   4.360  0.00  0.00    +0.152 C 
ATOM     33  C   LIG    1       28.593 -14.993   5.434  0.00  0.00    +0.020 C 
ATOM     34  C   LIG    1       28.759 -16.418   5.978  0.00  0.00    +0.010 C 
ATOM     35  C   LIG    1       28.565 -13.998   6.610  0.00  0.00    +0.040 C 
BRANCH  30  36
ATOM     36  O   LIG    1       25.838 -14.429   6.974  0.00  0.00    -0.375 OA
ATOM     37  C   LIG    1       24.428 -14.600   7.057  0.00  0.00    +0.194 C 
ENDBRANCH  30  36
BRANCH  31  38
ATOM     38  O   LIG    1       25.095 -14.544   4.136  0.00  0.00    -0.374 OA
ATOM     39  C   LIG    1       24.022 -13.645   3.903  0.00  0.00    +0.194 C 
ENDBRANCH  31  38
BRANCH  32  40
ATOM     40  O   LIG    1       28.192 -14.565   3.144  0.00  0.00    -0.377 OA
ATOM     41  C   LIG    1       29.422 -13.881   3.312  0.00  0.00    +0.194 C 
ENDBRANCH  32  40
ENDBRANCH  28  29
ENDBRANCH  13  28
BRANCH  21  42
ATOM     42  O   LIG    1       26.418 -19.382   5.917  0.00  0.00    -0.347 OA
BRANCH  42  43
ATOM     43  C   LIG    1       25.386 -20.379   6.025  0.00  0.00    +0.251 C 
ATOM     44  O   LIG    1       24.783 -20.569   4.757  0.00  0.00    -0.347 OA
ATOM     45  C   LIG    1       23.642 -21.448   4.739  0.00  0.00    +0.135 C 
ATOM     46  C   LIG    1       23.359 -21.564   3.245  0.00  0.00    +0.039 C 
ATOM     47  C   LIG    1       22.491 -20.846   5.627  0.00  0.00    +0.085 C 
ATOM     48  C   LIG    1       23.099 -20.728   7.053  0.00  0.00    +0.026 C 
ATOM     49  C   LIG    1       24.377 -19.895   7.052  0.00  0.00    +0.063 C 
BRANCH  47  50
ATOM     50  N   LIG    1       21.179 -21.568   5.664  0.00  0.00    -0.303 NA
ATOM     51  C   LIG    1       20.433 -21.289   6.908  0.00  0.00    +0.105 C 
ATOM     52  C   LIG    1       20.288 -21.191   4.559  0.00  0.00    +0.105 C 
ENDBRANCH  47  50
ENDBRANCH  42  43
ENDBRANCH  21  42
TORSDOF 9
ENDMDL
