MODEL 1
REMARK VINA RESULT:      -7.9      0.000      0.000
REMARK  Name = *****
REMARK                            x       y       z     vdW  Elec       q    Type
REMARK                         _______ _______ _______ _____ _____    ______ ____
ROOT
ATOM      1  C   LIG    1       28.009 -20.905   7.542  0.00  0.00    +0.317 C 
ATOM      2  O   LIG    1       28.301 -21.622   8.495  0.00  0.00    -0.250 OA
ENDROOT
BRANCH   1   3
ATOM      3  O   LIG    1       26.736 -20.698   7.085  0.00  0.00    -0.461 OA
BRANCH   3   8
ATOM      4  C   LIG    1       22.761 -23.279   6.844  0.00  0.00    +0.105 C 
ATOM      5  N   LIG    1       23.303 -22.249   5.974  0.00  0.00    -0.299 NA
ATOM      6  C   LIG    1       24.621 -22.536   5.399  0.00  0.00    +0.060 C 
ATOM      7  C   LIG    1       25.672 -22.798   6.489  0.00  0.00    +0.063 C 
ATOM      8  C   LIG    1       25.762 -21.667   7.530  0.00  0.00    +0.179 C 
ATOM      9  C   LIG    1       24.429 -20.943   7.788  0.00  0.00    +0.063 C 
ATOM     10  C   LIG    1       24.886 -21.232   4.635  0.00  0.00    +0.020 C 
ATOM     11  C   LIG    1       24.090 -20.168   5.396  0.00  0.00    +0.020 C 
ATOM     12  C   LIG    1       23.479 -20.923   6.578  0.00  0.00    +0.060 C 
ENDBRANCH   3   8
ENDBRANCH   1   3
BRANCH   1  13
ATOM     13  C   LIG    1       29.006 -20.146   6.685  0.00  0.00    +0.153 C 
BRANCH  13  14
ATOM     14  C   LIG    1       29.889 -19.228   7.519  0.00  0.00    -0.032 A 
ATOM     15  C   LIG    1       29.351 -18.400   8.519  0.00  0.00    +0.004 A 
ATOM     16  C   LIG    1       30.178 -17.589   9.300  0.00  0.00    +0.000 A 
ATOM     17  C   LIG    1       31.554 -17.586   9.089  0.00  0.00    +0.000 A 
ATOM     18  C   LIG    1       32.103 -18.392   8.094  0.00  0.00    +0.000 A 
ATOM     19  C   LIG    1       31.278 -19.207   7.315  0.00  0.00    +0.004 A 
ENDBRANCH  13  14
BRANCH  13  20
ATOM     20  C   LIG    1       28.232 -19.399   5.595  0.00  0.00    +0.175 C 
BRANCH  20  21
ATOM     21  O   LIG    1       29.023 -18.367   5.003  0.00  0.00    -0.394 OA
ATOM     22  H   LIG    1       29.936 -18.689   4.910  0.00  0.00    +0.209 HD
ENDBRANCH  20  21
ENDBRANCH  13  20
ENDBRANCH   1  13
TORSDOF 6
ENDMDL
MODEL 2
REMARK VINA RESULT:      -7.6      1.424      2.748
REMARK  Name = *****
REMARK                            x       y       z     vdW  Elec       q    Type
REMARK                         _______ _______ _______ _____ _____    ______ ____
ROOT
ATOM      1  C   LIG    1       29.179 -20.193   7.092  0.00  0.00    +0.317 C 
ATOM      2  O   LIG    1       29.611 -19.504   6.171  0.00  0.00    -0.250 OA
ENDROOT
BRANCH   1   3
ATOM      3  O   LIG    1       28.083 -21.008   7.006  0.00  0.00    -0.461 OA
BRANCH   3   8
ATOM      4  C   LIG    1       23.354 -20.629   7.089  0.00  0.00    +0.105 C 
ATOM      5  N   LIG    1       24.236 -21.784   7.125  0.00  0.00    -0.299 NA
ATOM      6  C   LIG    1       25.173 -21.829   8.251  0.00  0.00    +0.060 C 
ATOM      7  C   LIG    1       26.070 -20.582   8.294  0.00  0.00    +0.063 C 
ATOM      8  C   LIG    1       26.813 -20.322   6.972  0.00  0.00    +0.179 C 
ATOM      9  C   LIG    1       26.043 -20.774   5.718  0.00  0.00    +0.063 C 
ATOM     10  C   LIG    1       25.961 -23.102   7.912  0.00  0.00    +0.020 C 
ATOM     11  C   LIG    1       25.875 -23.216   6.388  0.00  0.00    +0.020 C 
ATOM     12  C   LIG    1       25.102 -21.968   5.955  0.00  0.00    +0.060 C 
ENDBRANCH   3   8
ENDBRANCH   1   3
BRANCH   1  13
ATOM     13  C   LIG    1       29.764 -20.243   8.492  0.00  0.00    +0.153 C 
BRANCH  13  14
ATOM     14  C   LIG    1       30.449 -18.936   8.868  0.00  0.00    -0.032 A 
ATOM     15  C   LIG    1       29.814 -17.981   9.682  0.00  0.00    +0.004 A 
ATOM     16  C   LIG    1       30.467 -16.802  10.047  0.00  0.00    +0.000 A 
ATOM     17  C   LIG    1       31.762 -16.553   9.598  0.00  0.00    +0.000 A 
ATOM     18  C   LIG    1       32.401 -17.482   8.781  0.00  0.00    +0.000 A 
ATOM     19  C   LIG    1       31.751 -18.665   8.418  0.00  0.00    +0.004 A 
ENDBRANCH  13  14
BRANCH  13  20
ATOM     20  C   LIG    1       30.700 -21.451   8.579  0.00  0.00    +0.175 C 
BRANCH  20  21
ATOM     21  O   LIG    1       30.987 -21.798   9.935  0.00  0.00    -0.394 OA
ATOM     22  H   LIG    1       31.581 -22.567   9.941  0.00  0.00    +0.209 HD
ENDBRANCH  20  21
ENDBRANCH  13  20
ENDBRANCH   1  13
TORSDOF 6
ENDMDL
MODEL 3
REMARK VINA RESULT:      -7.6      1.179      2.171
REMARK  Name = *****
REMARK                            x       y       z     vdW  Elec       q    Type
REMARK                         _______ _______ _______ _____ _____    ______ ____
ROOT
ATOM      1  C   LIG    1       29.023 -20.846   7.478  0.00  0.00    +0.317 C 
ATOM      2  O   LIG    1       29.207 -21.400   8.559  0.00  0.00    -0.250 OA
ENDROOT
BRANCH   1   3
ATOM      3  O   LIG    1       28.008 -21.148   6.612  0.00  0.00    -0.461 OA
BRANCH   3   8
ATOM      4  C   LIG    1       23.360 -20.634   7.422  0.00  0.00    +0.105 C 
ATOM      5  N   LIG    1       24.184 -21.812   7.209  0.00  0.00    -0.299 NA
ATOM      6  C   LIG    1       25.268 -22.009   8.176  0.00  0.00    +0.060 C 
ATOM      7  C   LIG    1       26.219 -20.803   8.217  0.00  0.00    +0.063 C 
ATOM      8  C   LIG    1       26.779 -20.423   6.834  0.00  0.00    +0.179 C 
ATOM      9  C   LIG    1       25.819 -20.712   5.667  0.00  0.00    +0.063 C 
ATOM     10  C   LIG    1       25.940 -23.262   7.596  0.00  0.00    +0.020 C 
ATOM     11  C   LIG    1       25.634 -23.206   6.097  0.00  0.00    +0.020 C 
ATOM     12  C   LIG    1       24.866 -21.895   5.913  0.00  0.00    +0.060 C 
ENDBRANCH   3   8
ENDBRANCH   1   3
BRANCH   1  13
ATOM     13  C   LIG    1       29.900 -19.751   6.899  0.00  0.00    +0.153 C 
BRANCH  13  14
ATOM     14  C   LIG    1       30.440 -18.825   7.981  0.00  0.00    -0.032 A 
ATOM     15  C   LIG    1       31.802 -18.484   8.046  0.00  0.00    +0.004 A 
ATOM     16  C   LIG    1       32.276 -17.606   9.022  0.00  0.00    +0.000 A 
ATOM     17  C   LIG    1       31.399 -17.061   9.957  0.00  0.00    +0.000 A 
ATOM     18  C   LIG    1       30.048 -17.397   9.915  0.00  0.00    +0.000 A 
ATOM     19  C   LIG    1       29.571 -18.272   8.935  0.00  0.00    +0.004 A 
ENDBRANCH  13  14
BRANCH  13  20
ATOM     20  C   LIG    1       29.099 -19.009   5.826  0.00  0.00    +0.175 C 
BRANCH  20  21
ATOM     21  O   LIG    1       29.892 -18.021   5.166  0.00  0.00    -0.394 OA
ATOM     22  H   LIG    1       29.394 -17.186   5.144  0.00  0.00    +0.209 HD
ENDBRANCH  20  21
ENDBRANCH  13  20
ENDBRANCH   1  13
TORSDOF 6
ENDMDL
MODEL 4
REMARK VINA RESULT:      -7.6      1.625      2.980
REMARK  Name = *****
REMARK                            x       y       z     vdW  Elec       q    Type
REMARK                         _______ _______ _______ _____ _____    ______ ____
ROOT
ATOM      1  C   LIG    1       29.311 -19.362   7.431  0.00  0.00    +0.317 C 
ATOM      2  O   LIG    1       29.707 -18.746   6.445  0.00  0.00    -0.250 OA
ENDROOT
BRANCH   1   3
ATOM      3  O   LIG    1       28.042 -19.853   7.584  0.00  0.00    -0.461 OA
BRANCH   3   8
ATOM      4  C   LIG    1       25.184 -23.047   5.548  0.00  0.00    +0.105 C 
ATOM      5  N   LIG    1       25.083 -22.312   6.797  0.00  0.00    -0.299 NA
ATOM      6  C   LIG    1       25.065 -20.852   6.671  0.00  0.00    +0.060 C 
ATOM      7  C   LIG    1       26.314 -20.328   5.946  0.00  0.00    +0.063 C 
ATOM      8  C   LIG    1       27.632 -20.807   6.581  0.00  0.00    +0.179 C 
ATOM      9  C   LIG    1       27.545 -22.199   7.232  0.00  0.00    +0.063 C 
ATOM     10  C   LIG    1       25.035 -20.441   8.150  0.00  0.00    +0.020 C 
ATOM     11  C   LIG    1       25.719 -21.596   8.887  0.00  0.00    +0.020 C 
ATOM     12  C   LIG    1       26.150 -22.555   7.774  0.00  0.00    +0.060 C 
ENDBRANCH   3   8
ENDBRANCH   1   3
BRANCH   1  13
ATOM     13  C   LIG    1       30.144 -19.665   8.663  0.00  0.00    +0.153 C 
BRANCH  13  14
ATOM     14  C   LIG    1       30.741 -18.402   9.269  0.00  0.00    -0.032 A 
ATOM     15  C   LIG    1       30.197 -17.812  10.423  0.00  0.00    +0.004 A 
ATOM     16  C   LIG    1       30.776 -16.674  10.987  0.00  0.00    +0.000 A 
ATOM     17  C   LIG    1       31.902 -16.100  10.403  0.00  0.00    +0.000 A 
ATOM     18  C   LIG    1       32.447 -16.664   9.253  0.00  0.00    +0.000 A 
ATOM     19  C   LIG    1       31.872 -17.807   8.689  0.00  0.00    +0.004 A 
ENDBRANCH  13  14
BRANCH  13  20
ATOM     20  C   LIG    1       31.205 -20.702   8.282  0.00  0.00    +0.175 C 
BRANCH  20  21
ATOM     21  O   LIG    1       32.056 -21.013   9.387  0.00  0.00    -0.394 OA
ATOM     22  H   LIG    1       32.636 -20.252   9.558  0.00  0.00    +0.209 HD
ENDBRANCH  20  21
ENDBRANCH  13  20
ENDBRANCH   1  13
TORSDOF 6
ENDMDL
MODEL 5
REMARK VINA RESULT:      -7.2      2.490      6.740
REMARK  Name = *****
REMARK                            x       y       z     vdW  Elec       q    Type
REMARK                         _______ _______ _______ _____ _____    ______ ____
ROOT
ATOM      1  C   LIG    1       26.772 -20.685   7.997  0.00  0.00    +0.317 C 
ATOM      2  O   LIG    1       26.483 -20.728   9.190  0.00  0.00    -0.250 OA
ENDROOT
BRANCH   1   3
ATOM      3  O   LIG    1       28.049 -20.623   7.507  0.00  0.00    -0.461 OA
BRANCH   3   8
ATOM      4  C   LIG    1       31.912 -18.373   9.097  0.00  0.00    +0.105 C 
ATOM      5  N   LIG    1       31.277 -18.406   7.791  0.00  0.00    -0.299 NA
ATOM      6  C   LIG    1       29.891 -17.932   7.749  0.00  0.00    +0.060 C 
ATOM      7  C   LIG    1       28.988 -18.730   8.703  0.00  0.00    +0.063 C 
ATOM      8  C   LIG    1       29.056 -20.251   8.473  0.00  0.00    +0.179 C 
ATOM      9  C   LIG    1       30.423 -20.751   7.975  0.00  0.00    +0.063 C 
ATOM     10  C   LIG    1       29.549 -18.186   6.275  0.00  0.00    +0.020 C 
ATOM     11  C   LIG    1       30.456 -19.348   5.861  0.00  0.00    +0.020 C 
ATOM     12  C   LIG    1       31.206 -19.720   7.143  0.00  0.00    +0.060 C 
ENDBRANCH   3   8
ENDBRANCH   1   3
BRANCH   1  13
ATOM     13  C   LIG    1       25.769 -20.664   6.858  0.00  0.00    +0.153 C 
BRANCH  13  14
ATOM     14  C   LIG    1       24.989 -21.969   6.764  0.00  0.00    -0.032 A 
ATOM     15  C   LIG    1       25.641 -23.209   6.649  0.00  0.00    +0.004 A 
ATOM     16  C   LIG    1       24.914 -24.399   6.599  0.00  0.00    +0.000 A 
ATOM     17  C   LIG    1       23.523 -24.371   6.655  0.00  0.00    +0.000 A 
ATOM     18  C   LIG    1       22.860 -23.150   6.757  0.00  0.00    +0.000 A 
ATOM     19  C   LIG    1       23.586 -21.957   6.811  0.00  0.00    +0.004 A 
ENDBRANCH  13  14
BRANCH  13  20
ATOM     20  C   LIG    1       26.517 -20.323   5.566  0.00  0.00    +0.175 C 
BRANCH  20  21
ATOM     21  O   LIG    1       25.718 -20.587   4.411  0.00  0.00    -0.394 OA
ATOM     22  H   LIG    1       26.304 -20.840   3.678  0.00  0.00    +0.209 HD
ENDBRANCH  20  21
ENDBRANCH  13  20
ENDBRANCH   1  13
TORSDOF 6
ENDMDL
MODEL 6
REMARK VINA RESULT:      -7.2      6.571      9.092
REMARK  Name = *****
REMARK                            x       y       z     vdW  Elec       q    Type
REMARK                         _______ _______ _______ _____ _____    ______ ____
ROOT
ATOM      1  C   LIG    1       24.836 -28.070   6.414  0.00  0.00    +0.317 C 
ATOM      2  O   LIG    1       24.030 -28.487   5.587  0.00  0.00    -0.250 OA
ENDROOT
BRANCH   1   3
ATOM      3  O   LIG    1       24.958 -28.547   7.691  0.00  0.00    -0.461 OA
BRANCH   3   8
ATOM      4  C   LIG    1       24.755 -32.766   9.853  0.00  0.00    +0.105 C 
ATOM      5  N   LIG    1       25.496 -31.554  10.159  0.00  0.00    -0.299 NA
ATOM      6  C   LIG    1       24.681 -30.360  10.399  0.00  0.00    +0.060 C 
ATOM      7  C   LIG    1       23.776 -30.038   9.200  0.00  0.00    +0.063 C 
ATOM      8  C   LIG    1       24.545 -29.919   7.872  0.00  0.00    +0.179 C 
ATOM      9  C   LIG    1       25.788 -30.822   7.783  0.00  0.00    +0.063 C 
ATOM     10  C   LIG    1       25.779 -29.305  10.600  0.00  0.00    +0.020 C 
ATOM     11  C   LIG    1       26.972 -29.829   9.796  0.00  0.00    +0.020 C 
ATOM     12  C   LIG    1       26.454 -31.112   9.140  0.00  0.00    +0.060 C 
ENDBRANCH   3   8
ENDBRANCH   1   3
BRANCH   1  13
ATOM     13  C   LIG    1       25.819 -26.938   6.179  0.00  0.00    +0.153 C 
BRANCH  13  14
ATOM     14  C   LIG    1       25.197 -25.577   6.463  0.00  0.00    -0.032 A 
ATOM     15  C   LIG    1       23.814 -25.360   6.333  0.00  0.00    +0.004 A 
ATOM     16  C   LIG    1       23.252 -24.116   6.630  0.00  0.00    +0.000 A 
ATOM     17  C   LIG    1       24.064 -23.067   7.053  0.00  0.00    +0.000 A 
ATOM     18  C   LIG    1       25.438 -23.261   7.175  0.00  0.00    +0.000 A 
ATOM     19  C   LIG    1       26.001 -24.506   6.883  0.00  0.00    +0.004 A 
ENDBRANCH  13  14
BRANCH  13  20
ATOM     20  C   LIG    1       26.361 -27.059   4.752  0.00  0.00    +0.175 C 
BRANCH  20  21
ATOM     21  O   LIG    1       27.764 -27.327   4.743  0.00  0.00    -0.394 OA
ATOM     22  H   LIG    1       28.226 -26.555   4.375  0.00  0.00    +0.209 HD
ENDBRANCH  20  21
ENDBRANCH  13  20
ENDBRANCH   1  13
TORSDOF 6
ENDMDL
MODEL 7
REMARK VINA RESULT:      -7.2      2.368      6.282
REMARK  Name = *****
REMARK                            x       y       z     vdW  Elec       q    Type
REMARK                         _______ _______ _______ _____ _____    ______ ____
ROOT
ATOM      1  C   LIG    1       25.710 -20.910   7.722  0.00  0.00    +0.317 C 
ATOM      2  O   LIG    1       25.085 -21.242   8.725  0.00  0.00    -0.250 OA
ENDROOT
BRANCH   1   3
ATOM      3  O   LIG    1       26.707 -19.973   7.702  0.00  0.00    -0.461 OA
BRANCH   3   8
ATOM      4  C   LIG    1       31.344 -20.475   8.579  0.00  0.00    +0.105 C 
ATOM      5  N   LIG    1       30.621 -20.066   7.387  0.00  0.00    -0.299 NA
ATOM      6  C   LIG    1       29.783 -18.873   7.534  0.00  0.00    +0.060 C 
ATOM      7  C   LIG    1       28.741 -19.043   8.650  0.00  0.00    +0.063 C 
ATOM      8  C   LIG    1       27.874 -20.305   8.485  0.00  0.00    +0.179 C 
ATOM      9  C   LIG    1       28.601 -21.482   7.810  0.00  0.00    +0.063 C 
ATOM     10  C   LIG    1       29.140 -18.806   6.141  0.00  0.00    +0.020 C 
ATOM     11  C   LIG    1       29.126 -20.256   5.651  0.00  0.00    +0.020 C 
ATOM     12  C   LIG    1       29.701 -21.059   6.820  0.00  0.00    +0.060 C 
ENDBRANCH   3   8
ENDBRANCH   1   3
BRANCH   1  13
ATOM     13  C   LIG    1       25.473 -21.457   6.326  0.00  0.00    +0.153 C 
BRANCH  13  14
ATOM     14  C   LIG    1       24.552 -20.556   5.513  0.00  0.00    -0.032 A 
ATOM     15  C   LIG    1       23.224 -20.314   5.907  0.00  0.00    +0.004 A 
ATOM     16  C   LIG    1       22.403 -19.459   5.170  0.00  0.00    +0.000 A 
ATOM     17  C   LIG    1       22.891 -18.839   4.023  0.00  0.00    +0.000 A 
ATOM     18  C   LIG    1       24.200 -19.076   3.611  0.00  0.00    +0.000 A 
ATOM     19  C   LIG    1       25.025 -19.929   4.350  0.00  0.00    +0.004 A 
ENDBRANCH  13  14
BRANCH  13  20
ATOM     20  C   LIG    1       24.945 -22.888   6.453  0.00  0.00    +0.175 C 
BRANCH  20  21
ATOM     21  O   LIG    1       25.795 -23.690   7.276  0.00  0.00    -0.394 OA
ATOM     22  H   LIG    1       25.973 -24.528   6.816  0.00  0.00    +0.209 HD
ENDBRANCH  20  21
ENDBRANCH  13  20
ENDBRANCH   1  13
TORSDOF 6
ENDMDL
MODEL 8
REMARK VINA RESULT:      -7.1      4.828      6.423
REMARK  Name = *****
REMARK                            x       y       z     vdW  Elec       q    Type
REMARK                         _______ _______ _______ _____ _____    ______ ____
ROOT
ATOM      1  C   LIG    1       25.206 -22.958   6.154  0.00  0.00    +0.317 C 
ATOM      2  O   LIG    1       26.218 -22.419   6.594  0.00  0.00    -0.250 OA
ENDROOT
BRANCH   1   3
ATOM      3  O   LIG    1       25.171 -24.202   5.584  0.00  0.00    -0.461 OA
BRANCH   3   8
ATOM      4  C   LIG    1       24.567 -28.590   7.287  0.00  0.00    +0.105 C 
ATOM      5  N   LIG    1       25.460 -28.057   6.272  0.00  0.00    -0.299 NA
ATOM      6  C   LIG    1       26.385 -27.015   6.727  0.00  0.00    +0.060 C 
ATOM      7  C   LIG    1       25.638 -25.818   7.335  0.00  0.00    +0.063 C 
ATOM      8  C   LIG    1       24.567 -25.230   6.398  0.00  0.00    +0.179 C 
ATOM      9  C   LIG    1       23.906 -26.266   5.472  0.00  0.00    +0.063 C 
ATOM     10  C   LIG    1       27.081 -26.658   5.406  0.00  0.00    +0.020 C 
ATOM     11  C   LIG    1       26.050 -26.990   4.323  0.00  0.00    +0.020 C 
ATOM     12  C   LIG    1       24.815 -27.451   5.102  0.00  0.00    +0.060 C 
ENDBRANCH   3   8
ENDBRANCH   1   3
BRANCH   1  13
ATOM     13  C   LIG    1       23.822 -22.333   6.138  0.00  0.00    +0.153 C 
BRANCH  13  14
ATOM     14  C   LIG    1       23.775 -21.080   5.274  0.00  0.00    -0.032 A 
ATOM     15  C   LIG    1       24.787 -20.791   4.342  0.00  0.00    +0.004 A 
ATOM     16  C   LIG    1       24.713 -19.656   3.532  0.00  0.00    +0.000 A 
ATOM     17  C   LIG    1       23.632 -18.786   3.646  0.00  0.00    +0.000 A 
ATOM     18  C   LIG    1       22.626 -19.051   4.573  0.00  0.00    +0.000 A 
ATOM     19  C   LIG    1       22.696 -20.189   5.381  0.00  0.00    +0.004 A 
ENDBRANCH  13  14
BRANCH  13  20
ATOM     20  C   LIG    1       23.395 -22.075   7.586  0.00  0.00    +0.175 C 
BRANCH  20  21
ATOM     21  O   LIG    1       24.356 -21.282   8.284  0.00  0.00    -0.394 OA
ATOM     22  H   LIG    1       24.575 -21.725   9.122  0.00  0.00    +0.209 HD
ENDBRANCH  20  21
ENDBRANCH  13  20
ENDBRANCH   1  13
TORSDOF 6
ENDMDL
MODEL 9
REMARK VINA RESULT:      -7.0      4.155      7.425
REMARK  Name = *****
REMARK                            x       y       z     vdW  Elec       q    Type
REMARK                         _______ _______ _______ _____ _____    ______ ____
ROOT
ATOM      1  C   LIG    1       25.714 -25.321   6.351  0.00  0.00    +0.317 C 
ATOM      2  O   LIG    1       26.875 -24.952   6.202  0.00  0.00    -0.250 OA
ENDROOT
BRANCH   1   3
ATOM      3  O   LIG    1       24.742 -24.597   6.988  0.00  0.00    -0.461 OA
BRANCH   3   8
ATOM      4  C   LIG    1       22.749 -20.797   4.962  0.00  0.00    +0.105 C 
ATOM      5  N   LIG    1       23.770 -20.927   5.988  0.00  0.00    -0.299 NA
ATOM      6  C   LIG    1       24.980 -21.651   5.588  0.00  0.00    +0.060 C 
ATOM      7  C   LIG    1       24.656 -23.072   5.101  0.00  0.00    +0.063 C 
ATOM      8  C   LIG    1       23.836 -23.891   6.115  0.00  0.00    +0.179 C 
ATOM      9  C   LIG    1       22.880 -23.046   6.976  0.00  0.00    +0.063 C 
ATOM     10  C   LIG    1       25.759 -21.652   6.910  0.00  0.00    +0.020 C 
ATOM     11  C   LIG    1       24.681 -21.578   7.995  0.00  0.00    +0.020 C 
ATOM     12  C   LIG    1       23.360 -21.605   7.222  0.00  0.00    +0.060 C 
ENDBRANCH   3   8
ENDBRANCH   1   3
BRANCH   1  13
ATOM     13  C   LIG    1       25.155 -26.652   5.881  0.00  0.00    +0.153 C 
BRANCH  13  14
ATOM     14  C   LIG    1       25.265 -27.725   6.956  0.00  0.00    -0.032 A 
ATOM     15  C   LIG    1       26.200 -27.625   8.002  0.00  0.00    +0.004 A 
ATOM     16  C   LIG    1       26.266 -28.600   9.000  0.00  0.00    +0.000 A 
ATOM     17  C   LIG    1       25.406 -29.695   8.965  0.00  0.00    +0.000 A 
ATOM     18  C   LIG    1       24.483 -29.816   7.929  0.00  0.00    +0.000 A 
ATOM     19  C   LIG    1       24.412 -28.840   6.932  0.00  0.00    +0.004 A 
ENDBRANCH  13  14
BRANCH  13  20
ATOM     20  C   LIG    1       25.863 -27.038   4.579  0.00  0.00    +0.175 C 
BRANCH  20  21
ATOM     21  O   LIG    1       27.258 -27.265   4.787  0.00  0.00    -0.394 OA
ATOM     22  H   LIG    1       27.748 -26.477   4.497  0.00  0.00    +0.209 HD
ENDBRANCH  20  21
ENDBRANCH  13  20
ENDBRANCH   1  13
TORSDOF 6
ENDMDL
