MODEL 1
REMARK VINA RESULT:      -3.7      0.000      0.000
REMARK  Name = *****
REMARK                            x       y       z     vdW  Elec       q    Type
REMARK                         _______ _______ _______ _____ _____    ______ ____
ROOT
ATOM      1  C   LIG    1       24.948 -18.528   3.635  0.00  0.00    +0.033 C 
ATOM      2  C   LIG    1       25.843 -19.532   4.255  0.00  0.00    +0.257 C 
ATOM      3  O   LIG    1       25.472 -20.670   4.507  0.00  0.00    -0.267 OA
ATOM      4  N   LIG    1       27.108 -19.101   4.537  0.00  0.00    -0.275 N 
ATOM      5  H   LIG    1       27.726 -19.768   4.973  0.00  0.00    +0.173 HD
ATOM      6  C   LIG    1       27.590 -17.829   4.377  0.00  0.00    +0.331 C 
ATOM      7  O   LIG    1       28.730 -17.551   4.744  0.00  0.00    -0.246 OA
ATOM      8  N   LIG    1       26.719 -16.924   3.782  0.00  0.00    -0.274 N 
ATOM      9  C   LIG    1       25.425 -17.289   3.458  0.00  0.00    +0.102 C 
ENDROOT
BRANCH   8  10
ATOM     10  C1* LIG    1       27.192 -15.547   3.589  0.00  0.00    +0.226 C 
ATOM     11  O4* LIG    1       26.857 -14.721   4.727  0.00  0.00    -0.348 OA
ATOM     12  C4* LIG    1       25.967 -13.664   4.299  0.00  0.00    +0.175 C 
ATOM     13  C3* LIG    1       26.338 -13.448   2.841  0.00  0.00    +0.150 C 
ATOM     14  C2* LIG    1       26.609 -14.853   2.355  0.00  0.00    +0.088 C 
BRANCH  13  15
ATOM     15  O3* LIG    1       27.538 -12.675   2.731  0.00  0.00    -0.389 OA
ATOM     16  H3* LIG    1       27.784 -12.621   1.788  0.00  0.00    +0.210 HD
ENDBRANCH  13  15
BRANCH  12  17
ATOM     17  C5* LIG    1       24.501 -14.085   4.489  0.00  0.00    +0.190 C 
BRANCH  17  18
ATOM     18  O5* LIG    1       23.691 -13.505   3.467  0.00  0.00    -0.392 OA
ATOM     19  H5* LIG    1       23.142 -12.819   3.884  0.00  0.00    +0.209 HD
ENDBRANCH  17  18
ENDBRANCH  12  17
ENDBRANCH   8  10
BRANCH   1  21
ATOM     20  C   LIG    1       22.562 -18.616   4.396  0.00  0.00    +0.009 C 
ATOM     21  C   LIG    1       23.547 -18.931   3.277  0.00  0.00    +0.039 C 
ENDBRANCH   1  21
TORSDOF 5
ENDMDL
MODEL 2
REMARK VINA RESULT:      -3.2      1.619      5.062
REMARK  Name = *****
REMARK                            x       y       z     vdW  Elec       q    Type
REMARK                         _______ _______ _______ _____ _____    ______ ____
ROOT
ATOM      1  C   LIG    1       25.883 -15.084   3.379  0.00  0.00    +0.033 C 
ATOM      2  C   LIG    1       27.249 -14.786   3.868  0.00  0.00    +0.257 C 
ATOM      3  O   LIG    1       27.693 -13.648   3.912  0.00  0.00    -0.267 OA
ATOM      4  N   LIG    1       27.985 -15.869   4.259  0.00  0.00    -0.275 N 
ATOM      5  H   LIG    1       28.923 -15.685   4.582  0.00  0.00    +0.173 HD
ATOM      6  C   LIG    1       27.613 -17.184   4.167  0.00  0.00    +0.331 C 
ATOM      7  O   LIG    1       28.403 -18.072   4.483  0.00  0.00    -0.246 OA
ATOM      8  N   LIG    1       26.320 -17.415   3.713  0.00  0.00    -0.274 N 
ATOM      9  C   LIG    1       25.511 -16.369   3.308  0.00  0.00    +0.102 C 
ENDROOT
BRANCH   8  10
ATOM     10  C1* LIG    1       25.876 -18.810   3.596  0.00  0.00    +0.226 C 
ATOM     11  O4* LIG    1       24.610 -18.893   2.904  0.00  0.00    -0.348 OA
ATOM     12  C4* LIG    1       23.618 -19.453   3.796  0.00  0.00    +0.175 C 
ATOM     13  C3* LIG    1       24.431 -20.331   4.734  0.00  0.00    +0.150 C 
ATOM     14  C2* LIG    1       25.691 -19.521   4.940  0.00  0.00    +0.088 C 
BRANCH  13  15
ATOM     15  O3* LIG    1       24.771 -21.571   4.104  0.00  0.00    -0.389 OA
ATOM     16  H3* LIG    1       25.715 -21.752   4.269  0.00  0.00    +0.210 HD
ENDBRANCH  13  15
BRANCH  12  17
ATOM     17  C5* LIG    1       22.860 -18.335   4.527  0.00  0.00    +0.190 C 
BRANCH  17  18
ATOM     18  O5* LIG    1       21.518 -18.261   4.046  0.00  0.00    -0.392 OA
ATOM     19  H5* LIG    1       21.209 -17.349   4.187  0.00  0.00    +0.209 HD
ENDBRANCH  17  18
ENDBRANCH  12  17
ENDBRANCH   8  10
BRANCH   1  21
ATOM     20  C   LIG    1       24.201 -13.378   4.112  0.00  0.00    +0.009 C 
ATOM     21  C   LIG    1       25.005 -13.945   2.950  0.00  0.00    +0.039 C 
ENDBRANCH   1  21
TORSDOF 5
ENDMDL
MODEL 3
REMARK VINA RESULT:      -3.0      2.140      5.960
REMARK  Name = *****
REMARK                            x       y       z     vdW  Elec       q    Type
REMARK                         _______ _______ _______ _____ _____    ______ ____
ROOT
ATOM      1  C   LIG    1       24.591 -15.719   3.761  0.00  0.00    +0.033 C 
ATOM      2  C   LIG    1       25.932 -16.160   3.312  0.00  0.00    +0.257 C 
ATOM      3  O   LIG    1       26.797 -15.368   2.967  0.00  0.00    -0.267 OA
ATOM      4  N   LIG    1       26.136 -17.510   3.299  0.00  0.00    -0.275 N 
ATOM      5  H   LIG    1       27.039 -17.828   2.982  0.00  0.00    +0.173 HD
ATOM      6  C   LIG    1       25.207 -18.478   3.580  0.00  0.00    +0.331 C 
ATOM      7  O   LIG    1       25.498 -19.666   3.455  0.00  0.00    -0.246 OA
ATOM      8  N   LIG    1       23.967 -18.018   4.007  0.00  0.00    -0.274 N 
ATOM      9  C   LIG    1       23.689 -16.664   4.057  0.00  0.00    +0.102 C 
ENDROOT
BRANCH   8  10
ATOM     10  C1* LIG    1       22.939 -19.019   4.320  0.00  0.00    +0.226 C 
ATOM     11  O4* LIG    1       22.749 -19.137   5.748  0.00  0.00    -0.348 OA
ATOM     12  C4* LIG    1       23.095 -20.479   6.162  0.00  0.00    +0.175 C 
ATOM     13  C3* LIG    1       22.807 -21.322   4.930  0.00  0.00    +0.150 C 
ATOM     14  C2* LIG    1       23.256 -20.424   3.801  0.00  0.00    +0.088 C 
BRANCH  13  15
ATOM     15  O3* LIG    1       21.404 -21.571   4.801  0.00  0.00    -0.389 OA
ATOM     16  H3* LIG    1       21.282 -22.405   4.309  0.00  0.00    +0.210 HD
ENDBRANCH  13  15
BRANCH  12  17
ATOM     17  C5* LIG    1       24.565 -20.544   6.604  0.00  0.00    +0.190 C 
BRANCH  17  18
ATOM     18  O5* LIG    1       25.245 -21.572   5.884  0.00  0.00    -0.392 OA
ATOM     19  H5* LIG    1       25.258 -21.311   4.947  0.00  0.00    +0.209 HD
ENDBRANCH  17  18
ENDBRANCH  12  17
ENDBRANCH   8  10
BRANCH   1  21
ATOM     20  C   LIG    1       25.213 -13.525   4.798  0.00  0.00    +0.009 C 
ATOM     21  C   LIG    1       24.296 -14.249   3.821  0.00  0.00    +0.039 C 
ENDBRANCH   1  21
TORSDOF 5
ENDMDL
MODEL 4
REMARK VINA RESULT:      -3.0      1.591      2.425
REMARK  Name = *****
REMARK                            x       y       z     vdW  Elec       q    Type
REMARK                         _______ _______ _______ _____ _____    ______ ____
ROOT
ATOM      1  C   LIG    1       23.876 -18.654   4.073  0.00  0.00    +0.033 C 
ATOM      2  C   LIG    1       25.246 -19.184   3.885  0.00  0.00    +0.257 C 
ATOM      3  O   LIG    1       25.526 -20.358   4.086  0.00  0.00    -0.267 OA
ATOM      4  N   LIG    1       26.181 -18.274   3.480  0.00  0.00    -0.275 N 
ATOM      5  H   LIG    1       27.122 -18.616   3.361  0.00  0.00    +0.173 HD
ATOM      6  C   LIG    1       25.989 -16.928   3.314  0.00  0.00    +0.331 C 
ATOM      7  O   LIG    1       26.937 -16.202   3.020  0.00  0.00    -0.246 OA
ATOM      8  N   LIG    1       24.686 -16.477   3.491  0.00  0.00    -0.274 N 
ATOM      9  C   LIG    1       23.683 -17.341   3.890  0.00  0.00    +0.102 C 
ENDROOT
BRANCH   8  10
ATOM     10  C1* LIG    1       24.432 -15.041   3.323  0.00  0.00    +0.226 C 
ATOM     11  O4* LIG    1       25.663 -14.321   3.088  0.00  0.00    -0.348 OA
ATOM     12  C4* LIG    1       25.875 -13.380   4.166  0.00  0.00    +0.175 C 
ATOM     13  C3* LIG    1       24.469 -13.049   4.639  0.00  0.00    +0.150 C 
ATOM     14  C2* LIG    1       23.761 -14.380   4.531  0.00  0.00    +0.088 C 
BRANCH  13  15
ATOM     15  O3* LIG    1       23.842 -12.113   3.756  0.00  0.00    -0.389 OA
ATOM     16  H3* LIG    1       23.815 -11.244   4.198  0.00  0.00    +0.210 HD
ENDBRANCH  13  15
BRANCH  12  17
ATOM     17  C5* LIG    1       26.746 -14.009   5.265  0.00  0.00    +0.190 C 
BRANCH  17  18
ATOM     18  O5* LIG    1       27.526 -13.000   5.905  0.00  0.00    -0.392 OA
ATOM     19  H5* LIG    1       28.399 -13.384   6.096  0.00  0.00    +0.209 HD
ENDBRANCH  17  18
ENDBRANCH  12  17
ENDBRANCH   8  10
BRANCH   1  21
ATOM     20  C   LIG    1       22.895 -19.959   5.973  0.00  0.00    +0.009 C 
ATOM     21  C   LIG    1       22.788 -19.597   4.498  0.00  0.00    +0.039 C 
ENDBRANCH   1  21
TORSDOF 5
ENDMDL
MODEL 5
REMARK VINA RESULT:      -2.7      1.996      5.952
REMARK  Name = *****
REMARK                            x       y       z     vdW  Elec       q    Type
REMARK                         _______ _______ _______ _____ _____    ______ ____
ROOT
ATOM      1  C   LIG    1       25.561 -15.349   3.424  0.00  0.00    +0.033 C 
ATOM      2  C   LIG    1       24.583 -14.430   4.050  0.00  0.00    +0.257 C 
ATOM      3  O   LIG    1       24.814 -13.238   4.204  0.00  0.00    -0.267 OA
ATOM      4  N   LIG    1       23.411 -15.001   4.455  0.00  0.00    -0.275 N 
ATOM      5  H   LIG    1       22.740 -14.392   4.896  0.00  0.00    +0.173 HD
ATOM      6  C   LIG    1       23.095 -16.334   4.408  0.00  0.00    +0.331 C 
ATOM      7  O   LIG    1       22.030 -16.731   4.879  0.00  0.00    -0.246 OA
ATOM      8  N   LIG    1       24.036 -17.157   3.803  0.00  0.00    -0.274 N 
ATOM      9  C   LIG    1       25.244 -16.649   3.358  0.00  0.00    +0.102 C 
ENDROOT
BRANCH   8  10
ATOM     10  C1* LIG    1       23.742 -18.594   3.730  0.00  0.00    +0.226 C 
ATOM     11  O4* LIG    1       23.908 -19.222   5.021  0.00  0.00    -0.348 OA
ATOM     12  C4* LIG    1       24.960 -20.211   4.934  0.00  0.00    +0.175 C 
ATOM     13  C3* LIG    1       24.921 -20.654   3.481  0.00  0.00    +0.150 C 
ATOM     14  C2* LIG    1       24.629 -19.364   2.748  0.00  0.00    +0.088 C 
BRANCH  13  15
ATOM     15  O3* LIG    1       23.846 -21.572   3.258  0.00  0.00    -0.389 OA
ATOM     16  H3* LIG    1       23.235 -21.522   4.018  0.00  0.00    +0.210 HD
ENDBRANCH  13  15
BRANCH  12  17
ATOM     17  C5* LIG    1       26.310 -19.597   5.339  0.00  0.00    +0.190 C 
BRANCH  17  18
ATOM     18  O5* LIG    1       27.378 -20.435   4.898  0.00  0.00    -0.392 OA
ATOM     19  H5* LIG    1       27.442 -20.340   3.931  0.00  0.00    +0.209 HD
ENDBRANCH  17  18
ENDBRANCH  12  17
ENDBRANCH   8  10
BRANCH   1  21
ATOM     20  C   LIG    1       27.816 -14.480   4.084  0.00  0.00    +0.009 C 
ATOM     21  C   LIG    1       26.866 -14.793   2.935  0.00  0.00    +0.039 C 
ENDBRANCH   1  21
TORSDOF 5
ENDMDL
MODEL 6
REMARK VINA RESULT:      -2.6      2.682      5.401
REMARK  Name = *****
REMARK                            x       y       z     vdW  Elec       q    Type
REMARK                         _______ _______ _______ _____ _____    ______ ____
ROOT
ATOM      1  C   LIG    1       27.321 -17.973   4.433  0.00  0.00    +0.033 C 
ATOM      2  C   LIG    1       28.380 -18.549   5.294  0.00  0.00    +0.257 C 
ATOM      3  O   LIG    1       29.475 -18.020   5.425  0.00  0.00    -0.267 OA
ATOM      4  N   LIG    1       28.057 -19.716   5.926  0.00  0.00    -0.275 N 
ATOM      5  H   LIG    1       28.771 -20.129   6.506  0.00  0.00    +0.173 HD
ATOM      6  C   LIG    1       26.897 -20.430   5.777  0.00  0.00    +0.331 C 
ATOM      7  O   LIG    1       26.761 -21.511   6.346  0.00  0.00    -0.246 OA
ATOM      8  N   LIG    1       25.929 -19.846   4.969  0.00  0.00    -0.274 N 
ATOM      9  C   LIG    1       26.178 -18.659   4.303  0.00  0.00    +0.102 C 
ENDROOT
BRANCH   8  10
ATOM     10  C1* LIG    1       24.668 -20.575   4.778  0.00  0.00    +0.226 C 
ATOM     11  O4* LIG    1       24.011 -20.161   3.559  0.00  0.00    -0.348 OA
ATOM     12  C4* LIG    1       22.733 -19.569   3.887  0.00  0.00    +0.175 C 
ATOM     13  C3* LIG    1       22.337 -20.259   5.182  0.00  0.00    +0.150 C 
ATOM     14  C2* LIG    1       23.656 -20.380   5.910  0.00  0.00    +0.088 C 
BRANCH  13  15
ATOM     15  O3* LIG    1       21.823 -21.569   4.925  0.00  0.00    -0.389 OA
ATOM     16  H3* LIG    1       20.871 -21.494   4.726  0.00  0.00    +0.210 HD
ENDBRANCH  13  15
BRANCH  12  17
ATOM     17  C5* LIG    1       22.868 -18.046   4.035  0.00  0.00    +0.190 C 
BRANCH  17  18
ATOM     18  O5* LIG    1       21.750 -17.525   4.753  0.00  0.00    -0.392 OA
ATOM     19  H5* LIG    1       21.897 -16.570   4.868  0.00  0.00    +0.209 HD
ENDBRANCH  17  18
ENDBRANCH  12  17
ENDBRANCH   8  10
BRANCH   1  21
ATOM     20  C   LIG    1       26.311 -16.019   3.234  0.00  0.00    +0.009 C 
ATOM     21  C   LIG    1       27.593 -16.681   3.720  0.00  0.00    +0.039 C 
ENDBRANCH   1  21
TORSDOF 5
ENDMDL
MODEL 7
REMARK VINA RESULT:      -2.6      1.731      3.309
REMARK  Name = *****
REMARK                            x       y       z     vdW  Elec       q    Type
REMARK                         _______ _______ _______ _____ _____    ______ ____
ROOT
ATOM      1  C   LIG    1       28.090 -18.195   4.813  0.00  0.00    +0.033 C 
ATOM      2  C   LIG    1       27.273 -19.430   4.856  0.00  0.00    +0.257 C 
ATOM      3  O   LIG    1       27.695 -20.475   5.332  0.00  0.00    -0.267 OA
ATOM      4  N   LIG    1       26.021 -19.328   4.321  0.00  0.00    -0.275 N 
ATOM      5  H   LIG    1       25.457 -20.164   4.330  0.00  0.00    +0.173 HD
ATOM      6  C   LIG    1       25.491 -18.235   3.688  0.00  0.00    +0.331 C 
ATOM      7  O   LIG    1       24.374 -18.299   3.178  0.00  0.00    -0.246 OA
ATOM      8  N   LIG    1       26.289 -17.097   3.681  0.00  0.00    -0.274 N 
ATOM      9  C   LIG    1       27.565 -17.119   4.213  0.00  0.00    +0.102 C 
ENDROOT
BRANCH   8  10
ATOM     10  C1* LIG    1       25.763 -15.899   3.013  0.00  0.00    +0.226 C 
ATOM     11  O4* LIG    1       26.838 -15.032   2.586  0.00  0.00    -0.348 OA
ATOM     12  C4* LIG    1       26.725 -13.764   3.275  0.00  0.00    +0.175 C 
ATOM     13  C3* LIG    1       25.236 -13.634   3.550  0.00  0.00    +0.150 C 
ATOM     14  C2* LIG    1       24.836 -15.052   3.888  0.00  0.00    +0.088 C 
BRANCH  13  15
ATOM     15  O3* LIG    1       24.535 -13.218   2.374  0.00  0.00    -0.389 OA
ATOM     16  H3* LIG    1       23.608 -13.515   2.446  0.00  0.00    +0.210 HD
ENDBRANCH  13  15
BRANCH  12  17
ATOM     17  C5* LIG    1       27.574 -13.770   4.555  0.00  0.00    +0.190 C 
BRANCH  17  18
ATOM     18  O5* LIG    1       26.914 -13.031   5.581  0.00  0.00    -0.392 OA
ATOM     19  H5* LIG    1       27.549 -12.910   6.308  0.00  0.00    +0.209 HD
ENDBRANCH  17  18
ENDBRANCH  12  17
ENDBRANCH   8  10
BRANCH   1  21
ATOM     20  C   LIG    1       29.454 -18.583   6.878  0.00  0.00    +0.009 C 
ATOM     21  C   LIG    1       29.472 -18.221   5.399  0.00  0.00    +0.039 C 
ENDBRANCH   1  21
TORSDOF 5
ENDMDL
MODEL 8
REMARK VINA RESULT:      -2.5      1.784      2.743
REMARK  Name = *****
REMARK                            x       y       z     vdW  Elec       q    Type
REMARK                         _______ _______ _______ _____ _____    ______ ____
ROOT
ATOM      1  C   LIG    1       24.430 -18.461   3.652  0.00  0.00    +0.033 C 
ATOM      2  C   LIG    1       23.167 -17.827   4.099  0.00  0.00    +0.257 C 
ATOM      3  O   LIG    1       22.157 -18.477   4.328  0.00  0.00    -0.267 OA
ATOM      4  N   LIG    1       23.203 -16.468   4.229  0.00  0.00    -0.275 N 
ATOM      5  H   LIG    1       22.347 -16.020   4.519  0.00  0.00    +0.173 HD
ATOM      6  C   LIG    1       24.252 -15.646   3.913  0.00  0.00    +0.331 C 
ATOM      7  O   LIG    1       24.128 -14.426   4.003  0.00  0.00    -0.246 OA
ATOM      8  N   LIG    1       25.418 -16.284   3.509  0.00  0.00    -0.274 N 
ATOM      9  C   LIG    1       25.463 -17.659   3.363  0.00  0.00    +0.102 C 
ENDROOT
BRANCH   8  10
ATOM     10  C1* LIG    1       26.571 -15.444   3.159  0.00  0.00    +0.226 C 
ATOM     11  O4* LIG    1       27.504 -15.362   4.260  0.00  0.00    -0.348 OA
ATOM     12  C4* LIG    1       27.602 -13.986   4.695  0.00  0.00    +0.175 C 
ATOM     13  C3* LIG    1       27.293 -13.187   3.440  0.00  0.00    +0.150 C 
ATOM     14  C2* LIG    1       26.204 -14.005   2.785  0.00  0.00    +0.088 C 
BRANCH  13  15
ATOM     15  O3* LIG    1       28.430 -13.142   2.572  0.00  0.00    -0.389 OA
ATOM     16  H3* LIG    1       29.186 -12.781   3.073  0.00  0.00    +0.210 HD
ENDBRANCH  13  15
BRANCH  12  17
ATOM     17  C5* LIG    1       26.614 -13.712   5.840  0.00  0.00    +0.190 C 
BRANCH  17  18
ATOM     18  O5* LIG    1       25.881 -12.516   5.575  0.00  0.00    -0.392 OA
ATOM     19  H5* LIG    1       26.512 -11.857   5.236  0.00  0.00    +0.209 HD
ENDBRANCH  17  18
ENDBRANCH  12  17
ENDBRANCH   8  10
BRANCH   1  21
ATOM     20  C   LIG    1       25.055 -20.629   4.740  0.00  0.00    +0.009 C 
ATOM     21  C   LIG    1       24.476 -19.953   3.504  0.00  0.00    +0.039 C 
ENDBRANCH   1  21
TORSDOF 5
ENDMDL
MODEL 9
REMARK VINA RESULT:      -2.3      2.201      3.004
REMARK  Name = *****
REMARK                            x       y       z     vdW  Elec       q    Type
REMARK                         _______ _______ _______ _____ _____    ______ ____
ROOT
ATOM      1  C   LIG    1       24.027 -18.209   3.683  0.00  0.00    +0.033 C 
ATOM      2  C   LIG    1       22.662 -17.792   4.082  0.00  0.00    +0.257 C 
ATOM      3  O   LIG    1       21.712 -18.562   4.063  0.00  0.00    -0.267 OA
ATOM      4  N   LIG    1       22.532 -16.487   4.463  0.00  0.00    -0.275 N 
ATOM      5  H   LIG    1       21.607 -16.183   4.724  0.00  0.00    +0.173 HD
ATOM      6  C   LIG    1       23.510 -15.528   4.434  0.00  0.00    +0.331 C 
ATOM      7  O   LIG    1       23.241 -14.365   4.731  0.00  0.00    -0.246 OA
ATOM      8  N   LIG    1       24.775 -15.967   4.064  0.00  0.00    -0.274 N 
ATOM      9  C   LIG    1       24.988 -17.277   3.675  0.00  0.00    +0.102 C 
ENDROOT
BRANCH   8  10
ATOM     10  C1* LIG    1       25.856 -14.974   4.018  0.00  0.00    +0.226 C 
ATOM     11  O4* LIG    1       25.327 -13.630   4.069  0.00  0.00    -0.348 OA
ATOM     12  C4* LIG    1       25.673 -12.938   2.846  0.00  0.00    +0.175 C 
ATOM     13  C3* LIG    1       26.966 -13.606   2.407  0.00  0.00    +0.150 C 
ATOM     14  C2* LIG    1       26.727 -15.056   2.761  0.00  0.00    +0.088 C 
BRANCH  13  15
ATOM     15  O3* LIG    1       28.076 -13.116   3.166  0.00  0.00    -0.389 OA
ATOM     16  H3* LIG    1       28.580 -13.880   3.504  0.00  0.00    +0.210 HD
ENDBRANCH  13  15
BRANCH  12  17
ATOM     17  C5* LIG    1       24.545 -13.075   1.813  0.00  0.00    +0.190 C 
BRANCH  17  18
ATOM     18  O5* LIG    1       23.738 -11.898   1.813  0.00  0.00    -0.392 OA
ATOM     19  H5* LIG    1       24.294 -11.164   1.499  0.00  0.00    +0.209 HD
ENDBRANCH  17  18
ENDBRANCH  12  17
ENDBRANCH   8  10
BRANCH   1  21
ATOM     20  C   LIG    1       25.077 -20.399   4.299  0.00  0.00    +0.009 C 
ATOM     21  C   LIG    1       24.255 -19.633   3.270  0.00  0.00    +0.039 C 
ENDBRANCH   1  21
TORSDOF 5
ENDMDL
