MODEL 1
REMARK VINA RESULT:      -8.7      0.000      0.000
REMARK  Name = *****
REMARK                            x       y       z     vdW  Elec       q    Type
REMARK                         _______ _______ _______ _____ _____    ______ ____
ROOT
ATOM      1  C   LIG    1       24.031 -25.382   6.212  0.00  0.00    +0.001 A 
ATOM      2  C   LIG    1       23.325 -24.193   6.382  0.00  0.00    +0.008 A 
ATOM      3  C   LIG    1       23.958 -23.037   6.871  0.00  0.00    -0.018 A 
ATOM      4  C   LIG    1       23.223 -21.854   7.029  0.00  0.00    +0.008 A 
ATOM      5  C   LIG    1       23.829 -20.695   7.504  0.00  0.00    +0.001 A 
ATOM      6  C   LIG    1       25.180 -20.706   7.831  0.00  0.00    +0.005 A 
ATOM      7  C   LIG    1       25.946 -21.879   7.698  0.00  0.00    -0.028 A 
ATOM      8  C   LIG    1       25.336 -23.068   7.205  0.00  0.00    -0.014 A 
ATOM      9  C   LIG    1       26.023 -24.292   7.023  0.00  0.00    +0.009 A 
ATOM     10  C   LIG    1       25.380 -25.431   6.530  0.00  0.00    +0.001 A 
ENDROOT
BRANCH   7  11
ATOM     11  C   LIG    1       27.414 -21.796   8.073  0.00  0.00    +0.163 C 
BRANCH  11  12
ATOM     12  C   LIG    1       28.157 -20.712   7.326  0.00  0.00    +0.285 C 
ATOM     13  N   LIG    1       28.061 -20.556   5.963  0.00  0.00    -0.234 N 
ATOM     14  H   LIG    1       27.168 -20.793   5.542  0.00  0.00    +0.291 HD
ATOM     15  C   LIG    1       28.607 -19.258   5.640  0.00  0.00    +0.272 C 
ATOM     16  C   LIG    1       29.468 -18.989   6.877  0.00  0.00    +0.333 C 
ATOM     17  N   LIG    1       28.931 -19.863   7.958  0.00  0.00    -0.084 NA
ENDBRANCH  11  12
ENDBRANCH   7  11
TORSDOF 2
ENDMDL
MODEL 2
REMARK VINA RESULT:      -8.6      2.534      3.323
REMARK  Name = *****
REMARK                            x       y       z     vdW  Elec       q    Type
REMARK                         _______ _______ _______ _____ _____    ______ ____
ROOT
ATOM      1  C   LIG    1       23.134 -20.361   4.611  0.00  0.00    +0.001 A 
ATOM      2  C   LIG    1       23.288 -20.642   5.968  0.00  0.00    +0.008 A 
ATOM      3  C   LIG    1       24.556 -20.622   6.573  0.00  0.00    -0.018 A 
ATOM      4  C   LIG    1       24.679 -20.905   7.941  0.00  0.00    +0.008 A 
ATOM      5  C   LIG    1       25.923 -20.885   8.564  0.00  0.00    +0.001 A 
ATOM      6  C   LIG    1       27.061 -20.583   7.826  0.00  0.00    +0.005 A 
ATOM      7  C   LIG    1       26.977 -20.307   6.449  0.00  0.00    -0.028 A 
ATOM      8  C   LIG    1       25.707 -20.318   5.803  0.00  0.00    -0.014 A 
ATOM      9  C   LIG    1       25.517 -20.042   4.428  0.00  0.00    +0.009 A 
ATOM     10  C   LIG    1       24.248 -20.059   3.842  0.00  0.00    +0.001 A 
ENDROOT
BRANCH   7  11
ATOM     11  C   LIG    1       28.271 -19.984   5.725  0.00  0.00    +0.163 C 
BRANCH  11  12
ATOM     12  C   LIG    1       29.406 -19.643   6.663  0.00  0.00    +0.285 C 
ATOM     13  N   LIG    1       30.068 -20.598   7.400  0.00  0.00    -0.234 N 
ATOM     14  H   LIG    1       30.162 -21.514   6.972  0.00  0.00    +0.291 HD
ATOM     15  C   LIG    1       31.276 -19.989   7.905  0.00  0.00    +0.272 C 
ATOM     16  C   LIG    1       30.916 -18.505   7.810  0.00  0.00    +0.333 C 
ATOM     17  N   LIG    1       29.813 -18.405   6.811  0.00  0.00    -0.084 NA
ENDBRANCH  11  12
ENDBRANCH   7  11
TORSDOF 2
ENDMDL
MODEL 3
REMARK VINA RESULT:      -8.2      3.159      5.809
REMARK  Name = *****
REMARK                            x       y       z     vdW  Elec       q    Type
REMARK                         _______ _______ _______ _____ _____    ______ ____
ROOT
ATOM      1  C   LIG    1       26.088 -20.458   7.982  0.00  0.00    +0.001 A 
ATOM      2  C   LIG    1       24.768 -20.856   7.783  0.00  0.00    +0.008 A 
ATOM      3  C   LIG    1       24.462 -22.150   7.328  0.00  0.00    -0.018 A 
ATOM      4  C   LIG    1       23.123 -22.523   7.141  0.00  0.00    +0.008 A 
ATOM      5  C   LIG    1       22.794 -23.801   6.698  0.00  0.00    +0.001 A 
ATOM      6  C   LIG    1       23.800 -24.721   6.435  0.00  0.00    +0.005 A 
ATOM      7  C   LIG    1       25.155 -24.378   6.598  0.00  0.00    -0.028 A 
ATOM      8  C   LIG    1       25.502 -23.075   7.058  0.00  0.00    -0.014 A 
ATOM      9  C   LIG    1       26.832 -22.638   7.267  0.00  0.00    +0.009 A 
ATOM     10  C   LIG    1       27.120 -21.350   7.726  0.00  0.00    +0.001 A 
ENDROOT
BRANCH   7  11
ATOM     11  C   LIG    1       26.186 -25.448   6.291  0.00  0.00    +0.163 C 
BRANCH  11  12
ATOM     12  C   LIG    1       25.600 -26.841   6.251  0.00  0.00    +0.285 C 
ATOM     13  N   LIG    1       25.747 -27.734   7.288  0.00  0.00    -0.234 N 
ATOM     14  H   LIG    1       25.782 -27.338   8.223  0.00  0.00    +0.291 HD
ATOM     15  C   LIG    1       24.804 -28.805   7.070  0.00  0.00    +0.272 C 
ATOM     16  C   LIG    1       24.538 -28.657   5.570  0.00  0.00    +0.333 C 
ATOM     17  N   LIG    1       24.916 -27.259   5.214  0.00  0.00    -0.084 NA
ENDBRANCH  11  12
ENDBRANCH   7  11
TORSDOF 2
ENDMDL
MODEL 4
REMARK VINA RESULT:      -8.0      2.670      5.313
REMARK  Name = *****
REMARK                            x       y       z     vdW  Elec       q    Type
REMARK                         _______ _______ _______ _____ _____    ______ ____
ROOT
ATOM      1  C   LIG    1       28.531 -20.401   6.946  0.00  0.00    +0.001 A 
ATOM      2  C   LIG    1       27.834 -19.823   5.886  0.00  0.00    +0.008 A 
ATOM      3  C   LIG    1       26.551 -20.272   5.532  0.00  0.00    -0.018 A 
ATOM      4  C   LIG    1       25.872 -19.668   4.463  0.00  0.00    +0.008 A 
ATOM      5  C   LIG    1       24.598 -20.091   4.098  0.00  0.00    +0.001 A 
ATOM      6  C   LIG    1       23.986 -21.126   4.796  0.00  0.00    +0.005 A 
ATOM      7  C   LIG    1       24.642 -21.764   5.865  0.00  0.00    -0.028 A 
ATOM      8  C   LIG    1       25.944 -21.333   6.251  0.00  0.00    -0.014 A 
ATOM      9  C   LIG    1       26.680 -21.900   7.319  0.00  0.00    +0.009 A 
ATOM     10  C   LIG    1       27.953 -21.437   7.663  0.00  0.00    +0.001 A 
ENDROOT
BRANCH   7  11
ATOM     11  C   LIG    1       23.896 -22.880   6.572  0.00  0.00    +0.163 C 
BRANCH  11  12
ATOM     12  C   LIG    1       24.202 -24.249   6.005  0.00  0.00    +0.285 C 
ATOM     13  N   LIG    1       25.011 -24.429   4.907  0.00  0.00    -0.234 N 
ATOM     14  H   LIG    1       25.773 -23.767   4.793  0.00  0.00    +0.291 HD
ATOM     15  C   LIG    1       25.354 -25.831   4.852  0.00  0.00    +0.272 C 
ATOM     16  C   LIG    1       24.231 -26.438   5.698  0.00  0.00    +0.333 C 
ATOM     17  N   LIG    1       23.704 -25.333   6.549  0.00  0.00    -0.084 NA
ENDBRANCH  11  12
ENDBRANCH   7  11
TORSDOF 2
ENDMDL
MODEL 5
REMARK VINA RESULT:      -8.0      3.021      5.483
REMARK  Name = *****
REMARK                            x       y       z     vdW  Elec       q    Type
REMARK                         _______ _______ _______ _____ _____    ______ ____
ROOT
ATOM      1  C   LIG    1       25.207 -19.576   3.791  0.00  0.00    +0.001 A 
ATOM      2  C   LIG    1       26.121 -19.702   4.835  0.00  0.00    +0.008 A 
ATOM      3  C   LIG    1       26.014 -20.746   5.769  0.00  0.00    -0.018 A 
ATOM      4  C   LIG    1       26.952 -20.849   6.808  0.00  0.00    +0.008 A 
ATOM      5  C   LIG    1       26.871 -21.878   7.741  0.00  0.00    +0.001 A 
ATOM      6  C   LIG    1       25.850 -22.817   7.649  0.00  0.00    +0.005 A 
ATOM      7  C   LIG    1       24.885 -22.736   6.628  0.00  0.00    -0.028 A 
ATOM      8  C   LIG    1       24.963 -21.691   5.664  0.00  0.00    -0.014 A 
ATOM      9  C   LIG    1       24.050 -21.532   4.594  0.00  0.00    +0.009 A 
ATOM     10  C   LIG    1       24.173 -20.492   3.669  0.00  0.00    +0.001 A 
ENDROOT
BRANCH   7  11
ATOM     11  C   LIG    1       23.809 -23.806   6.603  0.00  0.00    +0.163 C 
BRANCH  11  12
ATOM     12  C   LIG    1       24.266 -25.091   5.949  0.00  0.00    +0.285 C 
ATOM     13  N   LIG    1       24.922 -25.111   4.740  0.00  0.00    -0.234 N 
ATOM     14  H   LIG    1       25.529 -24.321   4.541  0.00  0.00    +0.291 HD
ATOM     15  C   LIG    1       25.496 -26.427   4.585  0.00  0.00    +0.272 C 
ATOM     16  C   LIG    1       24.637 -27.236   5.560  0.00  0.00    +0.333 C 
ATOM     17  N   LIG    1       24.055 -26.253   6.518  0.00  0.00    -0.084 NA
ENDBRANCH  11  12
ENDBRANCH   7  11
TORSDOF 2
ENDMDL
MODEL 6
REMARK VINA RESULT:      -7.7      1.972      2.899
REMARK  Name = *****
REMARK                            x       y       z     vdW  Elec       q    Type
REMARK                         _______ _______ _______ _____ _____    ______ ____
ROOT
ATOM      1  C   LIG    1       22.786 -21.684   6.328  0.00  0.00    +0.001 A 
ATOM      2  C   LIG    1       23.418 -20.946   5.329  0.00  0.00    +0.008 A 
ATOM      3  C   LIG    1       24.777 -20.605   5.429  0.00  0.00    -0.018 A 
ATOM      4  C   LIG    1       25.387 -19.865   4.405  0.00  0.00    +0.008 A 
ATOM      5  C   LIG    1       26.733 -19.521   4.478  0.00  0.00    +0.001 A 
ATOM      6  C   LIG    1       27.488 -19.912   5.577  0.00  0.00    +0.005 A 
ATOM      7  C   LIG    1       26.907 -20.644   6.629  0.00  0.00    -0.028 A 
ATOM      8  C   LIG    1       25.531 -21.007   6.560  0.00  0.00    -0.014 A 
ATOM      9  C   LIG    1       24.859 -21.752   7.559  0.00  0.00    +0.009 A 
ATOM     10  C   LIG    1       23.508 -22.089   7.442  0.00  0.00    +0.001 A 
ENDROOT
BRANCH   7  11
ATOM     11  C   LIG    1       27.808 -21.031   7.787  0.00  0.00    +0.163 C 
BRANCH  11  12
ATOM     12  C   LIG    1       29.072 -20.205   7.856  0.00  0.00    +0.285 C 
ATOM     13  N   LIG    1       30.224 -20.562   7.194  0.00  0.00    -0.234 N 
ATOM     14  H   LIG    1       30.106 -21.041   6.307  0.00  0.00    +0.291 HD
ATOM     15  C   LIG    1       31.096 -19.410   7.199  0.00  0.00    +0.272 C 
ATOM     16  C   LIG    1       30.518 -18.613   8.371  0.00  0.00    +0.333 C 
ATOM     17  N   LIG    1       29.121 -19.098   8.558  0.00  0.00    -0.084 NA
ENDBRANCH  11  12
ENDBRANCH   7  11
TORSDOF 2
ENDMDL
MODEL 7
REMARK VINA RESULT:      -7.7      2.520      3.975
REMARK  Name = *****
REMARK                            x       y       z     vdW  Elec       q    Type
REMARK                         _______ _______ _______ _____ _____    ______ ____
ROOT
ATOM      1  C   LIG    1       24.965 -25.533   6.548  0.00  0.00    +0.001 A 
ATOM      2  C   LIG    1       25.980 -24.754   7.100  0.00  0.00    +0.008 A 
ATOM      3  C   LIG    1       25.795 -23.380   7.329  0.00  0.00    -0.018 A 
ATOM      4  C   LIG    1       26.834 -22.622   7.890  0.00  0.00    +0.008 A 
ATOM      5  C   LIG    1       26.673 -21.261   8.133  0.00  0.00    +0.001 A 
ATOM      6  C   LIG    1       25.471 -20.640   7.816  0.00  0.00    +0.005 A 
ATOM      7  C   LIG    1       24.411 -21.366   7.241  0.00  0.00    -0.028 A 
ATOM      8  C   LIG    1       24.564 -22.761   6.995  0.00  0.00    -0.014 A 
ATOM      9  C   LIG    1       23.556 -23.580   6.433  0.00  0.00    +0.009 A 
ATOM     10  C   LIG    1       23.752 -24.946   6.217  0.00  0.00    +0.001 A 
ENDROOT
BRANCH   7  11
ATOM     11  C   LIG    1       23.135 -20.607   6.932  0.00  0.00    +0.163 C 
BRANCH  11  12
ATOM     12  C   LIG    1       23.155 -19.940   5.575  0.00  0.00    +0.285 C 
ATOM     13  N   LIG    1       22.159 -19.087   5.157  0.00  0.00    -0.234 N 
ATOM     14  H   LIG    1       21.716 -18.523   5.875  0.00  0.00    +0.291 HD
ATOM     15  C   LIG    1       22.654 -18.387   3.994  0.00  0.00    +0.272 C 
ATOM     16  C   LIG    1       23.772 -19.331   3.541  0.00  0.00    +0.333 C 
ATOM     17  N   LIG    1       24.138 -20.148   4.732  0.00  0.00    -0.084 NA
ENDBRANCH  11  12
ENDBRANCH   7  11
TORSDOF 2
ENDMDL
MODEL 8
REMARK VINA RESULT:      -7.6      2.713      5.226
REMARK  Name = *****
REMARK                            x       y       z     vdW  Elec       q    Type
REMARK                         _______ _______ _______ _____ _____    ______ ____
ROOT
ATOM      1  C   LIG    1       24.249 -19.366   3.603  0.00  0.00    +0.001 A 
ATOM      2  C   LIG    1       25.579 -19.219   3.993  0.00  0.00    +0.008 A 
ATOM      3  C   LIG    1       26.111 -19.976   5.051  0.00  0.00    -0.018 A 
ATOM      4  C   LIG    1       27.454 -19.810   5.419  0.00  0.00    +0.008 A 
ATOM      5  C   LIG    1       28.006 -20.552   6.458  0.00  0.00    +0.001 A 
ATOM      6  C   LIG    1       27.221 -21.470   7.145  0.00  0.00    +0.005 A 
ATOM      7  C   LIG    1       25.866 -21.654   6.812  0.00  0.00    -0.028 A 
ATOM      8  C   LIG    1       25.294 -20.904   5.745  0.00  0.00    -0.014 A 
ATOM      9  C   LIG    1       23.947 -21.026   5.325  0.00  0.00    +0.009 A 
ATOM     10  C   LIG    1       23.434 -20.271   4.267  0.00  0.00    +0.001 A 
ENDROOT
BRANCH   7  11
ATOM     11  C   LIG    1       25.086 -22.681   7.612  0.00  0.00    +0.163 C 
BRANCH  11  12
ATOM     12  C   LIG    1       24.976 -24.018   6.915  0.00  0.00    +0.285 C 
ATOM     13  N   LIG    1       26.079 -24.772   6.587  0.00  0.00    -0.234 N 
ATOM     14  H   LIG    1       26.872 -24.713   7.218  0.00  0.00    +0.291 HD
ATOM     15  C   LIG    1       25.610 -26.098   6.256  0.00  0.00    +0.272 C 
ATOM     16  C   LIG    1       24.142 -25.813   5.929  0.00  0.00    +0.333 C 
ATOM     17  N   LIG    1       23.809 -24.520   6.593  0.00  0.00    -0.084 NA
ENDBRANCH  11  12
ENDBRANCH   7  11
TORSDOF 2
ENDMDL
MODEL 9
REMARK VINA RESULT:      -7.6      2.053      3.230
REMARK  Name = *****
REMARK                            x       y       z     vdW  Elec       q    Type
REMARK                         _______ _______ _______ _____ _____    ______ ____
ROOT
ATOM      1  C   LIG    1       24.174 -19.055   3.701  0.00  0.00    +0.001 A 
ATOM      2  C   LIG    1       23.339 -19.521   4.714  0.00  0.00    +0.008 A 
ATOM      3  C   LIG    1       23.827 -20.363   5.727  0.00  0.00    -0.018 A 
ATOM      4  C   LIG    1       22.963 -20.813   6.736  0.00  0.00    +0.008 A 
ATOM      5  C   LIG    1       23.425 -21.641   7.753  0.00  0.00    +0.001 A 
ATOM      6  C   LIG    1       24.758 -22.033   7.775  0.00  0.00    +0.005 A 
ATOM      7  C   LIG    1       25.651 -21.612   6.772  0.00  0.00    -0.028 A 
ATOM      8  C   LIG    1       25.189 -20.757   5.730  0.00  0.00    -0.014 A 
ATOM      9  C   LIG    1       26.010 -20.270   4.685  0.00  0.00    +0.009 A 
ATOM     10  C   LIG    1       25.511 -19.427   3.688  0.00  0.00    +0.001 A 
ENDROOT
BRANCH   7  11
ATOM     11  C   LIG    1       27.089 -22.085   6.878  0.00  0.00    +0.163 C 
BRANCH  11  12
ATOM     12  C   LIG    1       28.060 -20.967   7.184  0.00  0.00    +0.285 C 
ATOM     13  N   LIG    1       29.188 -20.742   6.430  0.00  0.00    -0.234 N 
ATOM     14  H   LIG    1       29.120 -20.955   5.439  0.00  0.00    +0.291 HD
ATOM     15  C   LIG    1       29.685 -19.432   6.781  0.00  0.00    +0.272 C 
ATOM     16  C   LIG    1       29.028 -19.229   8.149  0.00  0.00    +0.333 C 
ATOM     17  N   LIG    1       27.860 -20.154   8.193  0.00  0.00    -0.084 NA
ENDBRANCH  11  12
ENDBRANCH   7  11
TORSDOF 2
ENDMDL
