MODEL 1
REMARK VINA RESULT:      -5.3      0.000      0.000
REMARK  Name = *****
REMARK                            x       y       z     vdW  Elec       q    Type
REMARK                         _______ _______ _______ _____ _____    ______ ____
ROOT
ATOM      1  C   LIG    1       24.241 -14.116   3.869  0.00  0.00    +0.067 C 
ATOM      2  C   LIG    1       24.680 -12.996   4.828  0.00  0.00    +0.041 C 
ENDROOT
BRANCH   1   3
ATOM      3  C   LIG    1       25.363 -14.687   2.927  0.00  0.00    +0.024 C 
ATOM      4  C   LIG    1       26.052 -13.636   2.027  0.00  0.00    +0.011 C 
ATOM      5  C   LIG    1       27.085 -12.759   2.742  0.00  0.00    +0.030 C 
ATOM      6  C   LIG    1       27.777 -13.416   3.911  0.00  0.00    -0.076 C 
ATOM      7  C   LIG    1       28.721 -12.551   4.690  0.00  0.00    +0.038 C 
ATOM      8  C   LIG    1       27.517 -14.692   4.273  0.00  0.00    -0.027 C 
ATOM      9  C   LIG    1       26.465 -15.525   3.604  0.00  0.00    +0.033 C 
ENDBRANCH   1   3
BRANCH   1  10
ATOM     10  O   LIG    1       23.242 -13.546   3.000  0.00  0.00    -0.389 OA
ATOM     11  H   LIG    1       23.696 -13.061   2.290  0.00  0.00    +0.210 HD
ENDBRANCH   1  10
BRANCH   1  12
ATOM     12  C   LIG    1       23.532 -15.205   4.729  0.00  0.00    +0.039 C 
BRANCH  12  13
ATOM     13  C   LIG    1       22.588 -16.131   3.951  0.00  0.00    +0.030 C 
BRANCH  13  16
ATOM     14  C   LIG    1       22.595 -19.796   5.389  0.00  0.00    +0.038 C 
ATOM     15  C   LIG    1       22.956 -18.606   4.534  0.00  0.00    -0.080 C 
ATOM     16  C   LIG    1       22.332 -17.421   4.693  0.00  0.00    -0.028 C 
ATOM     17  C   LIG    1       24.050 -18.886   3.541  0.00  0.00    +0.038 C 
ENDBRANCH  13  16
ENDBRANCH  12  13
ENDBRANCH   1  12
TORSDOF 5
ENDMDL
MODEL 2
REMARK VINA RESULT:      -5.0      2.238      6.754
REMARK  Name = *****
REMARK                            x       y       z     vdW  Elec       q    Type
REMARK                         _______ _______ _______ _____ _____    ______ ____
ROOT
ATOM      1  C   LIG    1       25.275 -18.749   3.413  0.00  0.00    +0.067 C 
ATOM      2  C   LIG    1       26.099 -19.383   4.547  0.00  0.00    +0.041 C 
ENDROOT
BRANCH   1   3
ATOM      3  C   LIG    1       23.869 -19.401   3.144  0.00  0.00    +0.024 C 
ATOM      4  C   LIG    1       23.852 -20.946   3.182  0.00  0.00    +0.011 C 
ATOM      5  C   LIG    1       23.873 -21.552   4.590  0.00  0.00    +0.030 C 
ATOM      6  C   LIG    1       23.238 -20.699   5.659  0.00  0.00    -0.076 C 
ATOM      7  C   LIG    1       23.330 -21.220   7.062  0.00  0.00    +0.038 C 
ATOM      8  C   LIG    1       22.670 -19.504   5.380  0.00  0.00    -0.027 C 
ATOM      9  C   LIG    1       22.702 -18.893   4.012  0.00  0.00    +0.033 C 
ENDBRANCH   1   3
BRANCH   1  10
ATOM     10  O   LIG    1       26.036 -18.929   2.202  0.00  0.00    -0.389 OA
ATOM     11  H   LIG    1       25.549 -19.539   1.622  0.00  0.00    +0.210 HD
ENDBRANCH   1  10
BRANCH   1  12
ATOM     12  C   LIG    1       25.212 -17.218   3.692  0.00  0.00    +0.039 C 
BRANCH  12  13
ATOM     13  C   LIG    1       26.549 -16.479   3.549  0.00  0.00    +0.030 C 
BRANCH  13  16
ATOM     14  C   LIG    1       26.253 -12.665   2.621  0.00  0.00    +0.038 C 
ATOM     15  C   LIG    1       26.409 -13.915   3.450  0.00  0.00    -0.080 C 
ATOM     16  C   LIG    1       26.379 -15.137   2.878  0.00  0.00    -0.028 C 
ATOM     17  C   LIG    1       26.605 -13.647   4.917  0.00  0.00    +0.038 C 
ENDBRANCH  13  16
ENDBRANCH  12  13
ENDBRANCH   1  12
TORSDOF 5
ENDMDL
MODEL 3
REMARK VINA RESULT:      -4.9      2.402      6.417
REMARK  Name = *****
REMARK                            x       y       z     vdW  Elec       q    Type
REMARK                         _______ _______ _______ _____ _____    ______ ____
ROOT
ATOM      1  C   LIG    1       22.546 -19.092   4.441  0.00  0.00    +0.067 C 
ATOM      2  C   LIG    1       21.266 -18.689   3.689  0.00  0.00    +0.041 C 
ENDROOT
BRANCH   1   3
ATOM      3  C   LIG    1       22.812 -20.638   4.556  0.00  0.00    +0.024 C 
ATOM      4  C   LIG    1       24.133 -21.118   3.912  0.00  0.00    +0.011 C 
ATOM      5  C   LIG    1       25.390 -20.830   4.739  0.00  0.00    +0.030 C 
ATOM      6  C   LIG    1       25.174 -20.789   6.232  0.00  0.00    -0.076 C 
ATOM      7  C   LIG    1       26.365 -20.414   7.061  0.00  0.00    +0.038 C 
ATOM      8  C   LIG    1       23.964 -21.018   6.787  0.00  0.00    -0.027 C 
ATOM      9  C   LIG    1       22.727 -21.244   5.970  0.00  0.00    +0.033 C 
ENDBRANCH   1   3
BRANCH   1  10
ATOM     10  O   LIG    1       22.398 -18.611   5.792  0.00  0.00    -0.389 OA
ATOM     11  H   LIG    1       21.638 -19.065   6.196  0.00  0.00    +0.210 HD
ENDBRANCH   1  10
BRANCH   1  12
ATOM     12  C   LIG    1       23.723 -18.300   3.799  0.00  0.00    +0.039 C 
BRANCH  12  13
ATOM     13  C   LIG    1       23.694 -16.785   4.043  0.00  0.00    +0.030 C 
BRANCH  13  16
ATOM     14  C   LIG    1       26.662 -14.325   3.248  0.00  0.00    +0.038 C 
ATOM     15  C   LIG    1       25.289 -14.812   3.639  0.00  0.00    -0.080 C 
ATOM     16  C   LIG    1       24.996 -16.129   3.651  0.00  0.00    -0.028 C 
ATOM     17  C   LIG    1       24.337 -13.706   4.005  0.00  0.00    +0.038 C 
ENDBRANCH  13  16
ENDBRANCH  12  13
ENDBRANCH   1  12
TORSDOF 5
ENDMDL
MODEL 4
REMARK VINA RESULT:      -4.8      1.948      3.398
REMARK  Name = *****
REMARK                            x       y       z     vdW  Elec       q    Type
REMARK                         _______ _______ _______ _____ _____    ______ ____
ROOT
ATOM      1  C   LIG    1       26.732 -14.954   3.694  0.00  0.00    +0.067 C 
ATOM      2  C   LIG    1       26.598 -14.483   2.236  0.00  0.00    +0.041 C 
ENDROOT
BRANCH   1   3
ATOM      3  C   LIG    1       25.595 -14.480   4.672  0.00  0.00    +0.024 C 
ATOM      4  C   LIG    1       25.721 -13.017   5.153  0.00  0.00    +0.011 C 
ATOM      5  C   LIG    1       25.289 -11.965   4.126  0.00  0.00    +0.030 C 
ATOM      6  C   LIG    1       24.224 -12.421   3.159  0.00  0.00    -0.076 C 
ATOM      7  C   LIG    1       23.851 -11.447   2.082  0.00  0.00    +0.038 C 
ATOM      8  C   LIG    1       23.680 -13.656   3.222  0.00  0.00    -0.027 C 
ATOM      9  C   LIG    1       24.146 -14.698   4.193  0.00  0.00    +0.033 C 
ENDBRANCH   1   3
BRANCH   1  10
ATOM     10  O   LIG    1       27.956 -14.384   4.200  0.00  0.00    -0.389 OA
ATOM     11  H   LIG    1       28.529 -14.170   3.443  0.00  0.00    +0.210 HD
ENDBRANCH   1  10
BRANCH   1  12
ATOM     12  C   LIG    1       26.926 -16.499   3.661  0.00  0.00    +0.039 C 
BRANCH  12  13
ATOM     13  C   LIG    1       25.743 -17.287   3.083  0.00  0.00    +0.030 C 
BRANCH  13  16
ATOM     14  C   LIG    1       24.797 -20.874   4.402  0.00  0.00    +0.038 C 
ATOM     15  C   LIG    1       24.645 -19.443   3.949  0.00  0.00    -0.080 C 
ATOM     16  C   LIG    1       25.719 -18.711   3.586  0.00  0.00    -0.028 C 
ATOM     17  C   LIG    1       23.221 -18.960   3.941  0.00  0.00    +0.038 C 
ENDBRANCH  13  16
ENDBRANCH  12  13
ENDBRANCH   1  12
TORSDOF 5
ENDMDL
MODEL 5
REMARK VINA RESULT:      -4.4      1.098      2.243
REMARK  Name = *****
REMARK                            x       y       z     vdW  Elec       q    Type
REMARK                         _______ _______ _______ _____ _____    ______ ____
ROOT
ATOM      1  C   LIG    1       24.308 -12.944   4.015  0.00  0.00    +0.067 C 
ATOM      2  C   LIG    1       23.552 -11.800   4.712  0.00  0.00    +0.041 C 
ENDROOT
BRANCH   1   3
ATOM      3  C   LIG    1       25.807 -12.646   3.645  0.00  0.00    +0.024 C 
ATOM      4  C   LIG    1       26.831 -13.008   4.745  0.00  0.00    +0.011 C 
ATOM      5  C   LIG    1       27.147 -14.504   4.860  0.00  0.00    +0.030 C 
ATOM      6  C   LIG    1       27.017 -15.281   3.574  0.00  0.00    -0.076 C 
ATOM      7  C   LIG    1       27.224 -16.762   3.674  0.00  0.00    +0.038 C 
ATOM      8  C   LIG    1       26.676 -14.688   2.408  0.00  0.00    -0.027 C 
ATOM      9  C   LIG    1       26.314 -13.236   2.315  0.00  0.00    +0.033 C 
ENDBRANCH   1   3
BRANCH   1  10
ATOM     10  O   LIG    1       23.629 -13.185   2.767  0.00  0.00    -0.389 OA
ATOM     11  H   LIG    1       23.624 -12.357   2.256  0.00  0.00    +0.210 HD
ENDBRANCH   1  10
BRANCH   1  12
ATOM     12  C   LIG    1       24.121 -14.218   4.891  0.00  0.00    +0.039 C 
BRANCH  12  13
ATOM     13  C   LIG    1       23.145 -15.257   4.323  0.00  0.00    +0.030 C 
BRANCH  13  16
ATOM     14  C   LIG    1       24.147 -19.008   3.673  0.00  0.00    +0.038 C 
ATOM     15  C   LIG    1       23.320 -17.807   4.056  0.00  0.00    -0.080 C 
ATOM     16  C   LIG    1       23.837 -16.562   4.007  0.00  0.00    -0.028 C 
ATOM     17  C   LIG    1       21.914 -18.149   4.468  0.00  0.00    +0.038 C 
ENDBRANCH  13  16
ENDBRANCH  12  13
ENDBRANCH   1  12
TORSDOF 5
ENDMDL
MODEL 6
REMARK VINA RESULT:      -4.3      3.199      5.941
REMARK  Name = *****
REMARK                            x       y       z     vdW  Elec       q    Type
REMARK                         _______ _______ _______ _____ _____    ______ ____
ROOT
ATOM      1  C   LIG    1       22.701 -20.625   5.021  0.00  0.00    +0.067 C 
ATOM      2  C   LIG    1       21.494 -21.572   5.138  0.00  0.00    +0.041 C 
ENDROOT
BRANCH   1   3
ATOM      3  C   LIG    1       24.050 -21.293   4.566  0.00  0.00    +0.024 C 
ATOM      4  C   LIG    1       24.361 -21.164   3.057  0.00  0.00    +0.011 C 
ATOM      5  C   LIG    1       24.885 -19.790   2.626  0.00  0.00    +0.030 C 
ATOM      6  C   LIG    1       25.651 -19.040   3.688  0.00  0.00    -0.076 C 
ATOM      7  C   LIG    1       26.092 -17.653   3.328  0.00  0.00    +0.038 C 
ATOM      8  C   LIG    1       25.877 -19.563   4.913  0.00  0.00    -0.027 C 
ATOM      9  C   LIG    1       25.314 -20.883   5.346  0.00  0.00    +0.033 C 
ENDBRANCH   1   3
BRANCH   1  10
ATOM     10  O   LIG    1       22.942 -20.100   6.342  0.00  0.00    -0.389 OA
ATOM     11  H   LIG    1       23.796 -20.442   6.656  0.00  0.00    +0.210 HD
ENDBRANCH   1  10
BRANCH   1  12
ATOM     12  C   LIG    1       22.261 -19.429   4.126  0.00  0.00    +0.039 C 
BRANCH  12  13
ATOM     13  C   LIG    1       21.953 -18.132   4.884  0.00  0.00    +0.030 C 
BRANCH  13  16
ATOM     14  C   LIG    1       23.677 -14.664   4.180  0.00  0.00    +0.038 C 
ATOM     15  C   LIG    1       22.807 -15.709   4.832  0.00  0.00    -0.080 C 
ATOM     16  C   LIG    1       22.741 -16.964   4.341  0.00  0.00    -0.028 C 
ATOM     17  C   LIG    1       22.068 -15.210   6.043  0.00  0.00    +0.038 C 
ENDBRANCH  13  16
ENDBRANCH  12  13
ENDBRANCH   1  12
TORSDOF 5
ENDMDL
MODEL 7
REMARK VINA RESULT:      -4.2      1.750      3.733
REMARK  Name = *****
REMARK                            x       y       z     vdW  Elec       q    Type
REMARK                         _______ _______ _______ _____ _____    ______ ____
ROOT
ATOM      1  C   LIG    1       27.156 -13.857   3.835  0.00  0.00    +0.067 C 
ATOM      2  C   LIG    1       28.555 -13.303   3.514  0.00  0.00    +0.041 C 
ENDROOT
BRANCH   1   3
ATOM      3  C   LIG    1       25.982 -12.811   3.795  0.00  0.00    +0.024 C 
ATOM      4  C   LIG    1       24.966 -13.020   2.649  0.00  0.00    +0.011 C 
ATOM      5  C   LIG    1       23.961 -14.154   2.884  0.00  0.00    +0.030 C 
ATOM      6  C   LIG    1       23.631 -14.421   4.331  0.00  0.00    -0.076 C 
ATOM      7  C   LIG    1       22.726 -15.587   4.597  0.00  0.00    +0.038 C 
ATOM      8  C   LIG    1       24.165 -13.691   5.335  0.00  0.00    -0.027 C 
ATOM      9  C   LIG    1       25.189 -12.622   5.102  0.00  0.00    +0.033 C 
ENDBRANCH   1   3
BRANCH   1  10
ATOM     10  O   LIG    1       27.208 -14.347   5.189  0.00  0.00    -0.389 OA
ATOM     11  H   LIG    1       28.114 -14.652   5.370  0.00  0.00    +0.210 HD
ENDBRANCH   1  10
BRANCH   1  12
ATOM     12  C   LIG    1       26.928 -15.089   2.910  0.00  0.00    +0.039 C 
BRANCH  12  13
ATOM     13  C   LIG    1       26.966 -16.448   3.622  0.00  0.00    +0.030 C 
BRANCH  13  16
ATOM     14  C   LIG    1       24.186 -19.218   3.321  0.00  0.00    +0.038 C 
ATOM     15  C   LIG    1       25.488 -18.549   3.682  0.00  0.00    -0.080 C 
ATOM     16  C   LIG    1       25.739 -17.274   3.319  0.00  0.00    -0.028 C 
ATOM     17  C   LIG    1       26.422 -19.429   4.467  0.00  0.00    +0.038 C 
ENDBRANCH  13  16
ENDBRANCH  12  13
ENDBRANCH   1  12
TORSDOF 5
ENDMDL
MODEL 8
REMARK VINA RESULT:      -4.1      2.796      6.749
REMARK  Name = *****
REMARK                            x       y       z     vdW  Elec       q    Type
REMARK                         _______ _______ _______ _____ _____    ______ ____
ROOT
ATOM      1  C   LIG    1       26.124 -20.175   5.204  0.00  0.00    +0.067 C 
ATOM      2  C   LIG    1       26.525 -20.313   6.683  0.00  0.00    +0.041 C 
ENDROOT
BRANCH   1   3
ATOM      3  C   LIG    1       24.935 -21.088   4.730  0.00  0.00    +0.024 C 
ATOM      4  C   LIG    1       23.771 -21.213   5.740  0.00  0.00    +0.011 C 
ATOM      5  C   LIG    1       22.834 -20.002   5.791  0.00  0.00    +0.030 C 
ATOM      6  C   LIG    1       22.717 -19.233   4.498  0.00  0.00    -0.076 C 
ATOM      7  C   LIG    1       21.884 -17.988   4.543  0.00  0.00    +0.038 C 
ATOM      8  C   LIG    1       23.372 -19.611   3.378  0.00  0.00    -0.027 C 
ATOM      9  C   LIG    1       24.330 -20.763   3.350  0.00  0.00    +0.033 C 
ENDBRANCH   1   3
BRANCH   1  10
ATOM     10  O   LIG    1       27.270 -20.577   4.428  0.00  0.00    -0.389 OA
ATOM     11  H   LIG    1       27.767 -21.240   4.938  0.00  0.00    +0.210 HD
ENDBRANCH   1  10
BRANCH   1  12
ATOM     12  C   LIG    1       25.896 -18.658   4.931  0.00  0.00    +0.039 C 
BRANCH  12  13
ATOM     13  C   LIG    1       26.570 -18.121   3.662  0.00  0.00    +0.030 C 
BRANCH  13  16
ATOM     14  C   LIG    1       25.661 -14.385   2.816  0.00  0.00    +0.038 C 
ATOM     15  C   LIG    1       26.402 -15.572   3.378  0.00  0.00    -0.080 C 
ATOM     16  C   LIG    1       25.942 -16.828   3.198  0.00  0.00    -0.028 C 
ATOM     17  C   LIG    1       27.660 -15.205   4.116  0.00  0.00    +0.038 C 
ENDBRANCH  13  16
ENDBRANCH  12  13
ENDBRANCH   1  12
TORSDOF 5
ENDMDL
MODEL 9
REMARK VINA RESULT:      -3.7      2.566      6.793
REMARK  Name = *****
REMARK                            x       y       z     vdW  Elec       q    Type
REMARK                         _______ _______ _______ _____ _____    ______ ____
ROOT
ATOM      1  C   LIG    1       24.589 -20.133   4.345  0.00  0.00    +0.067 C 
ATOM      2  C   LIG    1       26.032 -20.155   4.879  0.00  0.00    +0.041 C 
ENDROOT
BRANCH   1   3
ATOM      3  C   LIG    1       23.457 -20.148   5.436  0.00  0.00    +0.024 C 
ATOM      4  C   LIG    1       22.930 -18.754   5.844  0.00  0.00    +0.011 C 
ATOM      5  C   LIG    1       21.966 -18.113   4.838  0.00  0.00    +0.030 C 
ATOM      6  C   LIG    1       21.153 -19.091   4.026  0.00  0.00    -0.076 C 
ATOM      7  C   LIG    1       20.274 -18.498   2.967  0.00  0.00    +0.038 C 
ATOM      8  C   LIG    1       21.255 -20.427   4.201  0.00  0.00    -0.027 C 
ATOM      9  C   LIG    1       22.239 -21.048   5.146  0.00  0.00    +0.033 C 
ENDBRANCH   1   3
BRANCH   1  10
ATOM     10  O   LIG    1       24.418 -21.340   3.575  0.00  0.00    -0.389 OA
ATOM     11  H   LIG    1       24.959 -21.268   2.770  0.00  0.00    +0.210 HD
ENDBRANCH   1  10
BRANCH   1  12
ATOM     12  C   LIG    1       24.486 -18.938   3.352  0.00  0.00    +0.039 C 
BRANCH  12  13
ATOM     13  C   LIG    1       25.649 -17.939   3.418  0.00  0.00    +0.030 C 
BRANCH  13  16
ATOM     14  C   LIG    1       25.247 -14.023   3.430  0.00  0.00    +0.038 C 
ATOM     15  C   LIG    1       25.892 -15.383   3.525  0.00  0.00    -0.080 C 
ATOM     16  C   LIG    1       25.163 -16.510   3.384  0.00  0.00    -0.028 C 
ATOM     17  C   LIG    1       27.375 -15.333   3.772  0.00  0.00    +0.038 C 
ENDBRANCH  13  16
ENDBRANCH  12  13
ENDBRANCH   1  12
TORSDOF 5
ENDMDL
