MODEL 1
REMARK VINA RESULT:       1.8      0.000      0.000
REMARK  Name = *****
REMARK                            x       y       z     vdW  Elec       q    Type
REMARK                         _______ _______ _______ _____ _____    ______ ____
ROOT
ATOM      1  C   LIG    1       28.167 -19.228   5.133  0.00  0.00    +0.119 C 
ENDROOT
BRANCH   1   5
ATOM      2  C   LIG    1       27.497 -15.144   3.685  0.00  0.00    -0.010 A 
ATOM      3  C   LIG    1       26.791 -16.229   3.149  0.00  0.00    +0.007 A 
ATOM      4  C   LIG    1       27.014 -17.534   3.610  0.00  0.00    +0.005 A 
ATOM      5  C   LIG    1       27.955 -17.794   4.619  0.00  0.00    -0.034 A 
ATOM      6  C   LIG    1       28.672 -16.697   5.131  0.00  0.00    +0.005 A 
ATOM      7  C   LIG    1       28.459 -15.396   4.662  0.00  0.00    +0.007 A 
BRANCH   2   8
ATOM      8  C   LIG    1       27.286 -13.748   3.159  0.00  0.00    +0.268 C 
BRANCH   8   9
ATOM      9  O   LIG    1       26.280 -13.822   2.151  0.00  0.00    -0.456 OA
BRANCH   9  10
ATOM     10  C   LIG    1       25.182 -13.050   2.390  0.00  0.00    +0.340 C 
ATOM     11  O   LIG    1       24.868 -12.039   1.813  0.00  0.00    -0.245 OA
BRANCH  10  17
ATOM     12  C   LIG    1       21.759 -15.418   6.385  0.00  0.00    +0.044 C 
ATOM     13  C   LIG    1       22.746 -14.849   5.412  0.00  0.00    -0.050 A 
ATOM     14  C   LIG    1       23.229 -13.543   5.588  0.00  0.00    +0.007 A 
ATOM     15  C   LIG    1       24.096 -12.952   4.654  0.00  0.00    -0.036 A 
ATOM     16  C   LIG    1       24.591 -11.552   4.891  0.00  0.00    +0.044 C 
ATOM     17  C   LIG    1       24.431 -13.687   3.507  0.00  0.00    +0.062 A 
ATOM     18  C   LIG    1       24.018 -15.023   3.371  0.00  0.00    +0.015 A 
ATOM     19  C   LIG    1       23.169 -15.596   4.312  0.00  0.00    +0.004 A 
ENDBRANCH  10  17
ENDBRANCH   9  10
ENDBRANCH   8   9
ENDBRANCH   2   8
ENDBRANCH   1   5
BRANCH   1  20
ATOM     20  C   LIG    1       26.827 -19.954   5.380  0.00  0.00    +0.226 C 
ATOM     21  N   LIG    1       25.816 -19.558   4.502  0.00  0.00    -0.285 N 
ATOM     22  H   LIG    1       26.077 -18.902   3.776  0.00  0.00    +0.155 HD
ATOM     23  O   LIG    1       26.719 -20.817   6.248  0.00  0.00    -0.275 OA
BRANCH  21  24
ATOM     24  C   LIG    1       24.460 -19.970   4.488  0.00  0.00    +0.034 A 
ATOM     25  C   LIG    1       23.502 -19.060   4.002  0.00  0.00    +0.031 A 
ATOM     26  C   LIG    1       22.126 -19.381   3.965  0.00  0.00    -0.013 A 
ATOM     27  C   LIG    1       21.709 -20.641   4.430  0.00  0.00    +0.000 A 
ATOM     28  C   LIG    1       20.344 -20.935   4.380  0.00  0.00    +0.119 A 
ATOM     29  N   LIG    1       19.394 -20.094   3.910  0.00  0.00    -0.263 NA
ATOM     30  C   LIG    1       19.822 -18.895   3.469  0.00  0.00    +0.111 A 
ATOM     31  C   LIG    1       22.663 -21.547   4.916  0.00  0.00    +0.012 A 
ATOM     32  C   LIG    1       21.150 -18.495   3.480  0.00  0.00    +0.028 A 
ATOM     33  C   LIG    1       24.023 -21.214   4.941  0.00  0.00    +0.024 A 
ENDBRANCH  21  24
ENDBRANCH   1  20
BRANCH   1  34
ATOM     34  C   LIG    1       29.048 -19.300   6.409  0.00  0.00    +0.095 C 
BRANCH  34  35
ATOM     35  N   LIG    1       29.475 -20.646   6.813  0.00  0.00    -0.329 NA
ATOM     36  H   LIG    1       29.013 -21.319   6.196  0.00  0.00    +0.118 HD
ATOM     37  H   LIG    1       30.469 -20.759   6.596  0.00  0.00    +0.118 HD
ENDBRANCH  34  35
ENDBRANCH   1  34
TORSDOF 9
ENDMDL
MODEL 2
REMARK VINA RESULT:       4.7      2.590      6.321
REMARK  Name = *****
REMARK                            x       y       z     vdW  Elec       q    Type
REMARK                         _______ _______ _______ _____ _____    ______ ____
ROOT
ATOM      1  C   LIG    1       28.081 -19.041   5.775  0.00  0.00    +0.119 C 
ENDROOT
BRANCH   1   5
ATOM      2  C   LIG    1       24.409 -20.901   4.265  0.00  0.00    -0.010 A 
ATOM      3  C   LIG    1       24.928 -21.236   5.522  0.00  0.00    +0.007 A 
ATOM      4  C   LIG    1       26.107 -20.644   5.998  0.00  0.00    +0.005 A 
ATOM      5  C   LIG    1       26.805 -19.701   5.226  0.00  0.00    -0.034 A 
ATOM      6  C   LIG    1       26.284 -19.393   3.957  0.00  0.00    +0.005 A 
ATOM      7  C   LIG    1       25.114 -19.993   3.476  0.00  0.00    +0.007 A 
BRANCH   2   8
ATOM      8  C   LIG    1       23.165 -21.569   3.738  0.00  0.00    +0.268 C 
BRANCH   8   9
ATOM      9  O   LIG    1       22.144 -21.395   4.718  0.00  0.00    -0.456 OA
BRANCH   9  10
ATOM     10  C   LIG    1       21.092 -20.630   4.308  0.00  0.00    +0.340 C 
ATOM     11  O   LIG    1       20.014 -21.021   3.935  0.00  0.00    -0.245 OA
BRANCH  10  17
ATOM     12  C   LIG    1       22.471 -15.104   5.230  0.00  0.00    +0.044 C 
ATOM     13  C   LIG    1       22.191 -16.537   4.891  0.00  0.00    -0.050 A 
ATOM     14  C   LIG    1       21.118 -16.860   4.046  0.00  0.00    +0.007 A 
ATOM     15  C   LIG    1       20.782 -18.195   3.769  0.00  0.00    -0.036 A 
ATOM     16  C   LIG    1       19.627 -18.490   2.851  0.00  0.00    +0.044 C 
ATOM     17  C   LIG    1       21.519 -19.207   4.403  0.00  0.00    +0.062 A 
ATOM     18  C   LIG    1       22.645 -18.887   5.180  0.00  0.00    +0.015 A 
ATOM     19  C   LIG    1       22.970 -17.559   5.434  0.00  0.00    +0.004 A 
ENDBRANCH  10  17
ENDBRANCH   9  10
ENDBRANCH   8   9
ENDBRANCH   2   8
ENDBRANCH   1   5
BRANCH   1  20
ATOM     20  C   LIG    1       28.287 -17.623   5.200  0.00  0.00    +0.226 C 
ATOM     21  N   LIG    1       27.112 -17.055   4.702  0.00  0.00    -0.285 N 
ATOM     22  H   LIG    1       26.262 -17.592   4.824  0.00  0.00    +0.155 HD
ATOM     23  O   LIG    1       29.384 -17.072   5.237  0.00  0.00    -0.275 OA
BRANCH  21  24
ATOM     24  C   LIG    1       26.953 -15.805   4.053  0.00  0.00    +0.034 A 
ATOM     25  C   LIG    1       25.643 -15.373   3.775  0.00  0.00    +0.031 A 
ATOM     26  C   LIG    1       25.391 -14.146   3.118  0.00  0.00    -0.013 A 
ATOM     27  C   LIG    1       26.480 -13.346   2.732  0.00  0.00    +0.000 A 
ATOM     28  C   LIG    1       26.204 -12.136   2.088  0.00  0.00    +0.119 A 
ATOM     29  N   LIG    1       24.961 -11.679   1.812  0.00  0.00    -0.263 NA
ATOM     30  C   LIG    1       23.936 -12.466   2.195  0.00  0.00    +0.111 A 
ATOM     31  C   LIG    1       27.786 -13.777   3.008  0.00  0.00    +0.012 A 
ATOM     32  C   LIG    1       24.094 -13.688   2.834  0.00  0.00    +0.028 A 
ATOM     33  C   LIG    1       28.017 -14.992   3.664  0.00  0.00    +0.024 A 
ENDBRANCH  21  24
ENDBRANCH   1  20
BRANCH   1  34
ATOM     34  C   LIG    1       29.360 -19.892   5.546  0.00  0.00    +0.095 C 
BRANCH  34  35
ATOM     35  N   LIG    1       29.458 -21.120   6.346  0.00  0.00    -0.329 NA
ATOM     36  H   LIG    1       29.202 -21.907   5.743  0.00  0.00    +0.118 HD
ATOM     37  H   LIG    1       30.443 -21.295   6.567  0.00  0.00    +0.118 HD
ENDBRANCH  34  35
ENDBRANCH   1  34
TORSDOF 9
ENDMDL
