MODEL 1
REMARK VINA RESULT:      -2.7      0.000      0.000
REMARK  Name = *****
REMARK                            x       y       z     vdW  Elec       q    Type
REMARK                         _______ _______ _______ _____ _____    ______ ____
ROOT
ATOM      1  C   LIG    1       26.961 -14.792   3.788  0.00  0.00    +0.076 C 
ATOM      2  C   LIG    1       27.831 -14.214   4.931  0.00  0.00    +0.023 C 
ATOM      3  C   LIG    1       28.373 -14.202   3.544  0.00  0.00    +0.027 C 
ENDROOT
BRANCH   1   4
ATOM      4  C   LIG    1       26.823 -16.327   3.831  0.00  0.00    -0.032 A 
ATOM      5  C   LIG    1       25.684 -16.970   3.306  0.00  0.00    +0.005 A 
ATOM      6  C   LIG    1       25.507 -18.352   3.395  0.00  0.00    +0.000 A 
ATOM      7  C   LIG    1       26.477 -19.133   4.010  0.00  0.00    +0.000 A 
ATOM      8  C   LIG    1       27.622 -18.532   4.528  0.00  0.00    +0.000 A 
ATOM      9  C   LIG    1       27.793 -17.145   4.436  0.00  0.00    +0.005 A 
ENDBRANCH   1   4
BRANCH   1  11
ATOM     10  N   LIG    1       24.661 -13.727   3.509  0.00  0.00    -0.301 N 
ATOM     11  C   LIG    1       25.910 -14.042   2.973  0.00  0.00    +0.226 C 
ATOM     12  O   LIG    1       26.214 -13.726   1.812  0.00  0.00    -0.275 OA
BRANCH  10  14
ATOM     13  C   LIG    1       23.077 -15.164   4.793  0.00  0.00    +0.024 C 
ATOM     14  C   LIG    1       24.205 -14.139   4.836  0.00  0.00    +0.104 C 
ENDBRANCH  10  14
BRANCH  10  15
ATOM     15  C   LIG    1       23.716 -12.974   2.671  0.00  0.00    +0.104 C 
ATOM     16  C   LIG    1       23.851 -11.460   2.755  0.00  0.00    +0.024 C 
ENDBRANCH  10  15
ENDBRANCH   1  11
BRANCH   2  17
ATOM     17  C   LIG    1       27.540 -12.957   5.659  0.00  0.00    +0.082 C 
BRANCH  17  18
ATOM     18  N   LIG    1       28.741 -12.143   5.748  0.00  0.00    -0.330 NA
ATOM     19  H   LIG    1       29.121 -11.982   4.818  0.00  0.00    +0.118 HD
ATOM     20  H   LIG    1       28.482 -11.226   6.109  0.00  0.00    +0.118 HD
ENDBRANCH  17  18
ENDBRANCH   2  17
TORSDOF 6
ENDMDL
MODEL 2
REMARK VINA RESULT:      -2.6      1.855      2.963
REMARK  Name = *****
REMARK                            x       y       z     vdW  Elec       q    Type
REMARK                         _______ _______ _______ _____ _____    ______ ____
ROOT
ATOM      1  C   LIG    1       25.617 -14.811   3.811  0.00  0.00    +0.076 C 
ATOM      2  C   LIG    1       27.016 -15.228   3.296  0.00  0.00    +0.023 C 
ATOM      3  C   LIG    1       26.141 -14.414   2.408  0.00  0.00    +0.027 C 
ENDROOT
BRANCH   1   4
ATOM      4  C   LIG    1       24.616 -15.981   3.897  0.00  0.00    -0.032 A 
ATOM      5  C   LIG    1       23.303 -15.782   4.369  0.00  0.00    +0.005 A 
ATOM      6  C   LIG    1       22.402 -16.838   4.520  0.00  0.00    +0.000 A 
ATOM      7  C   LIG    1       22.793 -18.130   4.192  0.00  0.00    +0.000 A 
ATOM      8  C   LIG    1       24.079 -18.360   3.709  0.00  0.00    +0.000 A 
ATOM      9  C   LIG    1       24.978 -17.297   3.562  0.00  0.00    +0.005 A 
ENDBRANCH   1   4
BRANCH   1  11
ATOM     10  N   LIG    1       24.407 -12.594   4.160  0.00  0.00    -0.301 N 
ATOM     11  C   LIG    1       25.281 -13.573   4.637  0.00  0.00    +0.226 C 
ATOM     12  O   LIG    1       25.819 -13.472   5.751  0.00  0.00    -0.275 OA
BRANCH  10  14
ATOM     13  C   LIG    1       24.324 -11.495   1.922  0.00  0.00    +0.024 C 
ATOM     14  C   LIG    1       23.802 -12.606   2.829  0.00  0.00    +0.104 C 
ENDBRANCH  10  14
BRANCH  10  15
ATOM     15  C   LIG    1       24.110 -11.447   5.030  0.00  0.00    +0.104 C 
ATOM     16  C   LIG    1       22.750 -11.496   5.713  0.00  0.00    +0.024 C 
ENDBRANCH  10  15
ENDBRANCH   1  11
BRANCH   2  17
ATOM     17  C   LIG    1       28.299 -14.698   3.815  0.00  0.00    +0.082 C 
BRANCH  17  18
ATOM     18  N   LIG    1       28.455 -13.304   3.430  0.00  0.00    -0.330 NA
ATOM     19  H   LIG    1       27.780 -12.729   3.930  0.00  0.00    +0.118 HD
ATOM     20  H   LIG    1       29.374 -12.988   3.735  0.00  0.00    +0.118 HD
ENDBRANCH  17  18
ENDBRANCH   2  17
TORSDOF 6
ENDMDL
MODEL 3
REMARK VINA RESULT:      -2.2      1.461      3.672
REMARK  Name = *****
REMARK                            x       y       z     vdW  Elec       q    Type
REMARK                         _______ _______ _______ _____ _____    ______ ____
ROOT
ATOM      1  C   LIG    1       25.121 -14.639   3.426  0.00  0.00    +0.076 C 
ATOM      2  C   LIG    1       23.837 -13.839   3.097  0.00  0.00    +0.023 C 
ATOM      3  C   LIG    1       24.458 -13.672   4.440  0.00  0.00    +0.027 C 
ENDROOT
BRANCH   1   4
ATOM      4  C   LIG    1       24.877 -16.150   3.612  0.00  0.00    -0.032 A 
ATOM      5  C   LIG    1       25.900 -17.087   3.366  0.00  0.00    +0.005 A 
ATOM      6  C   LIG    1       25.683 -18.463   3.461  0.00  0.00    +0.000 A 
ATOM      7  C   LIG    1       24.428 -18.940   3.816  0.00  0.00    +0.000 A 
ATOM      8  C   LIG    1       23.397 -18.040   4.080  0.00  0.00    +0.000 A 
ATOM      9  C   LIG    1       23.621 -16.662   3.981  0.00  0.00    +0.005 A 
ENDBRANCH   1   4
BRANCH   1  11
ATOM     10  N   LIG    1       27.341 -13.578   4.095  0.00  0.00    -0.301 N 
ATOM     11  C   LIG    1       26.558 -14.218   3.133  0.00  0.00    +0.226 C 
ATOM     12  O   LIG    1       27.001 -14.466   2.000  0.00  0.00    -0.275 OA
BRANCH  10  14
ATOM     13  C   LIG    1       27.427 -14.039   6.545  0.00  0.00    +0.024 C 
ATOM     14  C   LIG    1       26.860 -13.181   5.418  0.00  0.00    +0.104 C 
ENDBRANCH  10  14
BRANCH  10  15
ATOM     15  C   LIG    1       28.726 -13.233   3.746  0.00  0.00    +0.104 C 
ATOM     16  C   LIG    1       29.238 -11.935   4.356  0.00  0.00    +0.024 C 
ENDBRANCH  10  15
ENDBRANCH   1  11
BRANCH   2  17
ATOM     17  C   LIG    1       23.766 -12.716   2.132  0.00  0.00    +0.082 C 
BRANCH  17  18
ATOM     18  N   LIG    1       23.814 -11.447   2.840  0.00  0.00    -0.330 NA
ATOM     19  H   LIG    1       24.691 -10.972   2.641  0.00  0.00    +0.118 HD
ATOM     20  H   LIG    1       23.078 -10.846   2.471  0.00  0.00    +0.118 HD
ENDBRANCH  17  18
ENDBRANCH   2  17
TORSDOF 6
ENDMDL
MODEL 4
REMARK VINA RESULT:      -1.8      3.773      6.901
REMARK  Name = *****
REMARK                            x       y       z     vdW  Elec       q    Type
REMARK                         _______ _______ _______ _____ _____    ______ ____
ROOT
ATOM      1  C   LIG    1       23.851 -18.741   4.042  0.00  0.00    +0.076 C 
ATOM      2  C   LIG    1       22.385 -19.122   4.365  0.00  0.00    +0.023 C 
ATOM      3  C   LIG    1       22.904 -19.379   2.993  0.00  0.00    +0.027 C 
ENDROOT
BRANCH   1   4
ATOM      4  C   LIG    1       24.091 -17.221   3.959  0.00  0.00    -0.032 A 
ATOM      5  C   LIG    1       25.321 -16.702   3.508  0.00  0.00    +0.005 A 
ATOM      6  C   LIG    1       25.585 -15.331   3.490  0.00  0.00    +0.000 A 
ATOM      7  C   LIG    1       24.614 -14.436   3.919  0.00  0.00    +0.000 A 
ATOM      8  C   LIG    1       23.381 -14.914   4.359  0.00  0.00    +0.000 A 
ATOM      9  C   LIG    1       23.123 -16.290   4.376  0.00  0.00    +0.005 A 
ENDBRANCH   1   4
BRANCH   1  11
ATOM     10  N   LIG    1       25.295 -20.297   5.454  0.00  0.00    -0.301 N 
ATOM     11  C   LIG    1       25.087 -19.610   4.257  0.00  0.00    +0.226 C 
ATOM     12  O   LIG    1       25.901 -19.678   3.322  0.00  0.00    -0.275 OA
BRANCH  10  14
ATOM     13  C   LIG    1       23.844 -21.542   7.057  0.00  0.00    +0.024 C 
ATOM     14  C   LIG    1       24.423 -20.199   6.624  0.00  0.00    +0.104 C 
ENDBRANCH  10  14
BRANCH  10  15
ATOM     15  C   LIG    1       26.495 -21.139   5.571  0.00  0.00    +0.104 C 
ATOM     16  C   LIG    1       27.516 -20.661   6.594  0.00  0.00    +0.024 C 
ENDBRANCH  10  15
ENDBRANCH   1  11
BRANCH   2  17
ATOM     17  C   LIG    1       21.979 -20.232   5.259  0.00  0.00    +0.082 C 
BRANCH  17  18
ATOM     18  N   LIG    1       21.429 -21.327   4.476  0.00  0.00    -0.330 NA
ATOM     19  H   LIG    1       20.683 -21.784   4.997  0.00  0.00    +0.118 HD
ATOM     20  H   LIG    1       20.991 -20.937   3.643  0.00  0.00    +0.118 HD
ENDBRANCH  17  18
ENDBRANCH   2  17
TORSDOF 6
ENDMDL
MODEL 5
REMARK VINA RESULT:      -1.7      1.878      2.859
REMARK  Name = *****
REMARK                            x       y       z     vdW  Elec       q    Type
REMARK                         _______ _______ _______ _____ _____    ______ ____
ROOT
ATOM      1  C   LIG    1       25.320 -15.564   3.659  0.00  0.00    +0.076 C 
ATOM      2  C   LIG    1       26.864 -15.462   3.607  0.00  0.00    +0.023 C 
ATOM      3  C   LIG    1       26.085 -15.143   2.379  0.00  0.00    +0.027 C 
ENDROOT
BRANCH   1   4
ATOM      4  C   LIG    1       24.798 -17.013   3.738  0.00  0.00    -0.032 A 
ATOM      5  C   LIG    1       25.614 -18.101   3.368  0.00  0.00    +0.005 A 
ATOM      6  C   LIG    1       25.141 -19.414   3.366  0.00  0.00    +0.000 A 
ATOM      7  C   LIG    1       23.831 -19.676   3.745  0.00  0.00    +0.000 A 
ATOM      8  C   LIG    1       23.001 -18.625   4.129  0.00  0.00    +0.000 A 
ATOM      9  C   LIG    1       23.481 -17.310   4.127  0.00  0.00    +0.005 A 
ENDBRANCH   1   4
BRANCH   1  11
ATOM     10  N   LIG    1       24.302 -13.236   3.448  0.00  0.00    -0.301 N 
ATOM     11  C   LIG    1       24.349 -14.471   4.096  0.00  0.00    +0.226 C 
ATOM     12  O   LIG    1       23.602 -14.727   5.054  0.00  0.00    -0.275 OA
BRANCH  10  14
ATOM     13  C   LIG    1       24.900 -11.448   1.814  0.00  0.00    +0.024 C 
ATOM     14  C   LIG    1       25.205 -12.836   2.369  0.00  0.00    +0.104 C 
ENDBRANCH  10  14
BRANCH  10  15
ATOM     15  C   LIG    1       23.316 -12.247   3.908  0.00  0.00    +0.104 C 
ATOM     16  C   LIG    1       23.731 -11.452   5.138  0.00  0.00    +0.024 C 
ENDBRANCH  10  15
ENDBRANCH   1  11
BRANCH   2  17
ATOM     17  C   LIG    1       27.666 -14.430   4.305  0.00  0.00    +0.082 C 
BRANCH  17  18
ATOM     18  N   LIG    1       28.312 -13.561   3.336  0.00  0.00    -0.330 NA
ATOM     19  H   LIG    1       28.855 -14.118   2.679  0.00  0.00    +0.118 HD
ATOM     20  H   LIG    1       27.589 -13.101   2.785  0.00  0.00    +0.118 HD
ENDBRANCH  17  18
ENDBRANCH   2  17
TORSDOF 6
ENDMDL
MODEL 6
REMARK VINA RESULT:      -1.5      3.768      7.035
REMARK  Name = *****
REMARK                            x       y       z     vdW  Elec       q    Type
REMARK                         _______ _______ _______ _____ _____    ______ ____
ROOT
ATOM      1  C   LIG    1       24.913 -19.543   4.150  0.00  0.00    +0.076 C 
ATOM      2  C   LIG    1       23.915 -20.318   3.255  0.00  0.00    +0.023 C 
ATOM      3  C   LIG    1       25.372 -20.451   2.982  0.00  0.00    +0.027 C 
ENDROOT
BRANCH   1   4
ATOM      4  C   LIG    1       24.902 -18.020   3.911  0.00  0.00    -0.032 A 
ATOM      5  C   LIG    1       26.049 -17.350   3.439  0.00  0.00    +0.005 A 
ATOM      6  C   LIG    1       26.084 -15.963   3.281  0.00  0.00    +0.000 A 
ATOM      7  C   LIG    1       24.961 -15.206   3.586  0.00  0.00    +0.000 A 
ATOM      8  C   LIG    1       23.806 -15.837   4.042  0.00  0.00    +0.000 A 
ATOM      9  C   LIG    1       23.778 -17.228   4.200  0.00  0.00    +0.005 A 
ENDBRANCH   1   4
BRANCH   1  11
ATOM     10  N   LIG    1       26.869 -19.879   5.751  0.00  0.00    -0.301 N 
ATOM     11  C   LIG    1       25.507 -20.015   5.473  0.00  0.00    +0.226 C 
ATOM     12  O   LIG    1       24.729 -20.529   6.293  0.00  0.00    -0.275 OA
BRANCH  10  14
ATOM     13  C   LIG    1       28.972 -18.567   5.474  0.00  0.00    +0.024 C 
ATOM     14  C   LIG    1       27.855 -19.361   4.804  0.00  0.00    +0.104 C 
ENDBRANCH  10  14
BRANCH  10  15
ATOM     15  C   LIG    1       27.358 -20.330   7.062  0.00  0.00    +0.104 C 
ATOM     16  C   LIG    1       28.278 -21.543   7.021  0.00  0.00    +0.024 C 
ENDBRANCH  10  15
ENDBRANCH   1  11
BRANCH   2  17
ATOM     17  C   LIG    1       23.102 -21.474   3.702  0.00  0.00    +0.082 C 
BRANCH  17  18
ATOM     18  N   LIG    1       22.221 -21.073   4.787  0.00  0.00    -0.330 NA
ATOM     19  H   LIG    1       21.979 -21.883   5.354  0.00  0.00    +0.118 HD
ATOM     20  H   LIG    1       22.733 -20.442   5.401  0.00  0.00    +0.118 HD
ENDBRANCH  17  18
ENDBRANCH   2  17
TORSDOF 6
ENDMDL
MODEL 7
REMARK VINA RESULT:      -1.5      1.362      2.047
REMARK  Name = *****
REMARK                            x       y       z     vdW  Elec       q    Type
REMARK                         _______ _______ _______ _____ _____    ______ ____
ROOT
ATOM      1  C   LIG    1       26.030 -14.730   3.545  0.00  0.00    +0.076 C 
ATOM      2  C   LIG    1       27.335 -14.602   4.369  0.00  0.00    +0.023 C 
ATOM      3  C   LIG    1       27.432 -14.685   2.886  0.00  0.00    +0.027 C 
ENDROOT
BRANCH   1   4
ATOM      4  C   LIG    1       25.347 -16.106   3.680  0.00  0.00    -0.032 A 
ATOM      5  C   LIG    1       26.044 -17.296   3.389  0.00  0.00    +0.005 A 
ATOM      6  C   LIG    1       25.426 -18.547   3.438  0.00  0.00    +0.000 A 
ATOM      7  C   LIG    1       24.086 -18.641   3.791  0.00  0.00    +0.000 A 
ATOM      8  C   LIG    1       23.371 -17.485   4.098  0.00  0.00    +0.000 A 
ATOM      9  C   LIG    1       23.996 -16.234   4.046  0.00  0.00    +0.005 A 
ENDBRANCH   1   4
BRANCH   1  11
ATOM     10  N   LIG    1       24.618 -12.639   3.914  0.00  0.00    -0.301 N 
ATOM     11  C   LIG    1       25.154 -13.587   3.041  0.00  0.00    +0.226 C 
ATOM     12  O   LIG    1       24.937 -13.537   1.819  0.00  0.00    -0.275 OA
BRANCH  10  14
ATOM     13  C   LIG    1       24.131 -11.485   6.071  0.00  0.00    +0.024 C 
ATOM     14  C   LIG    1       24.764 -12.682   5.368  0.00  0.00    +0.104 C 
ENDBRANCH  10  14
BRANCH  10  15
ATOM     15  C   LIG    1       23.812 -11.550   3.345  0.00  0.00    +0.104 C 
ATOM     16  C   LIG    1       23.852 -11.447   1.827  0.00  0.00    +0.024 C 
ENDBRANCH  10  15
ENDBRANCH   1  11
BRANCH   2  17
ATOM     17  C   LIG    1       27.751 -13.385   5.106  0.00  0.00    +0.082 C 
BRANCH  17  18
ATOM     18  N   LIG    1       28.731 -12.643   4.329  0.00  0.00    -0.330 NA
ATOM     19  H   LIG    1       28.398 -12.523   3.375  0.00  0.00    +0.118 HD
ATOM     20  H   LIG    1       28.808 -11.705   4.720  0.00  0.00    +0.118 HD
ENDBRANCH  17  18
ENDBRANCH   2  17
TORSDOF 6
ENDMDL
MODEL 8
REMARK VINA RESULT:      -0.9      1.805      3.739
REMARK  Name = *****
REMARK                            x       y       z     vdW  Elec       q    Type
REMARK                         _______ _______ _______ _____ _____    ______ ____
ROOT
ATOM      1  C   LIG    1       24.756 -14.559   4.271  0.00  0.00    +0.076 C 
ATOM      2  C   LIG    1       23.585 -13.795   3.606  0.00  0.00    +0.023 C 
ATOM      3  C   LIG    1       23.535 -14.043   5.073  0.00  0.00    +0.027 C 
ENDROOT
BRANCH   1   4
ATOM      4  C   LIG    1       24.797 -16.058   3.915  0.00  0.00    -0.032 A 
ATOM      5  C   LIG    1       23.659 -16.875   4.072  0.00  0.00    +0.005 A 
ATOM      6  C   LIG    1       23.692 -18.248   3.821  0.00  0.00    +0.000 A 
ATOM      7  C   LIG    1       24.873 -18.843   3.396  0.00  0.00    +0.000 A 
ATOM      8  C   LIG    1       26.014 -18.063   3.218  0.00  0.00    +0.000 A 
ATOM      9  C   LIG    1       25.974 -16.687   3.472  0.00  0.00    +0.005 A 
ENDBRANCH   1   4
BRANCH   1  11
ATOM     10  N   LIG    1       27.025 -13.442   3.946  0.00  0.00    -0.301 N 
ATOM     11  C   LIG    1       26.051 -13.955   4.805  0.00  0.00    +0.226 C 
ATOM     12  O   LIG    1       26.204 -13.941   6.037  0.00  0.00    -0.275 OA
BRANCH  10  14
ATOM     13  C   LIG    1       26.212 -12.311   1.876  0.00  0.00    +0.024 C 
ATOM     14  C   LIG    1       26.950 -13.499   2.487  0.00  0.00    +0.104 C 
ENDBRANCH  10  14
BRANCH  10  15
ATOM     15  C   LIG    1       28.231 -12.847   4.540  0.00  0.00    +0.104 C 
ATOM     16  C   LIG    1       29.456 -12.842   3.636  0.00  0.00    +0.024 C 
ENDBRANCH  10  15
ENDBRANCH   1  11
BRANCH   2  17
ATOM     17  C   LIG    1       23.677 -12.422   3.055  0.00  0.00    +0.082 C 
BRANCH  17  18
ATOM     18  N   LIG    1       23.617 -11.448   4.133  0.00  0.00    -0.330 NA
ATOM     19  H   LIG    1       23.395 -11.915   5.010  0.00  0.00    +0.118 HD
ATOM     20  H   LIG    1       24.546 -11.047   4.255  0.00  0.00    +0.118 HD
ENDBRANCH  17  18
ENDBRANCH   2  17
TORSDOF 6
ENDMDL
MODEL 9
REMARK VINA RESULT:      -0.3      1.873      4.213
REMARK  Name = *****
REMARK                            x       y       z     vdW  Elec       q    Type
REMARK                         _______ _______ _______ _____ _____    ______ ____
ROOT
ATOM      1  C   LIG    1       24.402 -13.652   4.029  0.00  0.00    +0.076 C 
ATOM      2  C   LIG    1       23.822 -12.867   2.827  0.00  0.00    +0.023 C 
ATOM      3  C   LIG    1       23.633 -12.317   4.198  0.00  0.00    +0.027 C 
ENDROOT
BRANCH   1   4
ATOM      4  C   LIG    1       23.645 -14.959   4.337  0.00  0.00    -0.032 A 
ATOM      5  C   LIG    1       22.597 -14.987   5.279  0.00  0.00    +0.005 A 
ATOM      6  C   LIG    1       21.943 -16.172   5.624  0.00  0.00    +0.000 A 
ATOM      7  C   LIG    1       22.319 -17.367   5.025  0.00  0.00    +0.000 A 
ATOM      8  C   LIG    1       23.343 -17.373   4.080  0.00  0.00    +0.000 A 
ATOM      9  C   LIG    1       23.995 -16.182   3.739  0.00  0.00    +0.005 A 
ENDBRANCH   1   4
BRANCH   1  11
ATOM     10  N   LIG    1       26.880 -14.254   4.039  0.00  0.00    -0.301 N 
ATOM     11  C   LIG    1       25.816 -13.541   4.593  0.00  0.00    +0.226 C 
ATOM     12  O   LIG    1       25.979 -12.789   5.568  0.00  0.00    -0.275 OA
BRANCH  10  14
ATOM     13  C   LIG    1       26.969 -16.660   3.387  0.00  0.00    +0.024 C 
ATOM     14  C   LIG    1       26.748 -15.216   2.946  0.00  0.00    +0.104 C 
ENDBRANCH  10  14
BRANCH  10  15
ATOM     15  C   LIG    1       28.218 -14.067   4.619  0.00  0.00    +0.104 C 
ATOM     16  C   LIG    1       29.062 -12.990   3.951  0.00  0.00    +0.024 C 
ENDBRANCH  10  15
ENDBRANCH   1  11
BRANCH   2  17
ATOM     17  C   LIG    1       24.634 -12.154   1.813  0.00  0.00    +0.082 C 
BRANCH  17  18
ATOM     18  N   LIG    1       25.841 -11.622   2.424  0.00  0.00    -0.330 NA
ATOM     19  H   LIG    1       26.229 -12.303   3.074  0.00  0.00    +0.118 HD
ATOM     20  H   LIG    1       26.542 -11.498   1.695  0.00  0.00    +0.118 HD
ENDBRANCH  17  18
ENDBRANCH   2  17
TORSDOF 6
ENDMDL
