MODEL 1
REMARK VINA RESULT:      -6.2      0.000      0.000
REMARK  Name = *****
REMARK                            x       y       z     vdW  Elec       q    Type
REMARK                         _______ _______ _______ _____ _____    ______ ____
ROOT
ATOM      1  C   LIG    1       24.645 -22.373   5.340  0.00  0.00    +0.208 C 
ENDROOT
BRANCH   1   2
ATOM      2  C   LIG    1       25.208 -23.770   5.732  0.00  0.00    +0.242 C 
ATOM      3  N   LIG    1       24.915 -24.769   4.820  0.00  0.00    -0.313 N 
ATOM      4  H   LIG    1       24.618 -24.467   3.898  0.00  0.00    +0.149 HD
ATOM      5  O   LIG    1       25.819 -23.997   6.760  0.00  0.00    -0.273 OA
BRANCH   3   6
ATOM      6  C   LIG    1       25.382 -26.131   5.025  0.00  0.00    +0.106 C 
BRANCH   6   7
ATOM      7  C   LIG    1       24.291 -27.004   5.640  0.00  0.00    +0.046 C 
BRANCH   7   8
ATOM      8  C   LIG    1       24.487 -28.474   5.290  0.00  0.00    +0.157 C 
BRANCH   8   9
ATOM      9  O   LIG    1       23.251 -29.174   5.352  0.00  0.00    -0.395 OA
ATOM     10  H   LIG    1       22.541 -28.536   5.167  0.00  0.00    +0.209 HD
ENDBRANCH   8   9
ENDBRANCH   7   8
ENDBRANCH   6   7
ENDBRANCH   3   6
ENDBRANCH   1   2
BRANCH   1  12
ATOM     11  C   LIG    1       22.688 -23.132   6.816  0.00  0.00    +0.016 C 
ATOM     12  C   LIG    1       23.415 -21.918   6.196  0.00  0.00    +0.023 C 
ATOM     13  C   LIG    1       22.375 -21.196   5.301  0.00  0.00    +0.016 C 
BRANCH  12  14
ATOM     14  C   LIG    1       23.850 -20.963   7.330  0.00  0.00    +0.165 C 
BRANCH  14  15
ATOM     15  O   LIG    1       24.705 -21.627   8.258  0.00  0.00    -0.394 OA
ATOM     16  H   LIG    1       24.199 -22.384   8.605  0.00  0.00    +0.209 HD
ENDBRANCH  14  15
ENDBRANCH  12  14
ENDBRANCH   1  12
BRANCH   1  17
ATOM     17  O   LIG    1       25.724 -21.431   5.367  0.00  0.00    -0.382 OA
ATOM     18  H   LIG    1       26.485 -21.907   5.767  0.00  0.00    +0.210 HD
ENDBRANCH   1  17
TORSDOF 9
ENDMDL
MODEL 2
REMARK VINA RESULT:      -6.2      1.390      2.108
REMARK  Name = *****
REMARK                            x       y       z     vdW  Elec       q    Type
REMARK                         _______ _______ _______ _____ _____    ______ ____
ROOT
ATOM      1  C   LIG    1       23.515 -22.784   6.805  0.00  0.00    +0.208 C 
ENDROOT
BRANCH   1   2
ATOM      2  C   LIG    1       24.492 -23.978   6.593  0.00  0.00    +0.242 C 
ATOM      3  N   LIG    1       24.049 -24.908   5.669  0.00  0.00    -0.313 N 
ATOM      4  H   LIG    1       23.306 -24.608   5.046  0.00  0.00    +0.149 HD
ATOM      5  O   LIG    1       25.536 -24.121   7.200  0.00  0.00    -0.273 OA
BRANCH   3   6
ATOM      6  C   LIG    1       24.850 -26.075   5.339  0.00  0.00    +0.106 C 
BRANCH   6   7
ATOM      7  C   LIG    1       24.371 -27.309   6.101  0.00  0.00    +0.046 C 
BRANCH   7   8
ATOM      8  C   LIG    1       24.439 -28.563   5.238  0.00  0.00    +0.157 C 
BRANCH   8   9
ATOM      9  O   LIG    1       23.262 -29.343   5.392  0.00  0.00    -0.395 OA
ATOM     10  H   LIG    1       23.297 -29.761   6.269  0.00  0.00    +0.209 HD
ENDBRANCH   8   9
ENDBRANCH   7   8
ENDBRANCH   6   7
ENDBRANCH   3   6
ENDBRANCH   1   2
BRANCH   1  12
ATOM     11  C   LIG    1       25.031 -20.805   7.407  0.00  0.00    +0.016 C 
ATOM     12  C   LIG    1       24.086 -21.402   6.341  0.00  0.00    +0.023 C 
ATOM     13  C   LIG    1       22.935 -20.379   6.157  0.00  0.00    +0.016 C 
BRANCH  12  14
ATOM     14  C   LIG    1       24.855 -21.536   5.008  0.00  0.00    +0.165 C 
BRANCH  14  15
ATOM     15  O   LIG    1       24.012 -22.054   3.981  0.00  0.00    -0.394 OA
ATOM     16  H   LIG    1       23.153 -22.247   4.400  0.00  0.00    +0.209 HD
ENDBRANCH  14  15
ENDBRANCH  12  14
ENDBRANCH   1  12
BRANCH   1  17
ATOM     17  O   LIG    1       22.267 -23.111   6.181  0.00  0.00    -0.382 OA
ATOM     18  H   LIG    1       22.165 -22.478   5.437  0.00  0.00    +0.210 HD
ENDBRANCH   1  17
TORSDOF 9
ENDMDL
MODEL 3
REMARK VINA RESULT:      -6.0      3.576      6.026
REMARK  Name = *****
REMARK                            x       y       z     vdW  Elec       q    Type
REMARK                         _______ _______ _______ _____ _____    ______ ____
ROOT
ATOM      1  C   LIG    1       25.227 -22.562   7.801  0.00  0.00    +0.208 C 
ENDROOT
BRANCH   1   2
ATOM      2  C   LIG    1       26.166 -21.399   8.234  0.00  0.00    +0.242 C 
ATOM      3  N   LIG    1       27.260 -21.223   7.404  0.00  0.00    -0.313 N 
ATOM      4  H   LIG    1       27.207 -21.659   6.489  0.00  0.00    +0.149 HD
ATOM      5  O   LIG    1       25.998 -20.719   9.228  0.00  0.00    -0.273 OA
BRANCH   3   6
ATOM      6  C   LIG    1       28.229 -20.169   7.655  0.00  0.00    +0.106 C 
BRANCH   6   7
ATOM      7  C   LIG    1       29.236 -20.059   6.514  0.00  0.00    +0.046 C 
BRANCH   7   8
ATOM      8  C   LIG    1       30.435 -19.203   6.906  0.00  0.00    +0.157 C 
BRANCH   8   9
ATOM      9  O   LIG    1       31.543 -20.021   7.253  0.00  0.00    -0.395 OA
ATOM     10  H   LIG    1       31.220 -20.933   7.347  0.00  0.00    +0.209 HD
ENDBRANCH   8   9
ENDBRANCH   7   8
ENDBRANCH   6   7
ENDBRANCH   3   6
ENDBRANCH   1   2
BRANCH   1  12
ATOM     11  C   LIG    1       23.506 -20.769   7.163  0.00  0.00    +0.016 C 
ATOM     12  C   LIG    1       24.113 -22.139   6.784  0.00  0.00    +0.023 C 
ATOM     13  C   LIG    1       22.944 -23.156   6.812  0.00  0.00    +0.016 C 
BRANCH  12  14
ATOM     14  C   LIG    1       24.674 -22.058   5.347  0.00  0.00    +0.165 C 
BRANCH  14  15
ATOM     15  O   LIG    1       24.817 -23.359   4.780  0.00  0.00    -0.394 OA
ATOM     16  H   LIG    1       25.753 -23.607   4.896  0.00  0.00    +0.209 HD
ENDBRANCH  14  15
ENDBRANCH  12  14
ENDBRANCH   1  12
BRANCH   1  17
ATOM     17  O   LIG    1       26.040 -23.640   7.322  0.00  0.00    -0.382 OA
ATOM     18  H   LIG    1       26.911 -23.536   7.765  0.00  0.00    +0.210 HD
ENDBRANCH   1  17
TORSDOF 9
ENDMDL
MODEL 4
REMARK VINA RESULT:      -6.0      3.221      5.585
REMARK  Name = *****
REMARK                            x       y       z     vdW  Elec       q    Type
REMARK                         _______ _______ _______ _____ _____    ______ ____
ROOT
ATOM      1  C   LIG    1       25.278 -22.759   7.599  0.00  0.00    +0.208 C 
ENDROOT
BRANCH   1   2
ATOM      2  C   LIG    1       26.111 -21.605   8.229  0.00  0.00    +0.242 C 
ATOM      3  N   LIG    1       27.211 -21.232   7.476  0.00  0.00    -0.313 N 
ATOM      4  H   LIG    1       27.218 -21.533   6.506  0.00  0.00    +0.149 HD
ATOM      5  O   LIG    1       25.862 -21.090   9.302  0.00  0.00    -0.273 OA
BRANCH   3   6
ATOM      6  C   LIG    1       28.087 -20.158   7.912  0.00  0.00    +0.106 C 
BRANCH   6   7
ATOM      7  C   LIG    1       29.253 -19.966   6.945  0.00  0.00    +0.046 C 
BRANCH   7   8
ATOM      8  C   LIG    1       28.832 -19.179   5.709  0.00  0.00    +0.157 C 
BRANCH   8   9
ATOM      9  O   LIG    1       27.869 -19.904   4.957  0.00  0.00    -0.395 OA
ATOM     10  H   LIG    1       27.390 -20.486   5.572  0.00  0.00    +0.209 HD
ENDBRANCH   8   9
ENDBRANCH   7   8
ENDBRANCH   6   7
ENDBRANCH   3   6
ENDBRANCH   1   2
BRANCH   1  12
ATOM     11  C   LIG    1       23.633 -20.855   7.093  0.00  0.00    +0.016 C 
ATOM     12  C   LIG    1       24.100 -22.272   6.689  0.00  0.00    +0.023 C 
ATOM     13  C   LIG    1       22.870 -23.201   6.858  0.00  0.00    +0.016 C 
BRANCH  12  14
ATOM     14  C   LIG    1       24.515 -22.256   5.202  0.00  0.00    +0.165 C 
BRANCH  14  15
ATOM     15  O   LIG    1       25.546 -21.298   4.968  0.00  0.00    -0.394 OA
ATOM     16  H   LIG    1       25.501 -21.072   4.021  0.00  0.00    +0.209 HD
ENDBRANCH  14  15
ENDBRANCH  12  14
ENDBRANCH   1  12
BRANCH   1  17
ATOM     17  O   LIG    1       26.178 -23.644   6.920  0.00  0.00    -0.382 OA
ATOM     18  H   LIG    1       27.043 -23.178   6.895  0.00  0.00    +0.210 HD
ENDBRANCH   1  17
TORSDOF 9
ENDMDL
MODEL 5
REMARK VINA RESULT:      -5.8      4.603      6.753
REMARK  Name = *****
REMARK                            x       y       z     vdW  Elec       q    Type
REMARK                         _______ _______ _______ _____ _____    ______ ____
ROOT
ATOM      1  C   LIG    1       26.368 -20.355   7.977  0.00  0.00    +0.208 C 
ENDROOT
BRANCH   1   2
ATOM      2  C   LIG    1       27.897 -20.638   7.903  0.00  0.00    +0.242 C 
ATOM      3  N   LIG    1       28.601 -19.719   7.146  0.00  0.00    -0.313 N 
ATOM      4  H   LIG    1       28.132 -18.840   6.950  0.00  0.00    +0.149 HD
ATOM      5  O   LIG    1       28.439 -21.596   8.422  0.00  0.00    -0.273 OA
BRANCH   3   6
ATOM      6  C   LIG    1       30.042 -19.826   6.988  0.00  0.00    +0.106 C 
BRANCH   6   7
ATOM      7  C   LIG    1       30.762 -18.656   7.654  0.00  0.00    +0.046 C 
BRANCH   7   8
ATOM      8  C   LIG    1       31.459 -19.084   8.940  0.00  0.00    +0.157 C 
BRANCH   8   9
ATOM      9  O   LIG    1       30.929 -20.316   9.411  0.00  0.00    -0.395 OA
ATOM     10  H   LIG    1       31.498 -21.030   9.076  0.00  0.00    +0.209 HD
ENDBRANCH   8   9
ENDBRANCH   7   8
ENDBRANCH   6   7
ENDBRANCH   3   6
ENDBRANCH   1   2
BRANCH   1  12
ATOM     11  C   LIG    1       25.733 -20.334   5.492  0.00  0.00    +0.016 C 
ATOM     12  C   LIG    1       25.534 -21.048   6.847  0.00  0.00    +0.023 C 
ATOM     13  C   LIG    1       24.020 -20.964   7.167  0.00  0.00    +0.016 C 
BRANCH  12  14
ATOM     14  C   LIG    1       25.932 -22.533   6.694  0.00  0.00    +0.165 C 
BRANCH  14  15
ATOM     15  O   LIG    1       25.801 -23.229   7.932  0.00  0.00    -0.394 OA
ATOM     16  H   LIG    1       26.702 -23.326   8.290  0.00  0.00    +0.209 HD
ENDBRANCH  14  15
ENDBRANCH  12  14
ENDBRANCH   1  12
BRANCH   1  17
ATOM     17  O   LIG    1       25.913 -20.692   9.294  0.00  0.00    -0.382 OA
ATOM     18  H   LIG    1       25.122 -21.261   9.166  0.00  0.00    +0.210 HD
ENDBRANCH   1  17
TORSDOF 9
ENDMDL
MODEL 6
REMARK VINA RESULT:      -5.8      3.404      5.822
REMARK  Name = *****
REMARK                            x       y       z     vdW  Elec       q    Type
REMARK                         _______ _______ _______ _____ _____    ______ ____
ROOT
ATOM      1  C   LIG    1       24.750 -22.088   5.545  0.00  0.00    +0.208 C 
ENDROOT
BRANCH   1   2
ATOM      2  C   LIG    1       25.727 -20.889   5.367  0.00  0.00    +0.242 C 
ATOM      3  N   LIG    1       26.896 -21.005   6.098  0.00  0.00    -0.313 N 
ATOM      4  H   LIG    1       27.122 -21.931   6.446  0.00  0.00    +0.149 HD
ATOM      5  O   LIG    1       25.490 -19.911   4.684  0.00  0.00    -0.273 OA
BRANCH   3   6
ATOM      6  C   LIG    1       27.924 -19.980   6.033  0.00  0.00    +0.106 C 
BRANCH   6   7
ATOM      7  C   LIG    1       29.135 -20.354   6.885  0.00  0.00    +0.046 C 
BRANCH   7   8
ATOM      8  C   LIG    1       30.289 -19.379   6.678  0.00  0.00    +0.157 C 
BRANCH   8   9
ATOM      9  O   LIG    1       31.514 -19.953   7.112  0.00  0.00    -0.395 OA
ATOM     10  H   LIG    1       32.037 -20.166   6.320  0.00  0.00    +0.209 HD
ENDBRANCH   8   9
ENDBRANCH   7   8
ENDBRANCH   6   7
ENDBRANCH   3   6
ENDBRANCH   1   2
BRANCH   1  12
ATOM     11  C   LIG    1       22.437 -21.008   5.295  0.00  0.00    +0.016 C 
ATOM     12  C   LIG    1       23.409 -21.718   6.263  0.00  0.00    +0.023 C 
ATOM     13  C   LIG    1       23.676 -20.722   7.421  0.00  0.00    +0.016 C 
BRANCH  12  14
ATOM     14  C   LIG    1       22.718 -22.976   6.833  0.00  0.00    +0.165 C 
BRANCH  14  15
ATOM     15  O   LIG    1       23.260 -24.163   6.258  0.00  0.00    -0.394 OA
ATOM     16  H   LIG    1       22.813 -24.911   6.696  0.00  0.00    +0.209 HD
ENDBRANCH  14  15
ENDBRANCH  12  14
ENDBRANCH   1  12
BRANCH   1  17
ATOM     17  O   LIG    1       24.548 -22.696   4.262  0.00  0.00    -0.382 OA
ATOM     18  H   LIG    1       25.062 -23.533   4.279  0.00  0.00    +0.210 HD
ENDBRANCH   1  17
TORSDOF 9
ENDMDL
MODEL 7
REMARK VINA RESULT:      -5.7      7.103      8.661
REMARK  Name = *****
REMARK                            x       y       z     vdW  Elec       q    Type
REMARK                         _______ _______ _______ _____ _____    ______ ____
ROOT
ATOM      1  C   LIG    1       31.761 -18.878   8.687  0.00  0.00    +0.208 C 
ENDROOT
BRANCH   1   2
ATOM      2  C   LIG    1       30.704 -19.228   7.598  0.00  0.00    +0.242 C 
ATOM      3  N   LIG    1       29.887 -20.294   7.932  0.00  0.00    -0.313 N 
ATOM      4  H   LIG    1       29.866 -20.558   8.912  0.00  0.00    +0.149 HD
ATOM      5  O   LIG    1       30.611 -18.657   6.528  0.00  0.00    -0.273 OA
BRANCH   3   6
ATOM      6  C   LIG    1       28.835 -20.740   7.034  0.00  0.00    +0.106 C 
BRANCH   6   7
ATOM      7  C   LIG    1       27.467 -20.232   7.486  0.00  0.00    +0.046 C 
BRANCH   7   8
ATOM      8  C   LIG    1       26.735 -21.270   8.329  0.00  0.00    +0.157 C 
BRANCH   8   9
ATOM      9  O   LIG    1       25.964 -20.640   9.342  0.00  0.00    -0.395 OA
ATOM     10  H   LIG    1       25.194 -21.205   9.522  0.00  0.00    +0.209 HD
ENDBRANCH   8   9
ENDBRANCH   7   8
ENDBRANCH   6   7
ENDBRANCH   3   6
ENDBRANCH   1   2
BRANCH   1  12
ATOM     11  C   LIG    1       30.821 -18.222  10.982  0.00  0.00    +0.016 C 
ATOM     12  C   LIG    1       31.343 -17.697   9.626  0.00  0.00    +0.023 C 
ATOM     13  C   LIG    1       30.180 -16.892   8.992  0.00  0.00    +0.016 C 
BRANCH  12  14
ATOM     14  C   LIG    1       32.531 -16.744   9.883  0.00  0.00    +0.165 C 
BRANCH  14  15
ATOM     15  O   LIG    1       32.758 -15.894   8.759  0.00  0.00    -0.394 OA
ATOM     16  H   LIG    1       33.123 -15.062   9.113  0.00  0.00    +0.209 HD
ENDBRANCH  14  15
ENDBRANCH  12  14
ENDBRANCH   1  12
BRANCH   1  17
ATOM     17  O   LIG    1       32.078 -20.078   9.405  0.00  0.00    -0.382 OA
ATOM     18  H   LIG    1       33.013 -20.283   9.184  0.00  0.00    +0.210 HD
ENDBRANCH   1  17
TORSDOF 9
ENDMDL
MODEL 8
REMARK VINA RESULT:      -5.7      3.668      5.897
REMARK  Name = *****
REMARK                            x       y       z     vdW  Elec       q    Type
REMARK                         _______ _______ _______ _____ _____    ______ ____
ROOT
ATOM      1  C   LIG    1       24.563 -20.982   7.191  0.00  0.00    +0.208 C 
ENDROOT
BRANCH   1   2
ATOM      2  C   LIG    1       25.818 -20.661   8.054  0.00  0.00    +0.242 C 
ATOM      3  N   LIG    1       26.937 -20.323   7.313  0.00  0.00    -0.313 N 
ATOM      4  H   LIG    1       26.776 -20.061   6.346  0.00  0.00    +0.149 HD
ATOM      5  O   LIG    1       25.848 -20.731   9.269  0.00  0.00    -0.273 OA
BRANCH   3   6
ATOM      6  C   LIG    1       28.190 -19.978   7.964  0.00  0.00    +0.106 C 
BRANCH   6   7
ATOM      7  C   LIG    1       29.272 -21.014   7.670  0.00  0.00    +0.046 C 
BRANCH   7   8
ATOM      8  C   LIG    1       30.658 -20.496   8.034  0.00  0.00    +0.157 C 
BRANCH   8   9
ATOM      9  O   LIG    1       31.517 -21.569   8.392  0.00  0.00    -0.395 OA
ATOM     10  H   LIG    1       30.961 -22.347   8.569  0.00  0.00    +0.209 HD
ENDBRANCH   8   9
ENDBRANCH   7   8
ENDBRANCH   6   7
ENDBRANCH   3   6
ENDBRANCH   1   2
BRANCH   1  12
ATOM     11  C   LIG    1       23.173 -23.119   6.903  0.00  0.00    +0.016 C 
ATOM     12  C   LIG    1       24.534 -22.442   6.626  0.00  0.00    +0.023 C 
ATOM     13  C   LIG    1       25.606 -23.313   7.329  0.00  0.00    +0.016 C 
BRANCH  12  14
ATOM     14  C   LIG    1       24.798 -22.454   5.104  0.00  0.00    +0.165 C 
BRANCH  14  15
ATOM     15  O   LIG    1       25.444 -21.253   4.687  0.00  0.00    -0.394 OA
ATOM     16  H   LIG    1       25.968 -21.482   3.897  0.00  0.00    +0.209 HD
ENDBRANCH  14  15
ENDBRANCH  12  14
ENDBRANCH   1  12
BRANCH   1  17
ATOM     17  O   LIG    1       23.397 -20.657   7.958  0.00  0.00    -0.382 OA
ATOM     18  H   LIG    1       23.214 -21.446   8.515  0.00  0.00    +0.210 HD
ENDBRANCH   1  17
TORSDOF 9
ENDMDL
MODEL 9
REMARK VINA RESULT:      -5.7      4.221      5.508
REMARK  Name = *****
REMARK                            x       y       z     vdW  Elec       q    Type
REMARK                         _______ _______ _______ _____ _____    ______ ____
ROOT
ATOM      1  C   LIG    1       28.075 -19.837   6.717  0.00  0.00    +0.208 C 
ENDROOT
BRANCH   1   2
ATOM      2  C   LIG    1       27.096 -20.747   7.515  0.00  0.00    +0.242 C 
ATOM      3  N   LIG    1       26.750 -21.912   6.855  0.00  0.00    -0.313 N 
ATOM      4  H   LIG    1       27.344 -22.187   6.080  0.00  0.00    +0.149 HD
ATOM      5  O   LIG    1       26.634 -20.462   8.604  0.00  0.00    -0.273 OA
BRANCH   3   6
ATOM      6  C   LIG    1       25.857 -22.883   7.468  0.00  0.00    +0.106 C 
BRANCH   6   7
ATOM      7  C   LIG    1       25.932 -24.232   6.756  0.00  0.00    +0.046 C 
BRANCH   7   8
ATOM      8  C   LIG    1       24.877 -24.347   5.663  0.00  0.00    +0.157 C 
BRANCH   8   9
ATOM      9  O   LIG    1       24.845 -23.169   4.870  0.00  0.00    -0.395 OA
ATOM     10  H   LIG    1       23.955 -23.096   4.484  0.00  0.00    +0.209 HD
ENDBRANCH   8   9
ENDBRANCH   7   8
ENDBRANCH   6   7
ENDBRANCH   3   6
ENDBRANCH   1   2
BRANCH   1  12
ATOM     11  C   LIG    1       29.956 -21.059   7.962  0.00  0.00    +0.016 C 
ATOM     12  C   LIG    1       29.498 -19.712   7.358  0.00  0.00    +0.023 C 
ATOM     13  C   LIG    1       29.474 -18.696   8.528  0.00  0.00    +0.016 C 
BRANCH  12  14
ATOM     14  C   LIG    1       30.540 -19.252   6.315  0.00  0.00    +0.165 C 
BRANCH  14  15
ATOM     15  O   LIG    1       30.021 -18.200   5.503  0.00  0.00    -0.394 OA
ATOM     16  H   LIG    1       30.783 -17.648   5.248  0.00  0.00    +0.209 HD
ENDBRANCH  14  15
ENDBRANCH  12  14
ENDBRANCH   1  12
BRANCH   1  17
ATOM     17  O   LIG    1       28.112 -20.300   5.361  0.00  0.00    -0.382 OA
ATOM     18  H   LIG    1       29.041 -20.183   5.063  0.00  0.00    +0.210 HD
ENDBRANCH   1  17
TORSDOF 9
ENDMDL
