MODEL 1
REMARK VINA RESULT:      19.4      0.000      0.000
REMARK  Name = *****
REMARK                            x       y       z     vdW  Elec       q    Type
REMARK                         _______ _______ _______ _____ _____    ______ ____
ROOT
ATOM      1  C   LIG    1       26.432 -17.589   3.190  0.00  0.00    +0.080 C 
ENDROOT
BRANCH   1   3
ATOM      2  C   LIG    1       26.500 -15.187   3.809  0.00  0.00    +0.234 C 
ATOM      3  N   LIG    1       26.063 -16.182   2.959  0.00  0.00    -0.310 N 
ATOM      4  H   LIG    1       25.379 -15.978   2.239  0.00  0.00    +0.149 HD
ATOM      5  O   LIG    1       27.272 -15.396   4.746  0.00  0.00    -0.274 OA
BRANCH   2   6
ATOM      6  C   LIG    1       26.019 -13.767   3.475  0.00  0.00    +0.163 C 
BRANCH   6   9
ATOM      7  N   LIG    1       28.147 -12.584   5.695  0.00  0.00    -0.283 N 
ATOM      8  C   LIG    1       28.235 -12.482   4.325  0.00  0.00    +0.303 C 
ATOM      9  N   LIG    1       27.283 -12.921   3.460  0.00  0.00    -0.288 N 
ATOM     10  H   LIG    1       27.809 -13.076   2.595  0.00  0.00    +0.151 HD
ATOM     11  O   LIG    1       29.274 -12.044   3.811  0.00  0.00    -0.253 OA
ATOM     12  C   LIG    1       29.463 -12.819   6.302  0.00  0.00    +0.134 C 
BRANCH   7  13
ATOM     13  C   LIG    1       26.992 -13.087   6.444  0.00  0.00    +0.165 C 
BRANCH  13  17
ATOM     14  C   LIG    1       23.931 -12.096   4.877  0.00  0.00    +0.081 A 
ATOM     15  S   LIG    1       23.365 -11.453   6.365  0.00  0.00    -0.080 S 
ATOM     16  C   LIG    1       24.963 -11.552   6.988  0.00  0.00    +0.071 A 
ATOM     17  C   LIG    1       25.746 -12.304   6.131  0.00  0.00    +0.066 A 
ATOM     18  N   LIG    1       25.191 -12.476   4.865  0.00  0.00    -0.247 NA
BRANCH  14  20
ATOM     19  C   LIG    1       23.790 -11.467   2.533  0.00  0.00    +0.014 C 
ATOM     20  C   LIG    1       23.023 -12.109   3.688  0.00  0.00    +0.038 C 
ATOM     21  C   LIG    1       22.525 -13.521   3.381  0.00  0.00    +0.014 C 
ENDBRANCH  14  20
ENDBRANCH  13  17
ENDBRANCH   7  13
ENDBRANCH   6   9
BRANCH   6  22
ATOM     22  C   LIG    1       25.187 -13.790   2.112  0.00  0.00    +0.012 C 
ATOM     23  C   LIG    1       24.128 -12.671   1.820  0.00  0.00    +0.009 C 
ATOM     24  C   LIG    1       24.372 -15.077   1.903  0.00  0.00    +0.009 C 
ENDBRANCH   6  22
ENDBRANCH   2   6
ENDBRANCH   1   3
BRANCH   1  25
ATOM     25  C   LIG    1       25.230 -18.370   3.776  0.00  0.00    +0.056 C 
BRANCH  25  26
ATOM     26  C   LIG    1       24.608 -19.539   2.982  0.00  0.00    +0.137 C 
BRANCH  26  27
ATOM     27  O   LIG    1       25.128 -20.751   3.545  0.00  0.00    -0.390 OA
ATOM     28  H   LIG    1       24.518 -21.040   4.247  0.00  0.00    +0.210 HD
ENDBRANCH  26  27
BRANCH  26  29
ATOM     29  C   LIG    1       23.055 -19.687   2.770  0.00  0.00    +0.109 C 
BRANCH  29  30
ATOM     30  N   LIG    1       22.487 -20.687   3.696  0.00  0.00    -0.276 N 
ATOM     31  H   LIG    1       23.099 -21.138   4.295  0.00  0.00    +0.152 HD
ATOM     32  C   LIG    1       21.304 -20.857   4.269  0.00  0.00    +0.401 C 
ATOM     33  O   LIG    1       20.176 -20.517   3.786  0.00  0.00    -0.227 OA
BRANCH  32  34
ATOM     34  O   LIG    1       21.446 -21.374   5.492  0.00  0.00    -0.445 OA
BRANCH  34  35
ATOM     35  C   LIG    1       22.015 -20.564   6.542  0.00  0.00    +0.278 C 
BRANCH  35  36
ATOM     36  C   LIG    1       23.511 -20.618   6.406  0.00  0.00    +0.046 A 
ATOM     37  S   LIG    1       24.522 -19.356   6.994  0.00  0.00    -0.077 S 
ATOM     38  C   LIG    1       25.905 -20.299   6.614  0.00  0.00    +0.156 A 
ATOM     39  N   LIG    1       25.675 -21.392   5.926  0.00  0.00    -0.255 NA
ATOM     40  C   LIG    1       24.309 -21.556   5.782  0.00  0.00    +0.125 A 
ENDBRANCH  35  36
ENDBRANCH  34  35
ENDBRANCH  32  34
ENDBRANCH  29  30
BRANCH  29  41
ATOM     41  C   LIG    1       22.310 -18.272   2.732  0.00  0.00    +0.060 C 
BRANCH  41  42
ATOM     42  C   LIG    1       22.365 -17.391   3.984  0.00  0.00    -0.045 A 
ATOM     43  C   LIG    1       21.219 -17.156   4.743  0.00  0.00    +0.003 A 
ATOM     44  C   LIG    1       21.121 -16.142   5.693  0.00  0.00    +0.000 A 
ATOM     45  C   LIG    1       22.217 -15.349   5.962  0.00  0.00    +0.000 A 
ATOM     46  C   LIG    1       23.416 -15.616   5.306  0.00  0.00    +0.000 A 
ATOM     47  C   LIG    1       23.492 -16.620   4.316  0.00  0.00    +0.003 A 
ENDBRANCH  41  42
ENDBRANCH  29  41
ENDBRANCH  26  29
ENDBRANCH  25  26
ENDBRANCH   1  25
BRANCH   1  48
ATOM     48  C   LIG    1       27.882 -17.652   3.731  0.00  0.00    +0.057 C 
BRANCH  48  49
ATOM     49  C   LIG    1       28.378 -18.537   4.873  0.00  0.00    -0.046 A 
ATOM     50  C   LIG    1       29.094 -18.126   6.005  0.00  0.00    +0.003 A 
ATOM     51  C   LIG    1       29.473 -18.963   7.045  0.00  0.00    +0.000 A 
ATOM     52  C   LIG    1       29.140 -20.295   6.980  0.00  0.00    +0.000 A 
ATOM     53  C   LIG    1       28.395 -20.751   5.897  0.00  0.00    +0.000 A 
ATOM     54  C   LIG    1       27.987 -19.877   4.882  0.00  0.00    +0.003 A 
ENDBRANCH  48  49
ENDBRANCH   1  48
TORSDOF 19
ENDMDL
