MODEL 1
REMARK VINA RESULT:       8.3      0.000      0.000
REMARK  Name = *****
REMARK                            x       y       z     vdW  Elec       q    Type
REMARK                         _______ _______ _______ _____ _____    ______ ____
ROOT
ATOM      1  C   LIG    1       24.281 -13.805   3.674  0.00  0.00    +0.065 C 
ATOM      2  C   LIG    1       24.086 -15.324   3.644  0.00  0.00    +0.096 C 
ATOM      3  C   LIG    1       23.021 -15.819   4.641  0.00  0.00    +0.065 C 
ATOM      4  C   LIG    1       22.502 -14.990   5.570  0.00  0.00    +0.016 C 
ATOM      5  C   LIG    1       21.426 -15.359   6.562  0.00  0.00    +0.061 C 
ATOM      6  N   LIG    1       22.936 -13.672   5.623  0.00  0.00    -0.321 N 
ATOM      7  H   LIG    1       22.487 -13.065   6.306  0.00  0.00    +0.152 HD
ATOM      8  C   LIG    1       23.725 -13.061   4.660  0.00  0.00    +0.016 C 
ATOM      9  C   LIG    1       23.854 -11.565   4.791  0.00  0.00    +0.061 C 
ENDROOT
BRANCH   2  10
ATOM     10  C   LIG    1       25.446 -16.040   3.787  0.00  0.00    -0.029 A 
ATOM     11  C   LIG    1       25.620 -17.390   3.439  0.00  0.00    +0.088 A 
ATOM     12  C   LIG    1       26.877 -17.988   3.616  0.00  0.00    +0.273 A 
ATOM     13  C   LIG    1       27.974 -17.286   4.122  0.00  0.00    +0.084 A 
ATOM     14  C   LIG    1       27.805 -15.951   4.473  0.00  0.00    +0.007 A 
ATOM     15  C   LIG    1       26.555 -15.340   4.316  0.00  0.00    +0.005 A 
BRANCH  12  16
ATOM     16  N   LIG    1       27.063 -19.387   3.282  0.00  0.00    +0.080 N 
ATOM     17  O   LIG    1       26.346 -19.854   2.388  0.00  0.00    -0.576 OA
ATOM     18  O   LIG    1       27.908 -20.015   3.933  0.00  0.00    +0.041 OA
ENDBRANCH  12  16
ENDBRANCH   2  10
BRANCH   1  19
ATOM     19  C   LIG    1       25.049 -13.200   2.547  0.00  0.00    +0.337 C 
ATOM     20  O   LIG    1       24.679 -12.259   1.860  0.00  0.00    -0.245 OA
BRANCH  19  22
ATOM     21  C   LIG    1       27.411 -13.227   2.180  0.00  0.00    +0.280 C 
ATOM     22  O   LIG    1       26.178 -13.928   2.354  0.00  0.00    -0.465 OA
ENDBRANCH  19  22
ENDBRANCH   1  19
BRANCH   3  23
ATOM     23  C   LIG    1       22.633 -17.246   4.439  0.00  0.00    +0.338 C 
ATOM     24  O   LIG    1       21.553 -17.548   3.990  0.00  0.00    -0.245 OA
BRANCH  23  25
ATOM     25  O   LIG    1       23.611 -18.133   4.743  0.00  0.00    -0.457 OA
BRANCH  25  26
ATOM     26  C   LIG    1       23.372 -19.483   4.290  0.00  0.00    +0.191 C 
ATOM     27  C   LIG    1       24.525 -20.408   4.745  0.00  0.00    +0.129 C 
ATOM     28  N   LIG    1       24.540 -20.688   6.193  0.00  0.00    -0.295 NA
ATOM     29  C   LIG    1       23.246 -21.222   6.661  0.00  0.00    +0.085 C 
ATOM     30  C   LIG    1       22.075 -20.307   6.283  0.00  0.00    +0.019 C 
ATOM     31  C   LIG    1       22.040 -20.034   4.785  0.00  0.00    +0.047 C 
BRANCH  28  32
ATOM     32  C   LIG    1       25.660 -21.561   6.608  0.00  0.00    +0.119 C 
BRANCH  32  33
ATOM     33  C   LIG    1       27.007 -20.864   6.756  0.00  0.00    -0.033 A 
ATOM     34  C   LIG    1       28.222 -21.572   6.703  0.00  0.00    +0.005 A 
ATOM     35  C   LIG    1       29.446 -20.907   6.851  0.00  0.00    +0.000 A 
ATOM     36  C   LIG    1       29.474 -19.527   7.037  0.00  0.00    +0.000 A 
ATOM     37  C   LIG    1       28.280 -18.810   7.062  0.00  0.00    +0.000 A 
ATOM     38  C   LIG    1       27.056 -19.472   6.921  0.00  0.00    +0.005 A 
ENDBRANCH  32  33
ENDBRANCH  28  32
ENDBRANCH  25  26
ENDBRANCH  23  25
ENDBRANCH   3  23
TORSDOF 9
ENDMDL
