MODEL 1
REMARK VINA RESULT:      -8.7      0.000      0.000
REMARK  Name = *****
REMARK                            x       y       z     vdW  Elec       q    Type
REMARK                         _______ _______ _______ _____ _____    ______ ____
ROOT
ATOM      1  C   LIG    1       24.738 -23.032   5.858  0.00  0.00    +0.046 C 
ATOM      2  C   LIG    1       23.259 -22.795   6.339  0.00  0.00    +0.124 C 
ATOM      3  C   LIG    1       23.321 -21.841   7.530  0.00  0.00    +0.063 C 
ATOM      4  C   LIG    1       24.804 -21.728   7.848  0.00  0.00    +0.121 C 
ATOM      5  C   LIG    1       25.524 -21.855   6.489  0.00  0.00    +0.031 C 
ENDROOT
BRANCH   4   6
ATOM      6  O   LIG    1       25.080 -20.516   8.521  0.00  0.00    -0.391 OA
ATOM      7  H   LIG    1       24.311 -19.934   8.390  0.00  0.00    +0.210 HD
ENDBRANCH   4   6
BRANCH   2   8
ATOM      8  O   LIG    1       22.570 -23.993   6.684  0.00  0.00    -0.391 OA
ATOM      9  H   LIG    1       22.710 -24.165   7.631  0.00  0.00    +0.210 HD
ENDBRANCH   2   8
BRANCH   1  11
ATOM     10  C   LIG    1       25.395 -25.520   5.472  0.00  0.00    +0.003 C 
ATOM     11  C   LIG    1       25.277 -24.416   6.238  0.00  0.00    -0.022 C 
BRANCH  10  12
ATOM     12  C   LIG    1       25.993 -26.877   5.812  0.00  0.00    +0.081 C 
ATOM     13  C   LIG    1       25.261 -27.945   4.949  0.00  0.00    +0.046 C 
BRANCH  12  14
ATOM     14  O   LIG    1       27.356 -26.855   5.377  0.00  0.00    -0.385 OA
ATOM     15  H   LIG    1       27.385 -27.186   4.462  0.00  0.00    +0.211 HD
ENDBRANCH  12  14
BRANCH  12  16
ATOM     16  C   LIG    1       26.001 -27.326   7.308  0.00  0.00    +0.039 C 
BRANCH  16  17
ATOM     17  C   LIG    1       25.353 -28.698   7.620  0.00  0.00    +0.003 C 
BRANCH  17  18
ATOM     18  C   LIG    1       25.683 -29.252   9.015  0.00  0.00    -0.000 C 
BRANCH  18  20
ATOM     19  C   LIG    1       26.565 -28.267  11.276  0.00  0.00    +0.004 C 
ATOM     20  C   LIG    1       26.781 -28.484   9.781  0.00  0.00    -0.003 C 
ENDBRANCH  18  20
ENDBRANCH  17  18
ENDBRANCH  16  17
ENDBRANCH  12  16
ENDBRANCH  10  12
ENDBRANCH   1  11
BRANCH   5  21
ATOM     21  C   LIG    1       25.573 -20.537   5.688  0.00  0.00    +0.033 C 
BRANCH  21  22
ATOM     22  C   LIG    1       26.927 -20.082   5.201  0.00  0.00    -0.031 C 
ATOM     23  C   LIG    1       28.057 -19.770   5.866  0.00  0.00    -0.031 C 
BRANCH  23  24
ATOM     24  C   LIG    1       28.454 -19.961   7.305  0.00  0.00    +0.027 C 
BRANCH  24  25
ATOM     25  C   LIG    1       29.280 -21.214   7.625  0.00  0.00    +0.015 C 
BRANCH  25  26
ATOM     26  C   LIG    1       30.587 -20.826   8.333  0.00  0.00    +0.121 C 
BRANCH  26  27
ATOM     27  C   LIG    1       31.146 -21.923   9.171  0.00  0.00    +0.305 C 
ATOM     28  O   LIG    1       30.743 -22.277  10.306  0.00  0.00    -0.251 OA
BRANCH  27  29
ATOM     29  O   LIG    1       32.203 -22.524   8.598  0.00  0.00    -0.481 OA
ATOM     30  H   LIG    1       32.546 -23.137   9.287  0.00  0.00    +0.295 HD
ENDBRANCH  27  29
ENDBRANCH  26  27
ENDBRANCH  25  26
ENDBRANCH  24  25
ENDBRANCH  23  24
ENDBRANCH  21  22
ENDBRANCH   5  21
TORSDOF 16
ENDMDL
MODEL 2
REMARK VINA RESULT:      -8.4      1.279      1.422
REMARK  Name = *****
REMARK                            x       y       z     vdW  Elec       q    Type
REMARK                         _______ _______ _______ _____ _____    ______ ____
ROOT
ATOM      1  C   LIG    1       24.878 -23.046   5.857  0.00  0.00    +0.046 C 
ATOM      2  C   LIG    1       23.391 -22.775   6.293  0.00  0.00    +0.124 C 
ATOM      3  C   LIG    1       23.440 -21.837   7.497  0.00  0.00    +0.063 C 
ATOM      4  C   LIG    1       24.915 -21.767   7.863  0.00  0.00    +0.121 C 
ATOM      5  C   LIG    1       25.674 -21.899   6.526  0.00  0.00    +0.031 C 
ENDROOT
BRANCH   4   6
ATOM      6  O   LIG    1       25.201 -20.571   8.559  0.00  0.00    -0.391 OA
ATOM      7  H   LIG    1       26.144 -20.377   8.421  0.00  0.00    +0.210 HD
ENDBRANCH   4   6
BRANCH   2   8
ATOM      8  O   LIG    1       22.660 -23.958   6.601  0.00  0.00    -0.391 OA
ATOM      9  H   LIG    1       22.382 -24.373   5.766  0.00  0.00    +0.210 HD
ENDBRANCH   2   8
BRANCH   1  11
ATOM     10  C   LIG    1       25.428 -25.561   5.476  0.00  0.00    +0.003 C 
ATOM     11  C   LIG    1       25.368 -24.449   6.237  0.00  0.00    -0.022 C 
BRANCH  10  12
ATOM     12  C   LIG    1       25.977 -26.939   5.815  0.00  0.00    +0.081 C 
ATOM     13  C   LIG    1       25.146 -27.987   5.020  0.00  0.00    +0.046 C 
BRANCH  12  14
ATOM     14  O   LIG    1       27.313 -26.995   5.305  0.00  0.00    -0.385 OA
ATOM     15  H   LIG    1       27.861 -27.476   5.949  0.00  0.00    +0.211 HD
ENDBRANCH  12  14
BRANCH  12  16
ATOM     16  C   LIG    1       26.048 -27.356   7.319  0.00  0.00    +0.039 C 
BRANCH  16  17
ATOM     17  C   LIG    1       25.315 -28.665   7.707  0.00  0.00    +0.003 C 
BRANCH  17  18
ATOM     18  C   LIG    1       25.899 -29.377   8.937  0.00  0.00    -0.000 C 
BRANCH  18  20
ATOM     19  C   LIG    1       26.278 -28.358  11.320  0.00  0.00    +0.004 C 
ATOM     20  C   LIG    1       26.742 -28.483   9.872  0.00  0.00    -0.003 C 
ENDBRANCH  18  20
ENDBRANCH  17  18
ENDBRANCH  16  17
ENDBRANCH  12  16
ENDBRANCH  10  12
ENDBRANCH   1  11
BRANCH   5  21
ATOM     21  C   LIG    1       25.783 -20.573   5.743  0.00  0.00    +0.033 C 
BRANCH  21  22
ATOM     22  C   LIG    1       27.169 -20.010   5.540  0.00  0.00    -0.031 C 
ATOM     23  C   LIG    1       28.303 -20.150   6.254  0.00  0.00    -0.031 C 
BRANCH  23  24
ATOM     24  C   LIG    1       28.664 -21.076   7.383  0.00  0.00    +0.027 C 
BRANCH  24  25
ATOM     25  C   LIG    1       30.015 -20.827   8.066  0.00  0.00    +0.015 C 
BRANCH  25  26
ATOM     26  C   LIG    1       30.789 -19.719   7.333  0.00  0.00    +0.121 C 
BRANCH  26  27
ATOM     27  C   LIG    1       31.591 -18.862   8.249  0.00  0.00    +0.305 C 
ATOM     28  O   LIG    1       31.804 -17.631   8.126  0.00  0.00    -0.251 OA
BRANCH  27  29
ATOM     29  O   LIG    1       32.131 -19.555   9.266  0.00  0.00    -0.481 OA
ATOM     30  H   LIG    1       31.743 -19.154  10.076  0.00  0.00    +0.295 HD
ENDBRANCH  27  29
ENDBRANCH  26  27
ENDBRANCH  25  26
ENDBRANCH  24  25
ENDBRANCH  23  24
ENDBRANCH  21  22
ENDBRANCH   5  21
TORSDOF 16
ENDMDL
MODEL 3
REMARK VINA RESULT:      -8.1      1.861      2.273
REMARK  Name = *****
REMARK                            x       y       z     vdW  Elec       q    Type
REMARK                         _______ _______ _______ _____ _____    ______ ____
ROOT
ATOM      1  C   LIG    1       24.877 -22.606   5.702  0.00  0.00    +0.046 C 
ATOM      2  C   LIG    1       23.470 -22.184   6.266  0.00  0.00    +0.124 C 
ATOM      3  C   LIG    1       23.678 -21.758   7.719  0.00  0.00    +0.063 C 
ATOM      4  C   LIG    1       25.117 -22.146   8.025  0.00  0.00    +0.121 C 
ATOM      5  C   LIG    1       25.880 -21.968   6.695  0.00  0.00    +0.031 C 
ENDROOT
BRANCH   4   6
ATOM      6  O   LIG    1       25.631 -21.360   9.081  0.00  0.00    -0.391 OA
ATOM      7  H   LIG    1       25.795 -20.470   8.723  0.00  0.00    +0.210 HD
ENDBRANCH   4   6
BRANCH   2   8
ATOM      8  O   LIG    1       22.485 -23.209   6.174  0.00  0.00    -0.391 OA
ATOM      9  H   LIG    1       21.709 -22.847   5.712  0.00  0.00    +0.210 HD
ENDBRANCH   2   8
BRANCH   1  11
ATOM     10  C   LIG    1       25.587 -25.009   6.404  0.00  0.00    +0.003 C 
ATOM     11  C   LIG    1       25.031 -24.124   5.551  0.00  0.00    -0.022 C 
BRANCH  10  12
ATOM     12  C   LIG    1       25.684 -26.524   6.302  0.00  0.00    +0.081 C 
ATOM     13  C   LIG    1       26.528 -26.858   5.038  0.00  0.00    +0.046 C 
BRANCH  12  14
ATOM     14  O   LIG    1       26.436 -26.972   7.434  0.00  0.00    -0.385 OA
ATOM     15  H   LIG    1       26.101 -27.850   7.690  0.00  0.00    +0.211 HD
ENDBRANCH  12  14
BRANCH  12  16
ATOM     16  C   LIG    1       24.358 -27.350   6.282  0.00  0.00    +0.039 C 
BRANCH  16  17
ATOM     17  C   LIG    1       24.368 -28.651   5.441  0.00  0.00    +0.003 C 
BRANCH  17  18
ATOM     18  C   LIG    1       24.284 -29.942   6.271  0.00  0.00    -0.000 C 
BRANCH  18  20
ATOM     19  C   LIG    1       23.976 -30.963   8.663  0.00  0.00    +0.004 C 
ATOM     20  C   LIG    1       24.254 -29.736   7.800  0.00  0.00    -0.003 C 
ENDBRANCH  18  20
ENDBRANCH  17  18
ENDBRANCH  16  17
ENDBRANCH  12  16
ENDBRANCH  10  12
ENDBRANCH   1  11
BRANCH   5  21
ATOM     21  C   LIG    1       26.308 -20.511   6.418  0.00  0.00    +0.033 C 
BRANCH  21  22
ATOM     22  C   LIG    1       27.693 -20.300   5.855  0.00  0.00    -0.031 C 
ATOM     23  C   LIG    1       28.910 -20.367   6.428  0.00  0.00    -0.031 C 
BRANCH  23  24
ATOM     24  C   LIG    1       29.354 -20.880   7.772  0.00  0.00    +0.027 C 
BRANCH  24  25
ATOM     25  C   LIG    1       30.811 -20.601   8.161  0.00  0.00    +0.015 C 
BRANCH  25  26
ATOM     26  C   LIG    1       31.242 -19.212   7.665  0.00  0.00    +0.121 C 
BRANCH  26  27
ATOM     27  C   LIG    1       31.824 -18.361   8.739  0.00  0.00    +0.305 C 
ATOM     28  O   LIG    1       31.901 -18.645   9.959  0.00  0.00    -0.251 OA
BRANCH  27  29
ATOM     29  O   LIG    1       32.260 -17.176   8.280  0.00  0.00    -0.481 OA
ATOM     30  H   LIG    1       33.177 -17.349   7.971  0.00  0.00    +0.295 HD
ENDBRANCH  27  29
ENDBRANCH  26  27
ENDBRANCH  25  26
ENDBRANCH  24  25
ENDBRANCH  23  24
ENDBRANCH  21  22
ENDBRANCH   5  21
TORSDOF 16
ENDMDL
MODEL 4
REMARK VINA RESULT:      -8.1      2.691      8.296
REMARK  Name = *****
REMARK                            x       y       z     vdW  Elec       q    Type
REMARK                         _______ _______ _______ _____ _____    ______ ____
ROOT
ATOM      1  C   LIG    1       26.634 -21.774   7.482  0.00  0.00    +0.046 C 
ATOM      2  C   LIG    1       25.538 -21.366   8.534  0.00  0.00    +0.124 C 
ATOM      3  C   LIG    1       24.337 -20.841   7.750  0.00  0.00    +0.063 C 
ATOM      4  C   LIG    1       24.833 -20.745   6.315  0.00  0.00    +0.121 C 
ATOM      5  C   LIG    1       25.844 -21.900   6.155  0.00  0.00    +0.031 C 
ENDROOT
BRANCH   4   6
ATOM      6  O   LIG    1       23.751 -20.812   5.408  0.00  0.00    -0.391 OA
ATOM      7  H   LIG    1       23.459 -19.899   5.243  0.00  0.00    +0.210 HD
ENDBRANCH   4   6
BRANCH   2   8
ATOM      8  O   LIG    1       25.985 -20.403   9.483  0.00  0.00    -0.391 OA
ATOM      9  H   LIG    1       25.268 -19.761   9.629  0.00  0.00    +0.210 HD
ENDBRANCH   2   8
BRANCH   1  11
ATOM     10  C   LIG    1       29.022 -20.873   7.990  0.00  0.00    +0.003 C 
ATOM     11  C   LIG    1       27.803 -20.783   7.419  0.00  0.00    -0.022 C 
BRANCH  10  12
ATOM     12  C   LIG    1       30.215 -19.935   7.879  0.00  0.00    +0.081 C 
ATOM     13  C   LIG    1       31.352 -20.511   8.772  0.00  0.00    +0.046 C 
BRANCH  12  14
ATOM     14  O   LIG    1       30.676 -20.001   6.526  0.00  0.00    -0.385 OA
ATOM     15  H   LIG    1       31.586 -19.657   6.501  0.00  0.00    +0.211 HD
ENDBRANCH  12  14
BRANCH  12  16
ATOM     16  C   LIG    1       30.000 -18.424   8.212  0.00  0.00    +0.039 C 
BRANCH  16  17
ATOM     17  C   LIG    1       31.023 -17.778   9.180  0.00  0.00    +0.003 C 
BRANCH  17  18
ATOM     18  C   LIG    1       30.398 -17.159  10.441  0.00  0.00    -0.000 C 
BRANCH  18  20
ATOM     19  C   LIG    1       32.799 -16.644  11.352  0.00  0.00    +0.004 C 
ATOM     20  C   LIG    1       31.352 -17.028  11.647  0.00  0.00    -0.003 C 
ENDBRANCH  18  20
ENDBRANCH  17  18
ENDBRANCH  16  17
ENDBRANCH  12  16
ENDBRANCH  10  12
ENDBRANCH   1  11
BRANCH   5  21
ATOM     21  C   LIG    1       25.186 -23.264   5.859  0.00  0.00    +0.033 C 
BRANCH  21  22
ATOM     22  C   LIG    1       25.690 -24.451   6.642  0.00  0.00    -0.031 C 
ATOM     23  C   LIG    1       25.753 -25.762   6.335  0.00  0.00    -0.031 C 
BRANCH  23  24
ATOM     24  C   LIG    1       25.548 -26.494   5.037  0.00  0.00    +0.027 C 
BRANCH  24  25
ATOM     25  C   LIG    1       25.459 -28.023   5.122  0.00  0.00    +0.015 C 
BRANCH  25  26
ATOM     26  C   LIG    1       24.944 -28.453   6.504  0.00  0.00    +0.121 C 
BRANCH  26  27
ATOM     27  C   LIG    1       23.989 -29.594   6.443  0.00  0.00    +0.305 C 
ATOM     28  O   LIG    1       23.918 -30.555   7.249  0.00  0.00    -0.251 OA
BRANCH  27  29
ATOM     29  O   LIG    1       23.176 -29.532   5.375  0.00  0.00    -0.481 OA
ATOM     30  H   LIG    1       23.101 -30.461   5.063  0.00  0.00    +0.295 HD
ENDBRANCH  27  29
ENDBRANCH  26  27
ENDBRANCH  25  26
ENDBRANCH  24  25
ENDBRANCH  23  24
ENDBRANCH  21  22
ENDBRANCH   5  21
TORSDOF 16
ENDMDL
MODEL 5
REMARK VINA RESULT:      -7.7      3.387      5.257
REMARK  Name = *****
REMARK                            x       y       z     vdW  Elec       q    Type
REMARK                         _______ _______ _______ _____ _____    ______ ____
ROOT
ATOM      1  C   LIG    1       26.172 -26.307   6.603  0.00  0.00    +0.046 C 
ATOM      2  C   LIG    1       25.762 -26.507   5.097  0.00  0.00    +0.124 C 
ATOM      3  C   LIG    1       24.434 -25.779   4.892  0.00  0.00    +0.063 C 
ATOM      4  C   LIG    1       24.003 -25.377   6.295  0.00  0.00    +0.121 C 
ATOM      5  C   LIG    1       25.313 -25.102   7.063  0.00  0.00    +0.031 C 
ENDROOT
BRANCH   4   6
ATOM      6  O   LIG    1       23.131 -24.265   6.249  0.00  0.00    -0.391 OA
ATOM      7  H   LIG    1       23.687 -23.468   6.195  0.00  0.00    +0.210 HD
ENDBRANCH   4   6
BRANCH   2   8
ATOM      8  O   LIG    1       25.656 -27.873   4.709  0.00  0.00    -0.391 OA
ATOM      9  H   LIG    1       24.958 -27.947   4.034  0.00  0.00    +0.210 HD
ENDBRANCH   2   8
BRANCH   1  11
ATOM     10  C   LIG    1       26.495 -27.868   8.659  0.00  0.00    +0.003 C 
ATOM     11  C   LIG    1       25.977 -27.571   7.450  0.00  0.00    -0.022 C 
BRANCH  10  12
ATOM     12  C   LIG    1       26.255 -29.083   9.544  0.00  0.00    +0.081 C 
ATOM     13  C   LIG    1       25.027 -29.849   8.971  0.00  0.00    +0.046 C 
BRANCH  12  14
ATOM     14  O   LIG    1       27.389 -29.943   9.390  0.00  0.00    -0.385 OA
ATOM     15  H   LIG    1       27.539 -30.398  10.238  0.00  0.00    +0.211 HD
ENDBRANCH  12  14
BRANCH  12  16
ATOM     16  C   LIG    1       26.063 -28.855  11.076  0.00  0.00    +0.039 C 
BRANCH  16  17
ATOM     17  C   LIG    1       26.856 -27.681  11.704  0.00  0.00    +0.003 C 
BRANCH  17  18
ATOM     18  C   LIG    1       26.121 -26.957  12.842  0.00  0.00    -0.000 C 
BRANCH  18  20
ATOM     19  C   LIG    1       23.634 -26.475  13.507  0.00  0.00    +0.004 C 
ATOM     20  C   LIG    1       24.710 -27.498  13.159  0.00  0.00    -0.003 C 
ENDBRANCH  18  20
ENDBRANCH  17  18
ENDBRANCH  16  17
ENDBRANCH  12  16
ENDBRANCH  10  12
ENDBRANCH   1  11
BRANCH   5  21
ATOM     21  C   LIG    1       25.893 -23.694   6.814  0.00  0.00    +0.033 C 
BRANCH  21  22
ATOM     22  C   LIG    1       26.043 -22.793   8.016  0.00  0.00    -0.031 C 
ATOM     23  C   LIG    1       25.707 -21.504   8.213  0.00  0.00    -0.031 C 
BRANCH  23  24
ATOM     24  C   LIG    1       24.873 -20.553   7.396  0.00  0.00    +0.027 C 
BRANCH  24  25
ATOM     25  C   LIG    1       23.422 -20.972   7.131  0.00  0.00    +0.015 C 
BRANCH  25  26
ATOM     26  C   LIG    1       22.955 -20.451   5.763  0.00  0.00    +0.121 C 
BRANCH  26  27
ATOM     27  C   LIG    1       23.894 -20.787   4.658  0.00  0.00    +0.305 C 
ATOM     28  O   LIG    1       24.579 -19.977   3.985  0.00  0.00    -0.251 OA
BRANCH  27  29
ATOM     29  O   LIG    1       23.934 -22.104   4.395  0.00  0.00    -0.481 OA
ATOM     30  H   LIG    1       23.004 -22.407   4.489  0.00  0.00    +0.295 HD
ENDBRANCH  27  29
ENDBRANCH  26  27
ENDBRANCH  25  26
ENDBRANCH  24  25
ENDBRANCH  23  24
ENDBRANCH  21  22
ENDBRANCH   5  21
TORSDOF 16
ENDMDL
MODEL 6
REMARK VINA RESULT:      -7.6      2.978      7.300
REMARK  Name = *****
REMARK                            x       y       z     vdW  Elec       q    Type
REMARK                         _______ _______ _______ _____ _____    ______ ____
ROOT
ATOM      1  C   LIG    1       25.147 -19.753   5.048  0.00  0.00    +0.046 C 
ATOM      2  C   LIG    1       24.852 -18.843   3.799  0.00  0.00    +0.124 C 
ATOM      3  C   LIG    1       24.353 -19.760   2.683  0.00  0.00    +0.063 C 
ATOM      4  C   LIG    1       24.577 -21.166   3.220  0.00  0.00    +0.121 C 
ATOM      5  C   LIG    1       24.371 -21.059   4.746  0.00  0.00    +0.031 C 
ENDROOT
BRANCH   4   6
ATOM      6  O   LIG    1       23.703 -22.084   2.595  0.00  0.00    -0.391 OA
ATOM      7  H   LIG    1       23.319 -21.634   1.823  0.00  0.00    +0.210 HD
ENDBRANCH   4   6
BRANCH   2   8
ATOM      8  O   LIG    1       25.976 -18.084   3.365  0.00  0.00    -0.391 OA
ATOM      9  H   LIG    1       26.770 -18.644   3.433  0.00  0.00    +0.210 HD
ENDBRANCH   2   8
BRANCH   1  11
ATOM     10  C   LIG    1       27.319 -19.959   6.466  0.00  0.00    +0.003 C 
ATOM     11  C   LIG    1       26.646 -19.963   5.297  0.00  0.00    -0.022 C 
BRANCH  10  12
ATOM     12  C   LIG    1       28.791 -20.236   6.737  0.00  0.00    +0.081 C 
ATOM     13  C   LIG    1       28.874 -21.174   7.975  0.00  0.00    +0.046 C 
BRANCH  12  14
ATOM     14  O   LIG    1       29.290 -20.978   5.619  0.00  0.00    -0.385 OA
ATOM     15  H   LIG    1       29.258 -20.401   4.836  0.00  0.00    +0.211 HD
ENDBRANCH  12  14
BRANCH  12  16
ATOM     16  C   LIG    1       29.747 -19.017   6.936  0.00  0.00    +0.039 C 
BRANCH  16  17
ATOM     17  C   LIG    1       31.154 -19.330   7.505  0.00  0.00    +0.003 C 
BRANCH  17  18
ATOM     18  C   LIG    1       31.466 -18.633   8.839  0.00  0.00    -0.000 C 
BRANCH  18  20
ATOM     19  C   LIG    1       30.579 -16.965  10.652  0.00  0.00    +0.004 C 
ATOM     20  C   LIG    1       30.271 -17.910   9.495  0.00  0.00    -0.003 C 
ENDBRANCH  18  20
ENDBRANCH  17  18
ENDBRANCH  16  17
ENDBRANCH  12  16
ENDBRANCH  10  12
ENDBRANCH   1  11
BRANCH   5  21
ATOM     21  C   LIG    1       22.889 -21.108   5.175  0.00  0.00    +0.033 C 
BRANCH  21  22
ATOM     22  C   LIG    1       22.537 -22.034   6.313  0.00  0.00    -0.031 C 
ATOM     23  C   LIG    1       23.305 -22.660   7.226  0.00  0.00    -0.031 C 
BRANCH  23  24
ATOM     24  C   LIG    1       24.759 -22.504   7.584  0.00  0.00    +0.027 C 
BRANCH  24  25
ATOM     25  C   LIG    1       25.695 -23.638   7.148  0.00  0.00    +0.015 C 
BRANCH  25  26
ATOM     26  C   LIG    1       24.882 -24.828   6.613  0.00  0.00    +0.121 C 
BRANCH  26  27
ATOM     27  C   LIG    1       25.294 -25.251   5.247  0.00  0.00    +0.305 C 
ATOM     28  O   LIG    1       26.095 -26.174   4.959  0.00  0.00    -0.251 OA
BRANCH  27  29
ATOM     29  O   LIG    1       24.733 -24.503   4.282  0.00  0.00    -0.481 OA
ATOM     30  H   LIG    1       24.809 -23.578   4.606  0.00  0.00    +0.295 HD
ENDBRANCH  27  29
ENDBRANCH  26  27
ENDBRANCH  25  26
ENDBRANCH  24  25
ENDBRANCH  23  24
ENDBRANCH  21  22
ENDBRANCH   5  21
TORSDOF 16
ENDMDL
MODEL 7
REMARK VINA RESULT:      -7.5      2.092      3.794
REMARK  Name = *****
REMARK                            x       y       z     vdW  Elec       q    Type
REMARK                         _______ _______ _______ _____ _____    ______ ____
ROOT
ATOM      1  C   LIG    1       26.147 -26.198   6.653  0.00  0.00    +0.046 C 
ATOM      2  C   LIG    1       25.766 -26.383   5.138  0.00  0.00    +0.124 C 
ATOM      3  C   LIG    1       24.485 -25.585   4.897  0.00  0.00    +0.063 C 
ATOM      4  C   LIG    1       24.040 -25.154   6.286  0.00  0.00    +0.121 C 
ATOM      5  C   LIG    1       25.343 -24.947   7.087  0.00  0.00    +0.031 C 
ENDROOT
BRANCH   4   6
ATOM      6  O   LIG    1       23.231 -23.997   6.215  0.00  0.00    -0.391 OA
ATOM      7  H   LIG    1       22.305 -24.293   6.253  0.00  0.00    +0.210 HD
ENDBRANCH   4   6
BRANCH   2   8
ATOM      8  O   LIG    1       25.597 -27.743   4.752  0.00  0.00    -0.391 OA
ATOM      9  H   LIG    1       26.049 -27.878   3.900  0.00  0.00    +0.210 HD
ENDBRANCH   2   8
BRANCH   1  11
ATOM     10  C   LIG    1       26.530 -27.908   8.576  0.00  0.00    +0.003 C 
ATOM     11  C   LIG    1       25.863 -27.445   7.499  0.00  0.00    -0.022 C 
BRANCH  10  12
ATOM     12  C   LIG    1       26.220 -29.101   9.468  0.00  0.00    +0.081 C 
ATOM     13  C   LIG    1       24.924 -29.771   8.927  0.00  0.00    +0.046 C 
BRANCH  12  14
ATOM     14  O   LIG    1       27.281 -30.045   9.289  0.00  0.00    -0.385 OA
ATOM     15  H   LIG    1       27.157 -30.476   8.425  0.00  0.00    +0.211 HD
ENDBRANCH  12  14
BRANCH  12  16
ATOM     16  C   LIG    1       26.083 -28.859  11.005  0.00  0.00    +0.039 C 
BRANCH  16  17
ATOM     17  C   LIG    1       24.724 -29.237  11.645  0.00  0.00    +0.003 C 
BRANCH  17  18
ATOM     18  C   LIG    1       24.281 -28.307  12.785  0.00  0.00    -0.000 C 
BRANCH  18  20
ATOM     19  C   LIG    1       22.352 -26.609  13.293  0.00  0.00    +0.004 C 
ATOM     20  C   LIG    1       22.768 -28.003  12.831  0.00  0.00    -0.003 C 
ENDBRANCH  18  20
ENDBRANCH  17  18
ENDBRANCH  16  17
ENDBRANCH  12  16
ENDBRANCH  10  12
ENDBRANCH   1  11
BRANCH   5  21
ATOM     21  C   LIG    1       26.004 -23.573   6.848  0.00  0.00    +0.033 C 
BRANCH  21  22
ATOM     22  C   LIG    1       26.003 -22.603   8.005  0.00  0.00    -0.031 C 
ATOM     23  C   LIG    1       26.510 -21.360   8.128  0.00  0.00    -0.031 C 
BRANCH  23  24
ATOM     24  C   LIG    1       27.068 -20.403   7.110  0.00  0.00    +0.027 C 
BRANCH  24  25
ATOM     25  C   LIG    1       28.511 -19.934   7.334  0.00  0.00    +0.015 C 
BRANCH  25  26
ATOM     26  C   LIG    1       29.384 -21.101   7.821  0.00  0.00    +0.121 C 
BRANCH  26  27
ATOM     27  C   LIG    1       30.696 -20.661   8.372  0.00  0.00    +0.305 C 
ATOM     28  O   LIG    1       31.048 -20.687   9.577  0.00  0.00    -0.251 OA
BRANCH  27  29
ATOM     29  O   LIG    1       31.516 -20.173   7.427  0.00  0.00    -0.481 OA
ATOM     30  H   LIG    1       31.938 -20.966   7.027  0.00  0.00    +0.295 HD
ENDBRANCH  27  29
ENDBRANCH  26  27
ENDBRANCH  25  26
ENDBRANCH  24  25
ENDBRANCH  23  24
ENDBRANCH  21  22
ENDBRANCH   5  21
TORSDOF 16
ENDMDL
MODEL 8
REMARK VINA RESULT:      -7.5      2.371      8.093
REMARK  Name = *****
REMARK                            x       y       z     vdW  Elec       q    Type
REMARK                         _______ _______ _______ _____ _____    ______ ____
ROOT
ATOM      1  C   LIG    1       25.078 -22.339   7.373  0.00  0.00    +0.046 C 
ATOM      2  C   LIG    1       23.687 -21.604   7.358  0.00  0.00    +0.124 C 
ATOM      3  C   LIG    1       23.279 -21.444   5.895  0.00  0.00    +0.063 C 
ATOM      4  C   LIG    1       24.509 -21.872   5.110  0.00  0.00    +0.121 C 
ATOM      5  C   LIG    1       25.176 -22.972   5.962  0.00  0.00    +0.031 C 
ENDROOT
BRANCH   4   6
ATOM      6  O   LIG    1       24.149 -22.304   3.813  0.00  0.00    -0.391 OA
ATOM      7  H   LIG    1       24.067 -21.508   3.259  0.00  0.00    +0.210 HD
ENDBRANCH   4   6
BRANCH   2   8
ATOM      8  O   LIG    1       23.697 -20.345   8.023  0.00  0.00    -0.391 OA
ATOM      9  H   LIG    1       23.200 -19.708   7.479  0.00  0.00    +0.210 HD
ENDBRANCH   2   8
BRANCH   1  11
ATOM     10  C   LIG    1       27.497 -21.394   7.220  0.00  0.00    +0.003 C 
ATOM     11  C   LIG    1       26.245 -21.406   7.720  0.00  0.00    -0.022 C 
BRANCH  10  12
ATOM     12  C   LIG    1       28.643 -20.433   7.501  0.00  0.00    +0.081 C 
ATOM     13  C   LIG    1       28.771 -19.482   6.276  0.00  0.00    +0.046 C 
BRANCH  12  14
ATOM     14  O   LIG    1       28.248 -19.625   8.614  0.00  0.00    -0.385 OA
ATOM     15  H   LIG    1       27.276 -19.587   8.629  0.00  0.00    +0.211 HD
ENDBRANCH  12  14
BRANCH  12  16
ATOM     16  C   LIG    1       30.042 -21.033   7.849  0.00  0.00    +0.039 C 
BRANCH  16  17
ATOM     17  C   LIG    1       30.907 -20.231   8.854  0.00  0.00    +0.003 C 
BRANCH  17  18
ATOM     18  C   LIG    1       31.583 -18.987   8.256  0.00  0.00    -0.000 C 
BRANCH  18  20
ATOM     19  C   LIG    1       32.255 -16.691   9.321  0.00  0.00    +0.004 C 
ATOM     20  C   LIG    1       31.149 -17.643   8.878  0.00  0.00    -0.003 C 
ENDBRANCH  18  20
ENDBRANCH  17  18
ENDBRANCH  16  17
ENDBRANCH  12  16
ENDBRANCH  10  12
ENDBRANCH   1  11
BRANCH   5  21
ATOM     21  C   LIG    1       24.545 -24.368   5.776  0.00  0.00    +0.033 C 
BRANCH  21  22
ATOM     22  C   LIG    1       25.372 -25.402   5.051  0.00  0.00    -0.031 C 
ATOM     23  C   LIG    1       25.407 -26.745   5.147  0.00  0.00    -0.031 C 
BRANCH  23  24
ATOM     24  C   LIG    1       24.498 -27.720   5.846  0.00  0.00    +0.027 C 
BRANCH  24  25
ATOM     25  C   LIG    1       25.112 -28.514   7.006  0.00  0.00    +0.015 C 
BRANCH  25  26
ATOM     26  C   LIG    1       24.339 -29.824   7.226  0.00  0.00    +0.121 C 
BRANCH  26  27
ATOM     27  C   LIG    1       24.513 -30.800   6.116  0.00  0.00    +0.305 C 
ATOM     28  O   LIG    1       25.594 -31.116   5.560  0.00  0.00    -0.251 OA
BRANCH  27  29
ATOM     29  O   LIG    1       23.348 -31.329   5.705  0.00  0.00    -0.481 OA
ATOM     30  H   LIG    1       23.383 -31.279   4.723  0.00  0.00    +0.295 HD
ENDBRANCH  27  29
ENDBRANCH  26  27
ENDBRANCH  25  26
ENDBRANCH  24  25
ENDBRANCH  23  24
ENDBRANCH  21  22
ENDBRANCH   5  21
TORSDOF 16
ENDMDL
MODEL 9
REMARK VINA RESULT:      -7.4      2.833      7.631
REMARK  Name = *****
REMARK                            x       y       z     vdW  Elec       q    Type
REMARK                         _______ _______ _______ _____ _____    ______ ____
ROOT
ATOM      1  C   LIG    1       27.173 -20.961   5.993  0.00  0.00    +0.046 C 
ATOM      2  C   LIG    1       28.358 -20.398   6.861  0.00  0.00    +0.124 C 
ATOM      3  C   LIG    1       27.857 -20.310   8.302  0.00  0.00    +0.063 C 
ATOM      4  C   LIG    1       26.368 -20.601   8.203  0.00  0.00    +0.121 C 
ATOM      5  C   LIG    1       26.222 -21.600   7.036  0.00  0.00    +0.031 C 
ENDROOT
BRANCH   4   6
ATOM      6  O   LIG    1       25.872 -21.093   9.432  0.00  0.00    -0.391 OA
ATOM      7  H   LIG    1       25.919 -20.362  10.073  0.00  0.00    +0.210 HD
ENDBRANCH   4   6
BRANCH   2   8
ATOM      8  O   LIG    1       28.845 -19.136   6.416  0.00  0.00    -0.391 OA
ATOM      9  H   LIG    1       28.368 -18.893   5.603  0.00  0.00    +0.210 HD
ENDBRANCH   2   8
BRANCH   1  11
ATOM     10  C   LIG    1       25.407 -19.991   4.347  0.00  0.00    +0.003 C 
ATOM     11  C   LIG    1       26.509 -19.891   5.118  0.00  0.00    -0.022 C 
BRANCH  10  12
ATOM     12  C   LIG    1       24.696 -18.922   3.531  0.00  0.00    +0.081 C 
ATOM     13  C   LIG    1       25.736 -17.813   3.198  0.00  0.00    +0.046 C 
BRANCH  12  14
ATOM     14  O   LIG    1       24.320 -19.525   2.288  0.00  0.00    -0.385 OA
ATOM     15  H   LIG    1       24.339 -20.491   2.405  0.00  0.00    +0.211 HD
ENDBRANCH  12  14
BRANCH  12  16
ATOM     16  C   LIG    1       23.408 -18.271   4.128  0.00  0.00    +0.039 C 
BRANCH  16  17
ATOM     17  C   LIG    1       22.326 -19.245   4.659  0.00  0.00    +0.003 C 
BRANCH  17  18
ATOM     18  C   LIG    1       22.746 -20.041   5.905  0.00  0.00    -0.000 C 
BRANCH  18  20
ATOM     19  C   LIG    1       22.679 -22.396   7.048  0.00  0.00    +0.004 C 
ATOM     20  C   LIG    1       22.655 -21.575   5.762  0.00  0.00    -0.003 C 
ENDBRANCH  18  20
ENDBRANCH  17  18
ENDBRANCH  16  17
ENDBRANCH  12  16
ENDBRANCH  10  12
ENDBRANCH   1  11
BRANCH   5  21
ATOM     21  C   LIG    1       26.504 -23.064   7.435  0.00  0.00    +0.033 C 
BRANCH  21  22
ATOM     22  C   LIG    1       25.391 -24.060   7.215  0.00  0.00    -0.031 C 
ATOM     23  C   LIG    1       25.372 -25.255   6.594  0.00  0.00    -0.031 C 
BRANCH  23  24
ATOM     24  C   LIG    1       26.483 -26.132   6.082  0.00  0.00    +0.027 C 
BRANCH  24  25
ATOM     25  C   LIG    1       26.088 -27.211   5.066  0.00  0.00    +0.015 C 
BRANCH  25  26
ATOM     26  C   LIG    1       24.634 -27.653   5.292  0.00  0.00    +0.121 C 
BRANCH  26  27
ATOM     27  C   LIG    1       24.489 -29.125   5.461  0.00  0.00    +0.305 C 
ATOM     28  O   LIG    1       25.419 -29.964   5.537  0.00  0.00    -0.251 OA
BRANCH  27  29
ATOM     29  O   LIG    1       23.204 -29.517   5.499  0.00  0.00    -0.481 OA
ATOM     30  H   LIG    1       23.177 -30.221   6.185  0.00  0.00    +0.295 HD
ENDBRANCH  27  29
ENDBRANCH  26  27
ENDBRANCH  25  26
ENDBRANCH  24  25
ENDBRANCH  23  24
ENDBRANCH  21  22
ENDBRANCH   5  21
TORSDOF 16
ENDMDL
