MODEL 1
REMARK VINA RESULT:      -9.4      0.000      0.000
REMARK  Name = *****
REMARK                            x       y       z     vdW  Elec       q    Type
REMARK                         _______ _______ _______ _____ _____    ______ ____
ROOT
ATOM      1  O   LIG    1       27.255 -20.501   5.387  0.00  0.00    -0.247 OA
ATOM      2  C   LIG    1       26.722 -20.652   6.486  0.00  0.00    +0.349 C 
ENDROOT
BRANCH   2   3
ATOM      3  C   LIG    1       25.241 -21.110   6.742  0.00  0.00    +0.213 C 
BRANCH   3   4
ATOM      4  C   LIG    1       25.034 -22.638   6.674  0.00  0.00    -0.001 A 
ATOM      5  C   LIG    1       26.103 -23.554   6.757  0.00  0.00    +0.007 A 
ATOM      6  C   LIG    1       25.882 -24.939   6.692  0.00  0.00    +0.000 A 
ATOM      7  C   LIG    1       24.590 -25.442   6.563  0.00  0.00    +0.000 A 
ATOM      8  C   LIG    1       23.515 -24.564   6.529  0.00  0.00    +0.000 A 
ATOM      9  C   LIG    1       23.736 -23.184   6.601  0.00  0.00    +0.007 A 
ENDBRANCH   3   4
BRANCH   3  10
ATOM     10  C   LIG    1       24.346 -20.324   5.748  0.00  0.00    -0.001 A 
ATOM     11  C   LIG    1       23.022 -19.961   6.057  0.00  0.00    +0.007 A 
ATOM     12  C   LIG    1       22.241 -19.246   5.144  0.00  0.00    +0.000 A 
ATOM     13  C   LIG    1       22.755 -18.904   3.897  0.00  0.00    +0.000 A 
ATOM     14  C   LIG    1       24.049 -19.285   3.554  0.00  0.00    +0.000 A 
ATOM     15  C   LIG    1       24.839 -19.986   4.470  0.00  0.00    +0.007 A 
ENDBRANCH   3  10
BRANCH   3  16
ATOM     16  O   LIG    1       24.912 -20.751   8.098  0.00  0.00    -0.370 OA
ATOM     17  H   LIG    1       24.999 -21.568   8.616  0.00  0.00    +0.212 HD
ENDBRANCH   3  16
ENDBRANCH   2   3
BRANCH   2  18
ATOM     18  O   LIG    1       27.365 -20.340   7.674  0.00  0.00    -0.459 OA
BRANCH  18  19
ATOM     19  C   LIG    1       28.801 -20.170   7.612  0.00  0.00    +0.187 C 
ATOM     20  C   LIG    1       29.436 -20.649   8.926  0.00  0.00    +0.099 C 
ATOM     21  C   LIG    1       30.855 -20.094   9.145  0.00  0.00    +0.070 C 
ATOM     22  N   LIG    1       30.799 -18.553   9.168  0.00  0.00    +0.248 N 
ATOM     23  C   LIG    1       30.544 -18.280   7.669  0.00  0.00    +0.070 C 
ATOM     24  C   LIG    1       31.588 -19.185   6.994  0.00  0.00    +0.060 C 
ATOM     25  C   LIG    1       32.163 -17.925   9.627  0.00  0.00    +0.134 C 
ATOM     26  C   LIG    1       31.858 -17.178  10.911  0.00  0.00    +0.056 C 
ATOM     27  C   LIG    1       30.435 -16.721  10.716  0.00  0.00    +0.056 C 
ATOM     28  C   LIG    1       29.775 -17.961  10.154  0.00  0.00    +0.134 C 
ATOM     29  C   LIG    1       31.763 -20.381   7.936  0.00  0.00    +0.060 C 
ATOM     30  C   LIG    1       29.118 -18.706   7.278  0.00  0.00    +0.099 C 
ENDBRANCH  18  19
ENDBRANCH   2  18
TORSDOF 6
ENDMDL
MODEL 2
REMARK VINA RESULT:      -9.4      0.820      3.780
REMARK  Name = *****
REMARK                            x       y       z     vdW  Elec       q    Type
REMARK                         _______ _______ _______ _____ _____    ______ ____
ROOT
ATOM      1  O   LIG    1       25.265 -20.660   8.760  0.00  0.00    -0.247 OA
ATOM      2  C   LIG    1       26.088 -21.156   7.990  0.00  0.00    +0.349 C 
ENDROOT
BRANCH   2   3
ATOM      3  C   LIG    1       25.818 -21.599   6.506  0.00  0.00    +0.213 C 
BRANCH   3   4
ATOM      4  C   LIG    1       24.823 -20.692   5.751  0.00  0.00    -0.001 A 
ATOM      5  C   LIG    1       23.526 -20.421   6.232  0.00  0.00    +0.007 A 
ATOM      6  C   LIG    1       22.644 -19.591   5.521  0.00  0.00    +0.000 A 
ATOM      7  C   LIG    1       23.042 -19.000   4.325  0.00  0.00    +0.000 A 
ATOM      8  C   LIG    1       24.330 -19.212   3.853  0.00  0.00    +0.000 A 
ATOM      9  C   LIG    1       25.211 -20.032   4.566  0.00  0.00    +0.007 A 
ENDBRANCH   3   4
BRANCH   3  10
ATOM     10  C   LIG    1       25.383 -23.087   6.550  0.00  0.00    -0.001 A 
ATOM     11  C   LIG    1       26.316 -24.139   6.615  0.00  0.00    +0.007 A 
ATOM     12  C   LIG    1       25.895 -25.472   6.661  0.00  0.00    +0.000 A 
ATOM     13  C   LIG    1       24.539 -25.781   6.614  0.00  0.00    +0.000 A 
ATOM     14  C   LIG    1       23.599 -24.760   6.511  0.00  0.00    +0.000 A 
ATOM     15  C   LIG    1       24.015 -23.425   6.481  0.00  0.00    +0.007 A 
ENDBRANCH   3  10
BRANCH   3  16
ATOM     16  O   LIG    1       27.060 -21.464   5.790  0.00  0.00    -0.370 OA
ATOM     17  H   LIG    1       26.825 -21.479   4.847  0.00  0.00    +0.212 HD
ENDBRANCH   3  16
ENDBRANCH   2   3
BRANCH   2  18
ATOM     18  O   LIG    1       27.377 -21.475   8.384  0.00  0.00    -0.459 OA
BRANCH  18  19
ATOM     19  C   LIG    1       28.452 -20.727   7.766  0.00  0.00    +0.187 C 
ATOM     20  C   LIG    1       29.796 -21.154   8.372  0.00  0.00    +0.099 C 
ATOM     21  C   LIG    1       30.916 -20.125   8.135  0.00  0.00    +0.070 C 
ATOM     22  N   LIG    1       30.508 -18.777   8.764  0.00  0.00    +0.248 N 
ATOM     23  C   LIG    1       29.416 -18.342   7.762  0.00  0.00    +0.070 C 
ATOM     24  C   LIG    1       30.102 -18.593   6.409  0.00  0.00    +0.060 C 
ATOM     25  C   LIG    1       31.697 -17.753   8.775  0.00  0.00    +0.134 C 
ATOM     26  C   LIG    1       31.975 -17.462  10.238  0.00  0.00    +0.056 C 
ATOM     27  C   LIG    1       30.618 -17.596  10.880  0.00  0.00    +0.056 C 
ATOM     28  C   LIG    1       30.085 -18.860  10.243  0.00  0.00    +0.134 C 
ATOM     29  C   LIG    1       31.050 -19.774   6.643  0.00  0.00    +0.060 C 
ATOM     30  C   LIG    1       28.165 -19.226   7.911  0.00  0.00    +0.099 C 
ENDBRANCH  18  19
ENDBRANCH   2  18
TORSDOF 6
ENDMDL
MODEL 3
REMARK VINA RESULT:      -8.6      3.259      7.893
REMARK  Name = *****
REMARK                            x       y       z     vdW  Elec       q    Type
REMARK                         _______ _______ _______ _____ _____    ______ ____
ROOT
ATOM      1  O   LIG    1       24.656 -23.223   4.221  0.00  0.00    -0.247 OA
ATOM      2  C   LIG    1       24.995 -23.045   5.391  0.00  0.00    +0.349 C 
ENDROOT
BRANCH   2   3
ATOM      3  C   LIG    1       24.933 -21.686   6.177  0.00  0.00    +0.213 C 
BRANCH   3   4
ATOM      4  C   LIG    1       24.182 -20.562   5.431  0.00  0.00    -0.001 A 
ATOM      5  C   LIG    1       24.682 -19.963   4.257  0.00  0.00    +0.007 A 
ATOM      6  C   LIG    1       23.974 -18.943   3.602  0.00  0.00    +0.000 A 
ATOM      7  C   LIG    1       22.746 -18.509   4.092  0.00  0.00    +0.000 A 
ATOM      8  C   LIG    1       22.208 -19.115   5.220  0.00  0.00    +0.000 A 
ATOM      9  C   LIG    1       22.910 -20.137   5.867  0.00  0.00    +0.007 A 
ENDBRANCH   3   4
BRANCH   3  10
ATOM     10  C   LIG    1       26.392 -21.310   6.547  0.00  0.00    -0.001 A 
ATOM     11  C   LIG    1       27.039 -21.844   7.677  0.00  0.00    +0.007 A 
ATOM     12  C   LIG    1       28.358 -21.493   7.983  0.00  0.00    +0.000 A 
ATOM     13  C   LIG    1       29.045 -20.583   7.185  0.00  0.00    +0.000 A 
ATOM     14  C   LIG    1       28.412 -20.013   6.084  0.00  0.00    +0.000 A 
ATOM     15  C   LIG    1       27.100 -20.373   5.765  0.00  0.00    +0.007 A 
ENDBRANCH   3  10
BRANCH   3  16
ATOM     16  O   LIG    1       24.161 -21.919   7.371  0.00  0.00    -0.370 OA
ATOM     17  H   LIG    1       24.778 -22.305   8.014  0.00  0.00    +0.212 HD
ENDBRANCH   3  16
ENDBRANCH   2   3
BRANCH   2  18
ATOM     18  O   LIG    1       25.575 -24.044   6.156  0.00  0.00    -0.459 OA
BRANCH  18  19
ATOM     19  C   LIG    1       25.354 -25.408   5.725  0.00  0.00    +0.187 C 
ATOM     20  C   LIG    1       24.207 -26.028   6.535  0.00  0.00    +0.099 C 
ATOM     21  C   LIG    1       24.202 -27.566   6.490  0.00  0.00    +0.070 C 
ATOM     22  N   LIG    1       25.536 -28.095   7.057  0.00  0.00    +0.248 N 
ATOM     23  C   LIG    1       26.482 -27.713   5.898  0.00  0.00    +0.070 C 
ATOM     24  C   LIG    1       25.704 -28.215   4.669  0.00  0.00    +0.060 C 
ATOM     25  C   LIG    1       25.507 -29.650   7.268  0.00  0.00    +0.134 C 
ATOM     26  C   LIG    1       25.685 -29.865   8.759  0.00  0.00    +0.056 C 
ATOM     27  C   LIG    1       26.551 -28.704   9.174  0.00  0.00    +0.056 C 
ATOM     28  C   LIG    1       25.904 -27.545   8.449  0.00  0.00    +0.134 C 
ATOM     29  C   LIG    1       24.223 -28.086   5.041  0.00  0.00    +0.060 C 
ATOM     30  C   LIG    1       26.672 -26.187   5.836  0.00  0.00    +0.099 C 
ENDBRANCH  18  19
ENDBRANCH   2  18
TORSDOF 6
ENDMDL
MODEL 4
REMARK VINA RESULT:      -8.5      1.401      2.594
REMARK  Name = *****
REMARK                            x       y       z     vdW  Elec       q    Type
REMARK                         _______ _______ _______ _____ _____    ______ ____
ROOT
ATOM      1  O   LIG    1       25.719 -20.451   8.747  0.00  0.00    -0.247 OA
ATOM      2  C   LIG    1       25.514 -20.778   7.578  0.00  0.00    +0.349 C 
ENDROOT
BRANCH   2   3
ATOM      3  C   LIG    1       24.238 -21.518   7.034  0.00  0.00    +0.213 C 
BRANCH   3   4
ATOM      4  C   LIG    1       24.434 -23.033   6.817  0.00  0.00    -0.001 A 
ATOM      5  C   LIG    1       23.368 -23.901   6.504  0.00  0.00    +0.007 A 
ATOM      6  C   LIG    1       23.579 -25.275   6.312  0.00  0.00    +0.000 A 
ATOM      7  C   LIG    1       24.859 -25.812   6.411  0.00  0.00    +0.000 A 
ATOM      8  C   LIG    1       25.934 -24.973   6.671  0.00  0.00    +0.000 A 
ATOM      9  C   LIG    1       25.724 -23.602   6.854  0.00  0.00    +0.007 A 
ENDBRANCH   3   4
BRANCH   3  10
ATOM     10  C   LIG    1       23.789 -20.766   5.754  0.00  0.00    -0.001 A 
ATOM     11  C   LIG    1       24.437 -20.941   4.517  0.00  0.00    +0.007 A 
ATOM     12  C   LIG    1       24.006 -20.254   3.376  0.00  0.00    +0.000 A 
ATOM     13  C   LIG    1       22.942 -19.361   3.455  0.00  0.00    +0.000 A 
ATOM     14  C   LIG    1       22.311 -19.143   4.676  0.00  0.00    +0.000 A 
ATOM     15  C   LIG    1       22.727 -19.839   5.815  0.00  0.00    +0.007 A 
ENDBRANCH   3  10
BRANCH   3  16
ATOM     16  O   LIG    1       23.222 -21.417   8.052  0.00  0.00    -0.370 OA
ATOM     17  H   LIG    1       23.233 -20.492   8.346  0.00  0.00    +0.212 HD
ENDBRANCH   3  16
ENDBRANCH   2   3
BRANCH   2  18
ATOM     18  O   LIG    1       26.459 -20.604   6.580  0.00  0.00    -0.459 OA
BRANCH  18  19
ATOM     19  C   LIG    1       27.611 -19.792   6.908  0.00  0.00    +0.187 C 
ATOM     20  C   LIG    1       28.835 -20.288   6.125  0.00  0.00    +0.099 C 
ATOM     21  C   LIG    1       30.168 -19.816   6.731  0.00  0.00    +0.070 C 
ATOM     22  N   LIG    1       30.279 -20.334   8.180  0.00  0.00    +0.248 N 
ATOM     23  C   LIG    1       29.239 -19.418   8.864  0.00  0.00    +0.070 C 
ATOM     24  C   LIG    1       29.621 -18.032   8.315  0.00  0.00    +0.060 C 
ATOM     25  C   LIG    1       31.711 -20.099   8.777  0.00  0.00    +0.134 C 
ATOM     26  C   LIG    1       32.265 -21.481   9.069  0.00  0.00    +0.056 C 
ATOM     27  C   LIG    1       31.035 -22.280   9.413  0.00  0.00    +0.056 C 
ATOM     28  C   LIG    1       30.061 -21.850   8.339  0.00  0.00    +0.134 C 
ATOM     29  C   LIG    1       30.192 -18.288   6.917  0.00  0.00    +0.060 C 
ATOM     30  C   LIG    1       27.814 -19.801   8.429  0.00  0.00    +0.099 C 
ENDBRANCH  18  19
ENDBRANCH   2  18
TORSDOF 6
ENDMDL
MODEL 5
REMARK VINA RESULT:      -8.0      3.509      7.627
REMARK  Name = *****
REMARK                            x       y       z     vdW  Elec       q    Type
REMARK                         _______ _______ _______ _____ _____    ______ ____
ROOT
ATOM      1  O   LIG    1       22.353 -22.803   6.471  0.00  0.00    -0.247 OA
ATOM      2  C   LIG    1       23.571 -22.971   6.535  0.00  0.00    +0.349 C 
ENDROOT
BRANCH   2   3
ATOM      3  C   LIG    1       24.667 -22.063   5.868  0.00  0.00    +0.213 C 
BRANCH   3   4
ATOM      4  C   LIG    1       25.791 -21.624   6.831  0.00  0.00    -0.001 A 
ATOM      5  C   LIG    1       27.140 -21.984   6.639  0.00  0.00    +0.007 A 
ATOM      6  C   LIG    1       28.139 -21.568   7.533  0.00  0.00    +0.000 A 
ATOM      7  C   LIG    1       27.819 -20.770   8.628  0.00  0.00    +0.000 A 
ATOM      8  C   LIG    1       26.505 -20.361   8.814  0.00  0.00    +0.000 A 
ATOM      9  C   LIG    1       25.511 -20.769   7.918  0.00  0.00    +0.007 A 
ENDBRANCH   3   4
BRANCH   3  10
ATOM     10  C   LIG    1       23.926 -20.873   5.203  0.00  0.00    -0.001 A 
ATOM     11  C   LIG    1       24.286 -20.381   3.935  0.00  0.00    +0.007 A 
ATOM     12  C   LIG    1       23.596 -19.310   3.357  0.00  0.00    +0.000 A 
ATOM     13  C   LIG    1       22.554 -18.694   4.044  0.00  0.00    +0.000 A 
ATOM     14  C   LIG    1       22.205 -19.139   5.316  0.00  0.00    +0.000 A 
ATOM     15  C   LIG    1       22.882 -20.219   5.890  0.00  0.00    +0.007 A 
ENDBRANCH   3  10
BRANCH   3  16
ATOM     16  O   LIG    1       25.328 -22.860   4.866  0.00  0.00    -0.370 OA
ATOM     17  H   LIG    1       24.619 -23.275   4.348  0.00  0.00    +0.212 HD
ENDBRANCH   3  16
ENDBRANCH   2   3
BRANCH   2  18
ATOM     18  O   LIG    1       24.138 -24.073   7.153  0.00  0.00    -0.459 OA
BRANCH  18  19
ATOM     19  C   LIG    1       24.869 -24.992   6.306  0.00  0.00    +0.187 C 
ATOM     20  C   LIG    1       23.885 -25.887   5.542  0.00  0.00    +0.099 C 
ATOM     21  C   LIG    1       24.539 -27.168   4.993  0.00  0.00    +0.070 C 
ATOM     22  N   LIG    1       25.122 -27.982   6.166  0.00  0.00    +0.248 N 
ATOM     23  C   LIG    1       26.335 -27.094   6.521  0.00  0.00    +0.070 C 
ATOM     24  C   LIG    1       26.959 -26.833   5.139  0.00  0.00    +0.060 C 
ATOM     25  C   LIG    1       25.588 -29.411   5.712  0.00  0.00    +0.134 C 
ATOM     26  C   LIG    1       24.724 -30.388   6.485  0.00  0.00    +0.056 C 
ATOM     27  C   LIG    1       24.460 -29.666   7.781  0.00  0.00    +0.056 C 
ATOM     28  C   LIG    1       24.128 -28.269   7.307  0.00  0.00    +0.134 C 
ATOM     29  C   LIG    1       25.786 -26.846   4.152  0.00  0.00    +0.060 C 
ATOM     30  C   LIG    1       25.869 -25.777   7.166  0.00  0.00    +0.099 C 
ENDBRANCH  18  19
ENDBRANCH   2  18
TORSDOF 6
ENDMDL
MODEL 6
REMARK VINA RESULT:      -8.0      3.439      7.610
REMARK  Name = *****
REMARK                            x       y       z     vdW  Elec       q    Type
REMARK                         _______ _______ _______ _____ _____    ______ ____
ROOT
ATOM      1  O   LIG    1       22.456 -22.780   6.594  0.00  0.00    -0.247 OA
ATOM      2  C   LIG    1       23.678 -22.932   6.612  0.00  0.00    +0.349 C 
ENDROOT
BRANCH   2   3
ATOM      3  C   LIG    1       24.737 -22.004   5.913  0.00  0.00    +0.213 C 
BRANCH   3   4
ATOM      4  C   LIG    1       25.869 -21.527   6.847  0.00  0.00    -0.001 A 
ATOM      5  C   LIG    1       25.627 -20.750   7.999  0.00  0.00    +0.007 A 
ATOM      6  C   LIG    1       26.679 -20.331   8.829  0.00  0.00    +0.000 A 
ATOM      7  C   LIG    1       27.991 -20.692   8.540  0.00  0.00    +0.000 A 
ATOM      8  C   LIG    1       28.252 -21.498   7.439  0.00  0.00    +0.000 A 
ATOM      9  C   LIG    1       27.203 -21.921   6.617  0.00  0.00    +0.007 A 
ENDBRANCH   3   4
BRANCH   3  10
ATOM     10  C   LIG    1       23.953 -20.840   5.251  0.00  0.00    -0.001 A 
ATOM     11  C   LIG    1       22.879 -20.199   5.895  0.00  0.00    +0.007 A 
ATOM     12  C   LIG    1       22.194 -19.147   5.277  0.00  0.00    +0.000 A 
ATOM     13  C   LIG    1       22.550 -18.735   3.996  0.00  0.00    +0.000 A 
ATOM     14  C   LIG    1       23.584 -19.380   3.325  0.00  0.00    +0.000 A 
ATOM     15  C   LIG    1       24.281 -20.421   3.945  0.00  0.00    +0.007 A 
ENDBRANCH   3  10
BRANCH   3  16
ATOM     16  O   LIG    1       25.396 -22.795   4.906  0.00  0.00    -0.370 OA
ATOM     17  H   LIG    1       25.135 -22.411   4.053  0.00  0.00    +0.212 HD
ENDBRANCH   3  16
ENDBRANCH   2   3
BRANCH   2  18
ATOM     18  O   LIG    1       24.281 -24.031   7.200  0.00  0.00    -0.459 OA
BRANCH  18  19
ATOM     19  C   LIG    1       24.937 -24.968   6.311  0.00  0.00    +0.187 C 
ATOM     20  C   LIG    1       23.886 -25.841   5.612  0.00  0.00    +0.099 C 
ATOM     21  C   LIG    1       24.474 -27.138   5.028  0.00  0.00    +0.070 C 
ATOM     22  N   LIG    1       25.110 -27.964   6.164  0.00  0.00    +0.248 N 
ATOM     23  C   LIG    1       26.364 -27.104   6.441  0.00  0.00    +0.070 C 
ATOM     24  C   LIG    1       26.906 -26.860   5.022  0.00  0.00    +0.060 C 
ATOM     25  C   LIG    1       25.513 -29.404   5.687  0.00  0.00    +0.134 C 
ATOM     26  C   LIG    1       24.676 -30.360   6.515  0.00  0.00    +0.056 C 
ATOM     27  C   LIG    1       24.510 -29.629   7.822  0.00  0.00    +0.056 C 
ATOM     28  C   LIG    1       24.183 -28.225   7.366  0.00  0.00    +0.134 C 
ATOM     29  C   LIG    1       25.675 -26.847   4.110  0.00  0.00    +0.060 C 
ATOM     30  C   LIG    1       25.970 -25.776   7.110  0.00  0.00    +0.099 C 
ENDBRANCH  18  19
ENDBRANCH   2  18
TORSDOF 6
ENDMDL
MODEL 7
REMARK VINA RESULT:      -7.7      2.821      7.639
REMARK  Name = *****
REMARK                            x       y       z     vdW  Elec       q    Type
REMARK                         _______ _______ _______ _____ _____    ______ ____
ROOT
ATOM      1  O   LIG    1       27.552 -23.060   7.223  0.00  0.00    -0.247 OA
ATOM      2  C   LIG    1       26.404 -22.616   7.193  0.00  0.00    +0.349 C 
ENDROOT
BRANCH   2   3
ATOM      3  C   LIG    1       25.998 -21.097   7.199  0.00  0.00    +0.213 C 
BRANCH   3   4
ATOM      4  C   LIG    1       24.899 -20.736   6.178  0.00  0.00    -0.001 A 
ATOM      5  C   LIG    1       25.096 -20.829   4.785  0.00  0.00    +0.007 A 
ATOM      6  C   LIG    1       24.076 -20.493   3.881  0.00  0.00    +0.000 A 
ATOM      7  C   LIG    1       22.832 -20.074   4.346  0.00  0.00    +0.000 A 
ATOM      8  C   LIG    1       22.596 -20.020   5.713  0.00  0.00    +0.000 A 
ATOM      9  C   LIG    1       23.610 -20.362   6.612  0.00  0.00    +0.007 A 
ENDBRANCH   3   4
BRANCH   3  10
ATOM     10  C   LIG    1       27.303 -20.279   7.015  0.00  0.00    -0.001 A 
ATOM     11  C   LIG    1       27.732 -19.827   5.753  0.00  0.00    +0.007 A 
ATOM     12  C   LIG    1       28.910 -19.085   5.617  0.00  0.00    +0.000 A 
ATOM     13  C   LIG    1       29.695 -18.804   6.732  0.00  0.00    +0.000 A 
ATOM     14  C   LIG    1       29.310 -19.273   7.985  0.00  0.00    +0.000 A 
ATOM     15  C   LIG    1       28.126 -20.001   8.127  0.00  0.00    +0.007 A 
ENDBRANCH   3  10
BRANCH   3  16
ATOM     16  O   LIG    1       25.414 -20.819   8.487  0.00  0.00    -0.370 OA
ATOM     17  H   LIG    1       25.188 -21.683   8.868  0.00  0.00    +0.212 HD
ENDBRANCH   3  16
ENDBRANCH   2   3
BRANCH   2  18
ATOM     18  O   LIG    1       25.288 -23.435   7.241  0.00  0.00    -0.459 OA
BRANCH  18  19
ATOM     19  C   LIG    1       25.240 -24.526   6.290  0.00  0.00    +0.187 C 
ATOM     20  C   LIG    1       23.993 -25.383   6.548  0.00  0.00    +0.099 C 
ATOM     21  C   LIG    1       24.089 -26.787   5.925  0.00  0.00    +0.070 C 
ATOM     22  N   LIG    1       25.310 -27.522   6.514  0.00  0.00    +0.248 N 
ATOM     23  C   LIG    1       26.445 -26.747   5.808  0.00  0.00    +0.070 C 
ATOM     24  C   LIG    1       25.960 -26.724   4.349  0.00  0.00    +0.060 C 
ATOM     25  C   LIG    1       25.332 -29.038   6.110  0.00  0.00    +0.134 C 
ATOM     26  C   LIG    1       25.222 -29.811   7.411  0.00  0.00    +0.056 C 
ATOM     27  C   LIG    1       25.917 -28.916   8.404  0.00  0.00    +0.056 C 
ATOM     28  C   LIG    1       25.360 -27.554   8.053  0.00  0.00    +0.134 C 
ATOM     29  C   LIG    1       24.429 -26.715   4.426  0.00  0.00    +0.060 C 
ATOM     30  C   LIG    1       26.552 -25.318   6.369  0.00  0.00    +0.099 C 
ENDBRANCH  18  19
ENDBRANCH   2  18
TORSDOF 6
ENDMDL
MODEL 8
REMARK VINA RESULT:      -7.3      8.314     12.680
REMARK  Name = *****
REMARK                            x       y       z     vdW  Elec       q    Type
REMARK                         _______ _______ _______ _____ _____    ______ ____
ROOT
ATOM      1  O   LIG    1       25.283 -29.612   8.787  0.00  0.00    -0.247 OA
ATOM      2  C   LIG    1       24.443 -30.057   8.005  0.00  0.00    +0.349 C 
ENDROOT
BRANCH   2   3
ATOM      3  C   LIG    1       24.581 -30.132   6.441  0.00  0.00    +0.213 C 
BRANCH   3   4
ATOM      4  C   LIG    1       25.555 -31.223   5.947  0.00  0.00    -0.001 A 
ATOM      5  C   LIG    1       26.488 -31.850   6.798  0.00  0.00    +0.007 A 
ATOM      6  C   LIG    1       27.361 -32.839   6.318  0.00  0.00    +0.000 A 
ATOM      7  C   LIG    1       27.311 -33.237   4.985  0.00  0.00    +0.000 A 
ATOM      8  C   LIG    1       26.369 -32.671   4.137  0.00  0.00    +0.000 A 
ATOM      9  C   LIG    1       25.494 -31.691   4.618  0.00  0.00    +0.007 A 
ENDBRANCH   3   4
BRANCH   3  10
ATOM     10  C   LIG    1       24.952 -28.708   5.950  0.00  0.00    -0.001 A 
ATOM     11  C   LIG    1       26.156 -28.438   5.274  0.00  0.00    +0.007 A 
ATOM     12  C   LIG    1       26.461 -27.145   4.837  0.00  0.00    +0.000 A 
ATOM     13  C   LIG    1       25.584 -26.094   5.090  0.00  0.00    +0.000 A 
ATOM     14  C   LIG    1       24.405 -26.330   5.790  0.00  0.00    +0.000 A 
ATOM     15  C   LIG    1       24.089 -27.623   6.215  0.00  0.00    +0.007 A 
ENDBRANCH   3  10
BRANCH   3  16
ATOM     16  O   LIG    1       23.295 -30.519   5.919  0.00  0.00    -0.370 OA
ATOM     17  H   LIG    1       22.642 -30.216   6.570  0.00  0.00    +0.212 HD
ENDBRANCH   3  16
ENDBRANCH   2   3
BRANCH   2  18
ATOM     18  O   LIG    1       23.191 -30.480   8.420  0.00  0.00    -0.459 OA
BRANCH  18  19
ATOM     19  C   LIG    1       23.129 -31.200   9.675  0.00  0.00    +0.187 C 
ATOM     20  C   LIG    1       22.414 -32.542   9.468  0.00  0.00    +0.099 C 
ATOM     21  C   LIG    1       21.893 -33.155  10.780  0.00  0.00    +0.070 C 
ATOM     22  N   LIG    1       20.899 -32.175  11.437  0.00  0.00    +0.248 N 
ATOM     23  C   LIG    1       21.886 -31.091  11.925  0.00  0.00    +0.070 C 
ATOM     24  C   LIG    1       22.981 -31.934  12.600  0.00  0.00    +0.060 C 
ATOM     25  C   LIG    1       20.145 -32.831  12.648  0.00  0.00    +0.134 C 
ATOM     26  C   LIG    1       18.678 -32.836  12.262  0.00  0.00    +0.056 C 
ATOM     27  C   LIG    1       18.542 -31.605  11.404  0.00  0.00    +0.056 C 
ATOM     28  C   LIG    1       19.762 -31.697  10.515  0.00  0.00    +0.134 C 
ATOM     29  C   LIG    1       23.009 -33.260  11.834  0.00  0.00    +0.060 C 
ATOM     30  C   LIG    1       22.460 -30.308  10.731  0.00  0.00    +0.099 C 
ENDBRANCH  18  19
ENDBRANCH   2  18
TORSDOF 6
ENDMDL
MODEL 9
REMARK VINA RESULT:      -7.3      8.012     10.777
REMARK  Name = *****
REMARK                            x       y       z     vdW  Elec       q    Type
REMARK                         _______ _______ _______ _____ _____    ______ ____
ROOT
ATOM      1  O   LIG    1       22.948 -31.644   8.490  0.00  0.00    -0.247 OA
ATOM      2  C   LIG    1       23.732 -30.744   8.189  0.00  0.00    +0.349 C 
ENDROOT
BRANCH   2   3
ATOM      3  C   LIG    1       24.375 -30.512   6.773  0.00  0.00    +0.213 C 
BRANCH   3   4
ATOM      4  C   LIG    1       25.553 -31.456   6.454  0.00  0.00    -0.001 A 
ATOM      5  C   LIG    1       26.402 -31.976   7.452  0.00  0.00    +0.007 A 
ATOM      6  C   LIG    1       27.466 -32.834   7.129  0.00  0.00    +0.000 A 
ATOM      7  C   LIG    1       27.695 -33.207   5.808  0.00  0.00    +0.000 A 
ATOM      8  C   LIG    1       26.844 -32.748   4.811  0.00  0.00    +0.000 A 
ATOM      9  C   LIG    1       25.780 -31.900   5.134  0.00  0.00    +0.007 A 
ENDBRANCH   3   4
BRANCH   3  10
ATOM     10  C   LIG    1       24.751 -29.009   6.688  0.00  0.00    -0.001 A 
ATOM     11  C   LIG    1       24.118 -28.128   5.790  0.00  0.00    +0.007 A 
ATOM     12  C   LIG    1       24.473 -26.776   5.740  0.00  0.00    +0.000 A 
ATOM     13  C   LIG    1       25.482 -26.284   6.562  0.00  0.00    +0.000 A 
ATOM     14  C   LIG    1       26.148 -27.145   7.431  0.00  0.00    +0.000 A 
ATOM     15  C   LIG    1       25.785 -28.493   7.496  0.00  0.00    +0.007 A 
ENDBRANCH   3  10
BRANCH   3  16
ATOM     16  O   LIG    1       23.369 -30.829   5.792  0.00  0.00    -0.370 OA
ATOM     17  H   LIG    1       23.385 -30.101   5.150  0.00  0.00    +0.212 HD
ENDBRANCH   3  16
ENDBRANCH   2   3
BRANCH   2  18
ATOM     18  O   LIG    1       24.228 -29.847   9.120  0.00  0.00    -0.459 OA
BRANCH  18  19
ATOM     19  C   LIG    1       24.419 -30.344  10.467  0.00  0.00    +0.187 C 
ATOM     20  C   LIG    1       23.588 -29.508  11.450  0.00  0.00    +0.099 C 
ATOM     21  C   LIG    1       24.066 -29.643  12.907  0.00  0.00    +0.070 C 
ATOM     22  N   LIG    1       25.535 -29.182  13.003  0.00  0.00    +0.248 N 
ATOM     23  C   LIG    1       26.226 -30.369  12.297  0.00  0.00    +0.070 C 
ATOM     24  C   LIG    1       25.561 -31.579  12.974  0.00  0.00    +0.060 C 
ATOM     25  C   LIG    1       26.013 -29.061  14.493  0.00  0.00    +0.134 C 
ATOM     26  C   LIG    1       26.357 -27.598  14.696  0.00  0.00    +0.056 C 
ATOM     27  C   LIG    1       26.840 -27.165  13.335  0.00  0.00    +0.056 C 
ATOM     28  C   LIG    1       25.810 -27.784  12.417  0.00  0.00    +0.134 C 
ATOM     29  C   LIG    1       24.146 -31.118  13.338  0.00  0.00    +0.060 C 
ATOM     30  C   LIG    1       25.920 -30.352  10.789  0.00  0.00    +0.099 C 
ENDBRANCH  18  19
ENDBRANCH   2  18
TORSDOF 6
ENDMDL
