MODEL 1
REMARK VINA RESULT:      88.9      0.000      0.000
REMARK  Name = *****
REMARK                            x       y       z     vdW  Elec       q    Type
REMARK                         _______ _______ _______ _____ _____    ______ ____
ROOT
ATOM      1  C   LIG    1       26.274 -20.307   4.219  0.00  0.00    +0.176 C 
ATOM      2  C   LIG    1       26.898 -20.423   5.667  0.00  0.00    +0.156 C 
ATOM      3  C   LIG    1       28.220 -19.622   5.744  0.00  0.00    +0.028 C 
ATOM      4  C   LIG    1       27.929 -18.072   5.709  0.00  0.00    +0.012 C 
ATOM      5  C   LIG    1       28.547 -17.174   4.609  0.00  0.00    +0.019 C 
ATOM      6  C   LIG    1       28.908 -17.927   3.341  0.00  0.00    +0.010 C 
ATOM      7  C   LIG    1       27.933 -15.779   4.155  0.00  0.00    +0.147 C 
ATOM      8  C   LIG    1       26.797 -15.936   3.098  0.00  0.00    +0.004 C 
ATOM      9  C   LIG    1       25.565 -15.381   3.036  0.00  0.00    -0.002 C 
ATOM     10  C   LIG    1       24.499 -15.898   2.154  0.00  0.00    -0.004 C 
ATOM     11  C   LIG    1       23.191 -15.666   2.402  0.00  0.00    -0.023 C 
ATOM     12  C   LIG    1       21.989 -16.454   1.877  0.00  0.00    +0.071 C 
ATOM     13  C   LIG    1       21.405 -17.347   3.001  0.00  0.00    +0.177 C 
ATOM     14  C   LIG    1       20.194 -18.185   2.594  0.00  0.00    +0.052 C 
ATOM     15  O   LIG    1       22.409 -18.311   3.363  0.00  0.00    -0.461 OA
ATOM     16  C   LIG    1       23.073 -18.060   4.538  0.00  0.00    +0.310 C 
ATOM     17  O   LIG    1       22.899 -17.146   5.282  0.00  0.00    -0.251 OA
ATOM     18  C   LIG    1       24.026 -19.206   4.760  0.00  0.00    +0.154 C 
ATOM     19  C   LIG    1       25.325 -19.092   3.975  0.00  0.00    +0.156 C 
ENDROOT
BRANCH   1  21
ATOM     20  C   LIG    1       25.194 -21.571   2.457  0.00  0.00    +0.194 C 
ATOM     21  O   LIG    1       25.570 -21.514   3.829  0.00  0.00    -0.375 OA
ENDBRANCH   1  21
BRANCH  19  22
ATOM     22  O   LIG    1       25.099 -18.997   2.554  0.00  0.00    -0.389 OA
ATOM     23  H   LIG    1       24.306 -19.518   2.334  0.00  0.00    +0.210 HD
ENDBRANCH  19  22
BRANCH   2  24
ATOM     24  O   LIG    1       25.979 -20.108   6.730  0.00  0.00    -0.343 OA
BRANCH  24  25
ATOM     25  C   LIG    1       24.617 -19.702   6.415  0.00  0.00    +0.281 C 
ATOM     26  C   LIG    1       24.395 -19.393   4.914  0.00  0.00    +0.190 C 
ATOM     27  C   LIG    1       22.904 -19.537   4.455  0.00  0.00    +0.121 C 
ATOM     28  C   LIG    1       21.927 -19.315   5.704  0.00  0.00    +0.169 C 
ATOM     29  C   LIG    1       22.307 -20.266   6.881  0.00  0.00    +0.149 C 
ATOM     30  C   LIG    1       21.463 -21.560   6.910  0.00  0.00    +0.040 C 
ATOM     31  O   LIG    1       23.684 -20.657   6.900  0.00  0.00    -0.343 OA
BRANCH  27  32
ATOM     32  N   LIG    1       22.660 -20.754   3.583  0.00  0.00    -0.301 NA
ATOM     33  C   LIG    1       22.800 -20.524   2.155  0.00  0.00    +0.105 C 
ATOM     34  C   LIG    1       21.358 -21.395   3.787  0.00  0.00    +0.105 C 
ENDBRANCH  27  32
BRANCH  26  35
ATOM     35  O   LIG    1       24.935 -18.108   4.560  0.00  0.00    -0.385 OA
ATOM     36  H   LIG    1       24.320 -17.688   3.934  0.00  0.00    +0.210 HD
ENDBRANCH  26  35
BRANCH  28  37
ATOM     37  O   LIG    1       21.981 -17.880   6.064  0.00  0.00    -0.344 OA
BRANCH  37  38
ATOM     38  C   LIG    1       20.740 -17.122   6.097  0.00  0.00    +0.254 C 
ATOM     39  O   LIG    1       20.276 -16.776   4.790  0.00  0.00    -0.346 OA
ATOM     40  C   LIG    1       20.610 -15.466   4.289  0.00  0.00    +0.150 C 
ATOM     41  C   LIG    1       19.397 -14.526   4.377  0.00  0.00    +0.040 C 
ATOM     42  C   LIG    1       21.902 -14.899   4.915  0.00  0.00    +0.174 C 
ATOM     43  C   LIG    1       21.808 -14.780   6.452  0.00  0.00    +0.096 C 
ATOM     44  C   LIG    1       21.442 -13.342   6.875  0.00  0.00    +0.044 C 
ATOM     45  C   LIG    1       20.868 -15.869   7.011  0.00  0.00    +0.098 C 
BRANCH  42  46
ATOM     46  O   LIG    1       22.993 -15.792   4.601  0.00  0.00    -0.386 OA
ATOM     47  H   LIG    1       22.766 -16.659   4.995  0.00  0.00    +0.210 HD
ENDBRANCH  42  46
BRANCH  43  48
ATOM     48  O   LIG    1       23.106 -14.973   7.045  0.00  0.00    -0.386 OA
ATOM     49  H   LIG    1       23.049 -14.645   7.963  0.00  0.00    +0.210 HD
ENDBRANCH  43  48
ENDBRANCH  37  38
ENDBRANCH  28  37
ENDBRANCH  24  25
ENDBRANCH   2  24
BRANCH   3  50
ATOM     50  C   LIG    1       29.348 -20.369   4.973  0.00  0.00    +0.077 C 
BRANCH  50  51
ATOM     51  C   LIG    1       29.150 -20.467   3.473  0.00  0.00    +0.223 C 
ATOM     52  O   LIG    1       28.334 -21.197   2.924  0.00  0.00    -0.301 OA
ENDBRANCH  50  51
ENDBRANCH   3  50
BRANCH   7  53
ATOM     53  O   LIG    1       29.008 -15.045   3.469  0.00  0.00    -0.344 OA
BRANCH  53  54
ATOM     54  C   LIG    1       29.468 -13.820   4.080  0.00  0.00    +0.251 C 
ATOM     55  O   LIG    1       28.993 -13.683   5.420  0.00  0.00    -0.347 OA
ATOM     56  C   LIG    1       27.623 -13.229   5.532  0.00  0.00    +0.135 C 
ATOM     57  C   LIG    1       27.628 -11.806   6.115  0.00  0.00    +0.039 C 
ATOM     58  C   LIG    1       26.832 -13.316   4.179  0.00  0.00    +0.085 C 
ATOM     59  C   LIG    1       27.559 -12.349   3.217  0.00  0.00    +0.026 C 
ATOM     60  C   LIG    1       29.078 -12.551   3.290  0.00  0.00    +0.063 C 
BRANCH  58  61
ATOM     61  N   LIG    1       25.358 -13.096   4.218  0.00  0.00    -0.303 NA
ATOM     62  C   LIG    1       24.957 -12.447   5.483  0.00  0.00    +0.105 C 
ATOM     63  C   LIG    1       24.951 -12.194   3.127  0.00  0.00    +0.105 C 
ENDBRANCH  58  61
ENDBRANCH  53  54
ENDBRANCH   7  53
TORSDOF 15
ENDMDL
