MODEL 1
REMARK VINA RESULT:      -9.8      0.000      0.000
REMARK  Name = *****
REMARK                            x       y       z     vdW  Elec       q    Type
REMARK                         _______ _______ _______ _____ _____    ______ ____
ROOT
ATOM      1  O   LIG    1       29.512 -20.000   5.975  0.00  0.00    -0.271 OA
ATOM      2  C   LIG    1       28.283 -20.046   6.053  0.00  0.00    +0.269 C 
ATOM      3  C   LIG    1       27.521 -20.257   7.389  0.00  0.00    +0.320 C 
ATOM      4  N   LIG    1       26.859 -21.549   7.334  0.00  0.00    -0.243 NA
ATOM      5  C   LIG    1       25.859 -21.713   6.535  0.00  0.00    +0.078 C 
ATOM      6  C   LIG    1       25.308 -20.666   5.620  0.00  0.00    +0.023 A 
ATOM      7  C   LIG    1       26.139 -19.871   4.813  0.00  0.00    +0.043 A 
ATOM      8  C   LIG    1       25.563 -19.074   3.813  0.00  0.00    +0.025 A 
ATOM      9  C   LIG    1       24.175 -19.002   3.674  0.00  0.00    +0.022 A 
ATOM     10  C   LIG    1       23.356 -19.736   4.524  0.00  0.00    +0.042 A 
ATOM     11 CL   LIG    1       21.647 -19.638   4.360  0.00  0.00    -0.084 Cl
ATOM     12  C   LIG    1       23.911 -20.570   5.492  0.00  0.00    +0.032 A 
ATOM     13  N   LIG    1       27.535 -19.819   4.922  0.00  0.00    -0.281 N 
ATOM     14  H   LIG    1       28.085 -19.458   4.153  0.00  0.00    +0.155 HD
ENDROOT
BRANCH   5  15
ATOM     15  C   LIG    1       25.226 -23.072   6.527  0.00  0.00    +0.001 A 
ATOM     16  C   LIG    1       23.838 -23.227   6.624  0.00  0.00    +0.010 A 
ATOM     17  C   LIG    1       23.277 -24.505   6.610  0.00  0.00    +0.001 A 
ATOM     18  C   LIG    1       24.097 -25.627   6.489  0.00  0.00    +0.000 A 
ATOM     19  C   LIG    1       25.478 -25.475   6.371  0.00  0.00    +0.001 A 
ATOM     20  C   LIG    1       26.044 -24.200   6.385  0.00  0.00    +0.010 A 
ENDBRANCH   5  15
BRANCH   3  21
ATOM     21  O   LIG    1       28.413 -20.161   8.487  0.00  0.00    -0.364 OA
ATOM     22  H   LIG    1       28.283 -19.252   8.810  0.00  0.00    +0.212 HD
ENDBRANCH   3  21
TORSDOF 2
ENDMDL
MODEL 2
REMARK VINA RESULT:      -8.5      2.777      4.764
REMARK  Name = *****
REMARK                            x       y       z     vdW  Elec       q    Type
REMARK                         _______ _______ _______ _____ _____    ______ ____
ROOT
ATOM      1  O   LIG    1       22.858 -24.366   6.903  0.00  0.00    -0.271 OA
ATOM      2  C   LIG    1       23.535 -23.550   6.275  0.00  0.00    +0.269 C 
ATOM      3  C   LIG    1       24.901 -23.899   5.623  0.00  0.00    +0.320 C 
ATOM      4  N   LIG    1       25.937 -23.158   6.322  0.00  0.00    -0.243 NA
ATOM      5  C   LIG    1       26.001 -21.877   6.184  0.00  0.00    +0.078 C 
ATOM      6  C   LIG    1       25.066 -21.053   5.356  0.00  0.00    +0.023 A 
ATOM      7  C   LIG    1       23.673 -21.226   5.413  0.00  0.00    +0.043 A 
ATOM      8  C   LIG    1       22.840 -20.280   4.797  0.00  0.00    +0.025 A 
ATOM      9  C   LIG    1       23.385 -19.225   4.062  0.00  0.00    +0.022 A 
ATOM     10  C   LIG    1       24.765 -19.102   3.949  0.00  0.00    +0.042 A 
ATOM     11 CL   LIG    1       25.436 -17.810   3.035  0.00  0.00    -0.084 Cl
ATOM     12  C   LIG    1       25.608 -20.004   4.594  0.00  0.00    +0.032 A 
ATOM     13  N   LIG    1       23.032 -22.289   6.064  0.00  0.00    -0.281 N 
ATOM     14  H   LIG    1       22.052 -22.211   6.307  0.00  0.00    +0.155 HD
ENDROOT
BRANCH   5  15
ATOM     15  C   LIG    1       27.093 -21.177   6.936  0.00  0.00    +0.001 A 
ATOM     16  C   LIG    1       28.413 -21.180   6.468  0.00  0.00    +0.010 A 
ATOM     17  C   LIG    1       29.408 -20.516   7.188  0.00  0.00    +0.001 A 
ATOM     18  C   LIG    1       29.087 -19.841   8.366  0.00  0.00    +0.000 A 
ATOM     19  C   LIG    1       27.769 -19.819   8.822  0.00  0.00    +0.001 A 
ATOM     20  C   LIG    1       26.771 -20.482   8.107  0.00  0.00    +0.010 A 
ENDBRANCH   5  15
BRANCH   3  21
ATOM     21  O   LIG    1       25.125 -25.298   5.665  0.00  0.00    -0.364 OA
ATOM     22  H   LIG    1       25.928 -25.418   5.127  0.00  0.00    +0.212 HD
ENDBRANCH   3  21
TORSDOF 2
ENDMDL
MODEL 3
REMARK VINA RESULT:      -8.3      1.756      4.494
REMARK  Name = *****
REMARK                            x       y       z     vdW  Elec       q    Type
REMARK                         _______ _______ _______ _____ _____    ______ ____
ROOT
ATOM      1  O   LIG    1       28.706 -19.726   8.420  0.00  0.00    -0.271 OA
ATOM      2  C   LIG    1       28.068 -20.433   7.637  0.00  0.00    +0.269 C 
ATOM      3  C   LIG    1       28.166 -20.296   6.093  0.00  0.00    +0.320 C 
ATOM      4  N   LIG    1       26.884 -19.823   5.599  0.00  0.00    -0.243 NA
ATOM      5  C   LIG    1       25.862 -20.608   5.640  0.00  0.00    +0.078 C 
ATOM      6  C   LIG    1       25.869 -22.004   6.180  0.00  0.00    +0.023 A 
ATOM      7  C   LIG    1       26.475 -22.324   7.407  0.00  0.00    +0.043 A 
ATOM      8  C   LIG    1       26.253 -23.588   7.971  0.00  0.00    +0.025 A 
ATOM      9  C   LIG    1       25.512 -24.552   7.284  0.00  0.00    +0.022 A 
ATOM     10  C   LIG    1       24.977 -24.253   6.036  0.00  0.00    +0.042 A 
ATOM     11 CL   LIG    1       24.075 -25.443   5.186  0.00  0.00    -0.084 Cl
ATOM     12  C   LIG    1       25.146 -22.986   5.482  0.00  0.00    +0.032 A 
ATOM     13  N   LIG    1       27.293 -21.451   8.138  0.00  0.00    -0.281 N 
ATOM     14  H   LIG    1       27.464 -21.629   9.120  0.00  0.00    +0.155 HD
ENDROOT
BRANCH   5  15
ATOM     15  C   LIG    1       24.571 -20.054   5.117  0.00  0.00    +0.001 A 
ATOM     16  C   LIG    1       23.364 -20.256   5.800  0.00  0.00    +0.010 A 
ATOM     17  C   LIG    1       22.179 -19.725   5.289  0.00  0.00    +0.001 A 
ATOM     18  C   LIG    1       22.196 -18.984   4.107  0.00  0.00    +0.000 A 
ATOM     19  C   LIG    1       23.399 -18.763   3.437  0.00  0.00    +0.001 A 
ATOM     20  C   LIG    1       24.587 -19.293   3.943  0.00  0.00    +0.010 A 
ENDBRANCH   5  15
BRANCH   3  21
ATOM     21  O   LIG    1       29.228 -19.425   5.741  0.00  0.00    -0.364 OA
ATOM     22  H   LIG    1       29.023 -19.173   4.823  0.00  0.00    +0.212 HD
ENDBRANCH   3  21
TORSDOF 2
ENDMDL
MODEL 4
REMARK VINA RESULT:      -7.8      3.598      4.631
REMARK  Name = *****
REMARK                            x       y       z     vdW  Elec       q    Type
REMARK                         _______ _______ _______ _____ _____    ______ ____
ROOT
ATOM      1  O   LIG    1       21.928 -20.623   5.012  0.00  0.00    -0.271 OA
ATOM      2  C   LIG    1       23.095 -20.938   5.254  0.00  0.00    +0.269 C 
ATOM      3  C   LIG    1       24.082 -21.448   4.169  0.00  0.00    +0.320 C 
ATOM      4  N   LIG    1       24.391 -22.838   4.457  0.00  0.00    -0.243 NA
ATOM      5  C   LIG    1       25.106 -23.125   5.492  0.00  0.00    +0.078 C 
ATOM      6  C   LIG    1       25.652 -22.128   6.464  0.00  0.00    +0.023 A 
ATOM      7  C   LIG    1       24.863 -21.092   6.991  0.00  0.00    +0.043 A 
ATOM      8  C   LIG    1       25.354 -20.334   8.063  0.00  0.00    +0.025 A 
ATOM      9  C   LIG    1       26.645 -20.545   8.549  0.00  0.00    +0.022 A 
ATOM     10  C   LIG    1       27.449 -21.523   7.975  0.00  0.00    +0.042 A 
ATOM     11 CL   LIG    1       29.044 -21.775   8.566  0.00  0.00    -0.084 Cl
ATOM     12  C   LIG    1       26.961 -22.318   6.941  0.00  0.00    +0.032 A 
ATOM     13  N   LIG    1       23.584 -20.756   6.525  0.00  0.00    -0.281 N 
ATOM     14  H   LIG    1       22.966 -20.205   7.109  0.00  0.00    +0.155 HD
ENDROOT
BRANCH   5  15
ATOM     15  C   LIG    1       25.384 -24.579   5.730  0.00  0.00    +0.001 A 
ATOM     16  C   LIG    1       25.734 -25.052   7.001  0.00  0.00    +0.010 A 
ATOM     17  C   LIG    1       25.985 -26.412   7.192  0.00  0.00    +0.001 A 
ATOM     18  C   LIG    1       25.875 -27.301   6.123  0.00  0.00    +0.000 A 
ATOM     19  C   LIG    1       25.506 -26.835   4.861  0.00  0.00    +0.001 A 
ATOM     20  C   LIG    1       25.256 -25.477   4.664  0.00  0.00    +0.010 A 
ENDBRANCH   5  15
BRANCH   3  21
ATOM     21  O   LIG    1       23.524 -21.282   2.876  0.00  0.00    -0.364 OA
ATOM     22  H   LIG    1       22.564 -21.339   3.032  0.00  0.00    +0.212 HD
ENDBRANCH   3  21
TORSDOF 2
ENDMDL
MODEL 5
REMARK VINA RESULT:      -7.4      3.271      5.367
REMARK  Name = *****
REMARK                            x       y       z     vdW  Elec       q    Type
REMARK                         _______ _______ _______ _____ _____    ______ ____
ROOT
ATOM      1  O   LIG    1       23.099 -20.225   3.682  0.00  0.00    -0.271 OA
ATOM      2  C   LIG    1       23.591 -20.978   4.525  0.00  0.00    +0.269 C 
ATOM      3  C   LIG    1       23.579 -20.674   6.048  0.00  0.00    +0.320 C 
ATOM      4  N   LIG    1       24.950 -20.453   6.475  0.00  0.00    -0.243 NA
ATOM      5  C   LIG    1       25.771 -21.447   6.502  0.00  0.00    +0.078 C 
ATOM      6  C   LIG    1       25.437 -22.851   6.107  0.00  0.00    +0.023 A 
ATOM      7  C   LIG    1       24.734 -23.145   4.926  0.00  0.00    +0.043 A 
ATOM      8  C   LIG    1       24.651 -24.475   4.491  0.00  0.00    +0.025 A 
ATOM      9  C   LIG    1       25.184 -25.509   5.263  0.00  0.00    +0.022 A 
ATOM     10  C   LIG    1       25.815 -25.218   6.468  0.00  0.00    +0.042 A 
ATOM     11 CL   LIG    1       26.460 -26.493   7.424  0.00  0.00    -0.084 Cl
ATOM     12  C   LIG    1       25.948 -23.899   6.892  0.00  0.00    +0.032 A 
ATOM     13  N   LIG    1       24.104 -22.186   4.120  0.00  0.00    -0.281 N 
ATOM     14  H   LIG    1       23.864 -22.415   3.164  0.00  0.00    +0.155 HD
ENDROOT
BRANCH   5  15
ATOM     15  C   LIG    1       27.170 -21.148   6.950  0.00  0.00    +0.001 A 
ATOM     16  C   LIG    1       27.689 -21.702   8.127  0.00  0.00    +0.010 A 
ATOM     17  C   LIG    1       28.997 -21.406   8.517  0.00  0.00    +0.001 A 
ATOM     18  C   LIG    1       29.790 -20.570   7.730  0.00  0.00    +0.000 A 
ATOM     19  C   LIG    1       29.282 -20.034   6.547  0.00  0.00    +0.001 A 
ATOM     20  C   LIG    1       27.975 -20.326   6.154  0.00  0.00    +0.010 A 
ENDBRANCH   5  15
BRANCH   3  21
ATOM     21  O   LIG    1       22.749 -19.558   6.323  0.00  0.00    -0.364 OA
ATOM     22  H   LIG    1       22.712 -19.085   5.472  0.00  0.00    +0.212 HD
ENDBRANCH   3  21
TORSDOF 2
ENDMDL
MODEL 6
REMARK VINA RESULT:      -7.3      3.430      5.706
REMARK  Name = *****
REMARK                            x       y       z     vdW  Elec       q    Type
REMARK                         _______ _______ _______ _____ _____    ______ ____
ROOT
ATOM      1  O   LIG    1       23.672 -25.505   5.764  0.00  0.00    -0.271 OA
ATOM      2  C   LIG    1       24.047 -24.429   6.234  0.00  0.00    +0.269 C 
ATOM      3  C   LIG    1       23.096 -23.441   6.963  0.00  0.00    +0.320 C 
ATOM      4  N   LIG    1       22.983 -22.241   6.152  0.00  0.00    -0.243 NA
ATOM      5  C   LIG    1       24.000 -21.455   6.041  0.00  0.00    +0.078 C 
ATOM      6  C   LIG    1       25.334 -21.678   6.680  0.00  0.00    +0.023 A 
ATOM      7  C   LIG    1       25.981 -22.925   6.636  0.00  0.00    +0.043 A 
ATOM      8  C   LIG    1       27.319 -23.017   7.044  0.00  0.00    +0.025 A 
ATOM      9  C   LIG    1       27.979 -21.906   7.571  0.00  0.00    +0.022 A 
ATOM     10  C   LIG    1       27.309 -20.692   7.681  0.00  0.00    +0.042 A 
ATOM     11 CL   LIG    1       28.118 -19.326   8.341  0.00  0.00    -0.084 Cl
ATOM     12  C   LIG    1       25.995 -20.569   7.236  0.00  0.00    +0.032 A 
ATOM     13  N   LIG    1       25.383 -24.112   6.191  0.00  0.00    -0.281 N 
ATOM     14  H   LIG    1       25.964 -24.896   5.922  0.00  0.00    +0.155 HD
ENDROOT
BRANCH   5  15
ATOM     15  C   LIG    1       23.814 -20.237   5.187  0.00  0.00    +0.001 A 
ATOM     16  C   LIG    1       24.799 -19.831   4.278  0.00  0.00    +0.010 A 
ATOM     17  C   LIG    1       24.596 -18.693   3.494  0.00  0.00    +0.001 A 
ATOM     18  C   LIG    1       23.410 -17.968   3.608  0.00  0.00    +0.000 A 
ATOM     19  C   LIG    1       22.419 -18.383   4.497  0.00  0.00    +0.001 A 
ATOM     20  C   LIG    1       22.617 -19.518   5.283  0.00  0.00    +0.010 A 
ENDBRANCH   5  15
BRANCH   3  21
ATOM     21  O   LIG    1       21.836 -24.048   7.195  0.00  0.00    -0.364 OA
ATOM     22  H   LIG    1       21.982 -24.581   7.997  0.00  0.00    +0.212 HD
ENDBRANCH   3  21
TORSDOF 2
ENDMDL
MODEL 7
REMARK VINA RESULT:      -7.3      7.139     10.078
REMARK  Name = *****
REMARK                            x       y       z     vdW  Elec       q    Type
REMARK                         _______ _______ _______ _____ _____    ______ ____
ROOT
ATOM      1  O   LIG    1       27.503 -32.747   5.358  0.00  0.00    -0.271 OA
ATOM      2  C   LIG    1       26.610 -32.178   5.990  0.00  0.00    +0.269 C 
ATOM      3  C   LIG    1       25.277 -31.711   5.345  0.00  0.00    +0.320 C 
ATOM      4  N   LIG    1       25.247 -30.259   5.370  0.00  0.00    -0.243 NA
ATOM      5  C   LIG    1       25.118 -29.649   6.499  0.00  0.00    +0.078 C 
ATOM      6  C   LIG    1       25.006 -30.319   7.832  0.00  0.00    +0.023 A 
ATOM      7  C   LIG    1       25.865 -31.364   8.214  0.00  0.00    +0.043 A 
ATOM      8  C   LIG    1       25.868 -31.795   9.548  0.00  0.00    +0.025 A 
ATOM      9  C   LIG    1       24.969 -31.256  10.470  0.00  0.00    +0.022 A 
ATOM     10  C   LIG    1       24.072 -30.274  10.068  0.00  0.00    +0.042 A 
ATOM     11 CL   LIG    1       22.957 -29.619  11.201  0.00  0.00    -0.084 Cl
ATOM     12  C   LIG    1       24.086 -29.799   8.759  0.00  0.00    +0.032 A 
ATOM     13  N   LIG    1       26.752 -32.017   7.346  0.00  0.00    -0.281 N 
ATOM     14  H   LIG    1       27.524 -32.550   7.727  0.00  0.00    +0.155 HD
ENDROOT
BRANCH   5  15
ATOM     15  C   LIG    1       25.098 -28.150   6.451  0.00  0.00    +0.001 A 
ATOM     16  C   LIG    1       26.020 -27.389   7.180  0.00  0.00    +0.010 A 
ATOM     17  C   LIG    1       25.977 -25.995   7.113  0.00  0.00    +0.001 A 
ATOM     18  C   LIG    1       25.026 -25.361   6.313  0.00  0.00    +0.000 A 
ATOM     19  C   LIG    1       24.121 -26.118   5.570  0.00  0.00    +0.001 A 
ATOM     20  C   LIG    1       24.158 -27.511   5.634  0.00  0.00    +0.010 A 
ENDBRANCH   5  15
BRANCH   3  21
ATOM     21  O   LIG    1       25.158 -32.224   4.028  0.00  0.00    -0.364 OA
ATOM     22  H   LIG    1       26.074 -32.453   3.788  0.00  0.00    +0.212 HD
ENDBRANCH   3  21
TORSDOF 2
ENDMDL
MODEL 8
REMARK VINA RESULT:      -7.1      7.247      9.092
REMARK  Name = *****
REMARK                            x       y       z     vdW  Elec       q    Type
REMARK                         _______ _______ _______ _____ _____    ______ ____
ROOT
ATOM      1  O   LIG    1       24.161 -32.608   5.717  0.00  0.00    -0.271 OA
ATOM      2  C   LIG    1       24.704 -31.551   6.041  0.00  0.00    +0.269 C 
ATOM      3  C   LIG    1       26.137 -31.477   6.636  0.00  0.00    +0.320 C 
ATOM      4  N   LIG    1       26.032 -31.025   8.013  0.00  0.00    -0.243 NA
ATOM      5  C   LIG    1       25.681 -29.807   8.252  0.00  0.00    +0.078 C 
ATOM      6  C   LIG    1       25.347 -28.786   7.211  0.00  0.00    +0.023 A 
ATOM      7  C   LIG    1       24.499 -29.078   6.128  0.00  0.00    +0.043 A 
ATOM      8  C   LIG    1       24.039 -28.031   5.318  0.00  0.00    +0.025 A 
ATOM      9  C   LIG    1       24.482 -26.723   5.526  0.00  0.00    +0.022 A 
ATOM     10  C   LIG    1       25.378 -26.453   6.554  0.00  0.00    +0.042 A 
ATOM     11 CL   LIG    1       25.933 -24.845   6.803  0.00  0.00    -0.084 Cl
ATOM     12  C   LIG    1       25.810 -27.473   7.399  0.00  0.00    +0.032 A 
ATOM     13  N   LIG    1       24.056 -30.365   5.793  0.00  0.00    -0.281 N 
ATOM     14  H   LIG    1       23.247 -30.477   5.196  0.00  0.00    +0.155 HD
ENDROOT
BRANCH   5  15
ATOM     15  C   LIG    1       25.590 -29.408   9.695  0.00  0.00    +0.001 A 
ATOM     16  C   LIG    1       24.486 -29.765  10.478  0.00  0.00    +0.010 A 
ATOM     17  C   LIG    1       24.431 -29.381  11.820  0.00  0.00    +0.001 A 
ATOM     18  C   LIG    1       25.480 -28.654  12.382  0.00  0.00    +0.000 A 
ATOM     19  C   LIG    1       26.590 -28.315  11.609  0.00  0.00    +0.001 A 
ATOM     20  C   LIG    1       26.649 -28.695  10.268  0.00  0.00    +0.010 A 
ENDBRANCH   5  15
BRANCH   3  21
ATOM     21  O   LIG    1       26.778 -32.738   6.537  0.00  0.00    -0.364 OA
ATOM     22  H   LIG    1       27.311 -32.661   5.725  0.00  0.00    +0.212 HD
ENDBRANCH   3  21
TORSDOF 2
ENDMDL
