MODEL 1
REMARK VINA RESULT:      -5.1      0.000      0.000
REMARK  Name = *****
REMARK                            x       y       z     vdW  Elec       q    Type
REMARK                         _______ _______ _______ _____ _____    ______ ____
ROOT
ATOM      1  N   LIG    1       27.682 -20.043   5.240  0.00  0.00    -0.272 N 
ATOM      2  H   LIG    1       26.969 -19.625   4.652  0.00  0.00    +0.258 HD
ENDROOT
BRANCH   1   5
ATOM      3  N   LIG    1       29.020 -18.168   4.833  0.00  0.00    -0.130 NA
ATOM      4  H   LIG    1       29.813 -17.703   5.270  0.00  0.00    +0.306 HD
ATOM      5  C   LIG    1       28.680 -19.185   5.535  0.00  0.00    +0.377 C 
BRANCH   5   6
ATOM      6  N   LIG    1       29.275 -19.525   6.696  0.00  0.00    -0.289 N 
ATOM      7  H   LIG    1       28.721 -20.191   7.225  0.00  0.00    +0.255 HD
ATOM      8  H   LIG    1       29.548 -18.744   7.277  0.00  0.00    +0.255 HD
ENDBRANCH   5   6
ENDBRANCH   1   5
BRANCH   1   9
ATOM      9  C   LIG    1       27.117 -20.919   6.248  0.00  0.00    +0.231 C 
BRANCH   9  10
ATOM     10  C   LIG    1       25.609 -20.822   6.188  0.00  0.00    -0.013 A 
ATOM     11  C   LIG    1       24.991 -19.975   5.251  0.00  0.00    +0.021 A 
ATOM     12  C   LIG    1       23.599 -19.900   5.182  0.00  0.00    +0.014 A 
ATOM     13  I   LIG    1       22.701 -18.666   3.771  0.00  0.00    -0.044 I 
ATOM     14  C   LIG    1       22.809 -20.655   6.047  0.00  0.00    +0.014 A 
ATOM     15  C   LIG    1       23.414 -21.486   6.989  0.00  0.00    +0.001 A 
ATOM     16  C   LIG    1       24.806 -21.569   7.062  0.00  0.00    +0.007 A 
ENDBRANCH   9  10
ENDBRANCH   1   9
TORSDOF 4
ENDMDL
MODEL 2
REMARK VINA RESULT:      -4.7      3.563      4.798
REMARK  Name = *****
REMARK                            x       y       z     vdW  Elec       q    Type
REMARK                         _______ _______ _______ _____ _____    ______ ____
ROOT
ATOM      1  N   LIG    1       23.823 -18.947   3.765  0.00  0.00    -0.272 N 
ATOM      2  H   LIG    1       23.811 -18.385   2.922  0.00  0.00    +0.258 HD
ENDROOT
BRANCH   1   5
ATOM      3  N   LIG    1       21.976 -19.925   4.813  0.00  0.00    -0.130 NA
ATOM      4  H   LIG    1       21.126 -19.614   5.280  0.00  0.00    +0.306 HD
ATOM      5  C   LIG    1       22.654 -18.905   4.434  0.00  0.00    +0.377 C 
BRANCH   5   6
ATOM      6  N   LIG    1       22.289 -17.632   4.680  0.00  0.00    -0.289 N 
ATOM      7  H   LIG    1       21.773 -17.547   5.551  0.00  0.00    +0.255 HD
ATOM      8  H   LIG    1       21.794 -17.178   3.925  0.00  0.00    +0.255 HD
ENDBRANCH   5   6
ENDBRANCH   1   5
BRANCH   1   9
ATOM      9  C   LIG    1       24.545 -20.192   3.584  0.00  0.00    +0.231 C 
BRANCH   9  10
ATOM     10  C   LIG    1       25.413 -20.434   4.799  0.00  0.00    -0.013 A 
ATOM     11  C   LIG    1       26.689 -19.850   4.885  0.00  0.00    +0.021 A 
ATOM     12  C   LIG    1       27.483 -20.057   6.013  0.00  0.00    +0.014 A 
ATOM     13  I   LIG    1       29.354 -19.162   6.138  0.00  0.00    -0.044 I 
ATOM     14  C   LIG    1       27.023 -20.852   7.062  0.00  0.00    +0.014 A 
ATOM     15  C   LIG    1       25.765 -21.448   6.978  0.00  0.00    +0.001 A 
ATOM     16  C   LIG    1       24.963 -21.242   5.853  0.00  0.00    +0.007 A 
ENDBRANCH   9  10
ENDBRANCH   1   9
TORSDOF 4
ENDMDL
MODEL 3
REMARK VINA RESULT:      -4.3      3.051      3.859
REMARK  Name = *****
REMARK                            x       y       z     vdW  Elec       q    Type
REMARK                         _______ _______ _______ _____ _____    ______ ____
ROOT
ATOM      1  N   LIG    1       26.780 -17.178   3.658  0.00  0.00    -0.272 N 
ATOM      2  H   LIG    1       27.696 -17.596   3.541  0.00  0.00    +0.258 HD
ENDROOT
BRANCH   1   5
ATOM      3  N   LIG    1       27.880 -15.117   3.733  0.00  0.00    -0.130 NA
ATOM      4  H   LIG    1       27.627 -14.130   3.729  0.00  0.00    +0.306 HD
ATOM      5  C   LIG    1       26.819 -15.831   3.655  0.00  0.00    +0.377 C 
BRANCH   5   6
ATOM      6  N   LIG    1       25.579 -15.316   3.536  0.00  0.00    -0.289 N 
ATOM      7  H   LIG    1       24.950 -15.675   4.248  0.00  0.00    +0.255 HD
ATOM      8  H   LIG    1       25.168 -15.407   2.617  0.00  0.00    +0.255 HD
ENDBRANCH   5   6
ENDBRANCH   1   5
BRANCH   1   9
ATOM      9  C   LIG    1       25.750 -17.905   2.940  0.00  0.00    +0.231 C 
BRANCH   9  10
ATOM     10  C   LIG    1       25.128 -18.920   3.874  0.00  0.00    -0.013 A 
ATOM     11  C   LIG    1       25.928 -19.611   4.801  0.00  0.00    +0.021 A 
ATOM     12  C   LIG    1       25.353 -20.533   5.676  0.00  0.00    +0.014 A 
ATOM     13  I   LIG    1       26.544 -21.524   7.062  0.00  0.00    -0.044 I 
ATOM     14  C   LIG    1       23.983 -20.785   5.633  0.00  0.00    +0.014 A 
ATOM     15  C   LIG    1       23.185 -20.116   4.705  0.00  0.00    +0.001 A 
ATOM     16  C   LIG    1       23.754 -19.189   3.829  0.00  0.00    +0.007 A 
ENDBRANCH   9  10
ENDBRANCH   1   9
TORSDOF 4
ENDMDL
MODEL 4
REMARK VINA RESULT:      -4.2      4.927      6.135
REMARK  Name = *****
REMARK                            x       y       z     vdW  Elec       q    Type
REMARK                         _______ _______ _______ _____ _____    ______ ____
ROOT
ATOM      1  N   LIG    1       24.778 -18.303   3.577  0.00  0.00    -0.272 N 
ATOM      2  H   LIG    1       23.957 -18.023   3.054  0.00  0.00    +0.258 HD
ENDROOT
BRANCH   1   5
ATOM      3  N   LIG    1       23.777 -20.396   3.869  0.00  0.00    -0.130 NA
ATOM      4  H   LIG    1       24.070 -21.342   4.108  0.00  0.00    +0.306 HD
ATOM      5  C   LIG    1       24.801 -19.626   3.839  0.00  0.00    +0.377 C 
BRANCH   5   6
ATOM      6  N   LIG    1       26.063 -20.051   4.047  0.00  0.00    -0.289 N 
ATOM      7  H   LIG    1       26.689 -19.283   4.270  0.00  0.00    +0.255 HD
ATOM      8  H   LIG    1       26.446 -20.623   3.307  0.00  0.00    +0.255 HD
ENDBRANCH   5   6
ENDBRANCH   1   5
BRANCH   1   9
ATOM      9  C   LIG    1       25.970 -17.599   3.145  0.00  0.00    +0.231 C 
BRANCH   9  10
ATOM     10  C   LIG    1       25.832 -16.137   3.510  0.00  0.00    -0.013 A 
ATOM     11  C   LIG    1       26.971 -15.318   3.592  0.00  0.00    +0.021 A 
ATOM     12  C   LIG    1       26.843 -13.966   3.910  0.00  0.00    +0.014 A 
ATOM     13  I   LIG    1       28.534 -12.760   3.997  0.00  0.00    -0.044 I 
ATOM     14  C   LIG    1       25.586 -13.417   4.160  0.00  0.00    +0.014 A 
ATOM     15  C   LIG    1       24.453 -14.226   4.096  0.00  0.00    +0.001 A 
ATOM     16  C   LIG    1       24.574 -15.580   3.775  0.00  0.00    +0.007 A 
ENDBRANCH   9  10
ENDBRANCH   1   9
TORSDOF 4
ENDMDL
MODEL 5
REMARK VINA RESULT:      -4.1      4.526      5.906
REMARK  Name = *****
REMARK                            x       y       z     vdW  Elec       q    Type
REMARK                         _______ _______ _______ _____ _____    ______ ____
ROOT
ATOM      1  N   LIG    1       26.284 -18.390   3.681  0.00  0.00    -0.272 N 
ATOM      2  H   LIG    1       27.008 -17.978   4.259  0.00  0.00    +0.258 HD
ENDROOT
BRANCH   1   5
ATOM      3  N   LIG    1       24.824 -20.214   3.788  0.00  0.00    -0.130 NA
ATOM      4  H   LIG    1       24.779 -21.112   4.265  0.00  0.00    +0.306 HD
ATOM      5  C   LIG    1       25.909 -19.612   4.111  0.00  0.00    +0.377 C 
BRANCH   5   6
ATOM      6  N   LIG    1       26.845 -20.143   4.921  0.00  0.00    -0.289 N 
ATOM      7  H   LIG    1       26.693 -21.134   5.078  0.00  0.00    +0.255 HD
ATOM      8  H   LIG    1       26.974 -19.657   5.799  0.00  0.00    +0.255 HD
ENDBRANCH   5   6
ENDBRANCH   1   5
BRANCH   1   9
ATOM      9  C   LIG    1       25.308 -17.411   3.244  0.00  0.00    +0.231 C 
BRANCH   9  10
ATOM     10  C   LIG    1       25.838 -16.026   3.545  0.00  0.00    -0.013 A 
ATOM     11  C   LIG    1       24.952 -14.943   3.677  0.00  0.00    +0.021 A 
ATOM     12  C   LIG    1       25.438 -13.669   3.974  0.00  0.00    +0.014 A 
ATOM     13  I   LIG    1       24.112 -12.084   4.197  0.00  0.00    -0.044 I 
ATOM     14  C   LIG    1       26.806 -13.456   4.132  0.00  0.00    +0.014 A 
ATOM     15  C   LIG    1       27.694 -14.522   3.986  0.00  0.00    +0.001 A 
ATOM     16  C   LIG    1       27.213 -15.801   3.693  0.00  0.00    +0.007 A 
ENDBRANCH   9  10
ENDBRANCH   1   9
TORSDOF 4
ENDMDL
MODEL 6
REMARK VINA RESULT:      -3.7      3.895      4.995
REMARK  Name = *****
REMARK                            x       y       z     vdW  Elec       q    Type
REMARK                         _______ _______ _______ _____ _____    ______ ____
ROOT
ATOM      1  N   LIG    1       25.673 -19.186   3.661  0.00  0.00    -0.272 N 
ATOM      2  H   LIG    1       26.336 -18.427   3.555  0.00  0.00    +0.258 HD
ENDROOT
BRANCH   1   5
ATOM      3  N   LIG    1       27.194 -20.097   5.185  0.00  0.00    -0.130 NA
ATOM      4  H   LIG    1       27.256 -20.918   5.785  0.00  0.00    +0.306 HD
ATOM      5  C   LIG    1       26.078 -20.110   4.555  0.00  0.00    +0.377 C 
BRANCH   5   6
ATOM      6  N   LIG    1       25.134 -21.057   4.726  0.00  0.00    -0.289 N 
ATOM      7  H   LIG    1       25.510 -21.891   5.166  0.00  0.00    +0.255 HD
ATOM      8  H   LIG    1       24.616 -21.296   3.891  0.00  0.00    +0.255 HD
ENDBRANCH   5   6
ENDBRANCH   1   5
BRANCH   1   9
ATOM      9  C   LIG    1       24.299 -18.724   3.624  0.00  0.00    +0.231 C 
BRANCH   9  10
ATOM     10  C   LIG    1       24.286 -17.221   3.799  0.00  0.00    -0.013 A 
ATOM     11  C   LIG    1       25.417 -16.459   3.456  0.00  0.00    +0.021 A 
ATOM     12  C   LIG    1       25.400 -15.071   3.599  0.00  0.00    +0.014 A 
ATOM     13  I   LIG    1       27.069 -13.956   3.059  0.00  0.00    -0.044 I 
ATOM     14  C   LIG    1       24.266 -14.428   4.093  0.00  0.00    +0.014 A 
ATOM     15  C   LIG    1       23.146 -15.177   4.451  0.00  0.00    +0.001 A 
ATOM     16  C   LIG    1       23.155 -16.567   4.306  0.00  0.00    +0.007 A 
ENDBRANCH   9  10
ENDBRANCH   1   9
TORSDOF 4
ENDMDL
MODEL 7
REMARK VINA RESULT:      -3.6      2.718      3.693
REMARK  Name = *****
REMARK                            x       y       z     vdW  Elec       q    Type
REMARK                         _______ _______ _______ _____ _____    ______ ____
ROOT
ATOM      1  N   LIG    1       27.105 -17.139   3.588  0.00  0.00    -0.272 N 
ATOM      2  H   LIG    1       28.007 -17.373   3.188  0.00  0.00    +0.258 HD
ENDROOT
BRANCH   1   5
ATOM      3  N   LIG    1       25.736 -15.303   3.118  0.00  0.00    -0.130 NA
ATOM      4  H   LIG    1       25.803 -14.287   3.155  0.00  0.00    +0.306 HD
ATOM      5  C   LIG    1       26.836 -15.820   3.525  0.00  0.00    +0.377 C 
BRANCH   5   6
ATOM      6  N   LIG    1       27.881 -15.096   3.973  0.00  0.00    -0.289 N 
ATOM      7  H   LIG    1       28.769 -15.537   3.753  0.00  0.00    +0.255 HD
ATOM      8  H   LIG    1       27.837 -14.846   4.951  0.00  0.00    +0.255 HD
ENDBRANCH   5   6
ENDBRANCH   1   5
BRANCH   1   9
ATOM      9  C   LIG    1       26.094 -18.131   3.279  0.00  0.00    +0.231 C 
BRANCH   9  10
ATOM     10  C   LIG    1       26.061 -19.156   4.392  0.00  0.00    -0.013 A 
ATOM     11  C   LIG    1       24.843 -19.738   4.782  0.00  0.00    +0.021 A 
ATOM     12  C   LIG    1       24.814 -20.697   5.795  0.00  0.00    +0.014 A 
ATOM     13  I   LIG    1       23.008 -21.571   6.340  0.00  0.00    -0.044 I 
ATOM     14  C   LIG    1       25.991 -21.081   6.435  0.00  0.00    +0.014 A 
ATOM     15  C   LIG    1       27.202 -20.497   6.065  0.00  0.00    +0.001 A 
ATOM     16  C   LIG    1       27.238 -19.539   5.050  0.00  0.00    +0.007 A 
ENDBRANCH   9  10
ENDBRANCH   1   9
TORSDOF 4
ENDMDL
MODEL 8
REMARK VINA RESULT:      -3.4      3.003      3.701
REMARK  Name = *****
REMARK                            x       y       z     vdW  Elec       q    Type
REMARK                         _______ _______ _______ _____ _____    ______ ____
ROOT
ATOM      1  N   LIG    1       25.956 -16.302   3.328  0.00  0.00    -0.272 N 
ATOM      2  H   LIG    1       25.295 -16.178   4.086  0.00  0.00    +0.258 HD
ENDROOT
BRANCH   1   5
ATOM      3  N   LIG    1       26.486 -14.333   2.184  0.00  0.00    -0.130 NA
ATOM      4  H   LIG    1       27.206 -13.614   2.222  0.00  0.00    +0.306 HD
ATOM      5  C   LIG    1       26.700 -15.201   3.102  0.00  0.00    +0.377 C 
BRANCH   5   6
ATOM      6  N   LIG    1       27.707 -15.113   3.994  0.00  0.00    -0.289 N 
ATOM      7  H   LIG    1       27.996 -14.151   4.145  0.00  0.00    +0.255 HD
ATOM      8  H   LIG    1       28.505 -15.700   3.794  0.00  0.00    +0.255 HD
ENDBRANCH   5   6
ENDBRANCH   1   5
BRANCH   1   9
ATOM      9  C   LIG    1       26.548 -17.626   3.329  0.00  0.00    +0.231 C 
BRANCH   9  10
ATOM     10  C   LIG    1       25.523 -18.618   3.834  0.00  0.00    -0.013 A 
ATOM     11  C   LIG    1       24.150 -18.359   3.677  0.00  0.00    +0.021 A 
ATOM     12  C   LIG    1       23.204 -19.281   4.125  0.00  0.00    +0.014 A 
ATOM     13  I   LIG    1       21.179 -18.898   3.857  0.00  0.00    -0.044 I 
ATOM     14  C   LIG    1       23.611 -20.463   4.743  0.00  0.00    +0.014 A 
ATOM     15  C   LIG    1       24.970 -20.721   4.918  0.00  0.00    +0.001 A 
ATOM     16  C   LIG    1       25.922 -19.803   4.467  0.00  0.00    +0.007 A 
ENDBRANCH   9  10
ENDBRANCH   1   9
TORSDOF 4
ENDMDL
MODEL 9
REMARK VINA RESULT:      -3.4      4.638      5.703
REMARK  Name = *****
REMARK                            x       y       z     vdW  Elec       q    Type
REMARK                         _______ _______ _______ _____ _____    ______ ____
ROOT
ATOM      1  N   LIG    1       27.741 -14.595   3.934  0.00  0.00    -0.272 N 
ATOM      2  H   LIG    1       28.559 -15.177   3.794  0.00  0.00    +0.258 HD
ENDROOT
BRANCH   1   5
ATOM      3  N   LIG    1       27.541 -12.925   5.558  0.00  0.00    -0.130 NA
ATOM      4  H   LIG    1       27.924 -11.997   5.732  0.00  0.00    +0.306 HD
ATOM      5  C   LIG    1       28.041 -13.399   4.477  0.00  0.00    +0.377 C 
BRANCH   5   6
ATOM      6  N   LIG    1       28.970 -12.758   3.740  0.00  0.00    -0.289 N 
ATOM      7  H   LIG    1       29.313 -13.334   2.978  0.00  0.00    +0.255 HD
ATOM      8  H   LIG    1       29.738 -12.368   4.269  0.00  0.00    +0.255 HD
ENDBRANCH   5   6
ENDBRANCH   1   5
BRANCH   1   9
ATOM      9  C   LIG    1       26.792 -14.712   2.844  0.00  0.00    +0.231 C 
BRANCH   9  10
ATOM     10  C   LIG    1       25.526 -15.355   3.367  0.00  0.00    -0.013 A 
ATOM     11  C   LIG    1       25.383 -16.753   3.351  0.00  0.00    +0.021 A 
ATOM     12  C   LIG    1       24.224 -17.348   3.851  0.00  0.00    +0.014 A 
ATOM     13  I   LIG    1       24.042 -19.418   3.849  0.00  0.00    -0.044 I 
ATOM     14  C   LIG    1       23.193 -16.561   4.360  0.00  0.00    +0.014 A 
ATOM     15  C   LIG    1       23.319 -15.172   4.365  0.00  0.00    +0.001 A 
ATOM     16  C   LIG    1       24.479 -14.571   3.870  0.00  0.00    +0.007 A 
ENDBRANCH   9  10
ENDBRANCH   1   9
TORSDOF 4
ENDMDL
