MODEL 1
REMARK VINA RESULT:      -7.8      0.000      0.000
REMARK  Name = *****
REMARK                            x       y       z     vdW  Elec       q    Type
REMARK                         _______ _______ _______ _____ _____    ______ ____
ROOT
ATOM      1  C   LIG    1       29.254 -19.500   7.336  0.00  0.00    +0.125 A 
ATOM      2  C   LIG    1       28.971 -19.264   5.991  0.00  0.00    +0.069 A 
ATOM      3 CL   LIG    1       30.068 -18.512   4.889  0.00  0.00    -0.082 Cl
ATOM      4  C   LIG    1       27.715 -19.629   5.473  0.00  0.00    +0.047 A 
ATOM      5  C   LIG    1       26.739 -20.254   6.263  0.00  0.00    +0.057 A 
ATOM      6  N   LIG    1       25.490 -20.503   5.712  0.00  0.00    -0.324 N 
ATOM      7  H   LIG    1       25.478 -20.609   4.698  0.00  0.00    +0.148 HD
ATOM      8  C   LIG    1       24.483 -21.316   6.388  0.00  0.00    +0.192 C 
ATOM      9  N   LIG    1       24.428 -20.937   7.799  0.00  0.00    -0.167 NA
ATOM     10  H   LIG    1       23.633 -21.332   8.301  0.00  0.00    +0.150 HD
ATOM     11  S   LIG    1       25.843 -21.186   8.647  0.00  0.00    +0.062 S 
ATOM     12  O   LIG    1       26.092 -22.610   8.659  0.00  0.00    -0.153 OA
ATOM     13  O   LIG    1       25.746 -20.420   9.866  0.00  0.00    -0.153 OA
ATOM     14  C   LIG    1       27.048 -20.452   7.607  0.00  0.00    +0.128 A 
ATOM     15  C   LIG    1       28.286 -20.093   8.154  0.00  0.00    +0.060 A 
ENDROOT
BRANCH   1  16
ATOM     16  S   LIG    1       30.818 -19.094   8.044  0.00  0.00    +0.057 S 
ATOM     17  O   LIG    1       31.841 -19.868   7.378  0.00  0.00    -0.153 OA
ATOM     18  O   LIG    1       30.920 -17.662   8.184  0.00  0.00    -0.153 OA
BRANCH  16  19
ATOM     19  N   LIG    1       30.724 -19.747   9.585  0.00  0.00    -0.203 NA
ATOM     20  H   LIG    1       31.237 -20.628   9.624  0.00  0.00    +0.144 HD
ATOM     21  H   LIG    1       31.034 -19.059  10.275  0.00  0.00    +0.144 HD
ENDBRANCH  16  19
ENDBRANCH   1  16
BRANCH   8  22
ATOM     22  C   LIG    1       24.611 -22.845   6.096  0.00  0.00    +0.207 C 
ATOM     23 CL   LIG    1       23.262 -23.752   6.843  0.00  0.00    -0.101 Cl
ATOM     24 CL   LIG    1       24.576 -23.139   4.321  0.00  0.00    -0.101 Cl
ENDBRANCH   8  22
TORSDOF 3
ENDMDL
MODEL 2
REMARK VINA RESULT:      -6.7      2.823      3.311
REMARK  Name = *****
REMARK                            x       y       z     vdW  Elec       q    Type
REMARK                         _______ _______ _______ _____ _____    ______ ____
ROOT
ATOM      1  C   LIG    1       28.658 -20.029   6.632  0.00  0.00    +0.125 A 
ATOM      2  C   LIG    1       28.684 -21.193   7.400  0.00  0.00    +0.069 A 
ATOM      3 CL   LIG    1       29.957 -21.602   8.493  0.00  0.00    -0.082 Cl
ATOM      4  C   LIG    1       27.635 -22.122   7.285  0.00  0.00    +0.047 A 
ATOM      5  C   LIG    1       26.538 -21.904   6.438  0.00  0.00    +0.057 A 
ATOM      6  N   LIG    1       25.586 -22.904   6.304  0.00  0.00    -0.324 N 
ATOM      7  H   LIG    1       25.503 -23.532   7.103  0.00  0.00    +0.148 HD
ATOM      8  C   LIG    1       24.322 -22.694   5.602  0.00  0.00    +0.192 C 
ATOM      9  N   LIG    1       24.578 -21.968   4.359  0.00  0.00    -0.167 NA
ATOM     10  H   LIG    1       23.777 -21.935   3.729  0.00  0.00    +0.150 HD
ATOM     11  S   LIG    1       25.234 -20.447   4.559  0.00  0.00    +0.062 S 
ATOM     12  O   LIG    1       24.255 -19.646   5.257  0.00  0.00    -0.153 OA
ATOM     13  O   LIG    1       25.773 -20.049   3.281  0.00  0.00    -0.153 OA
ATOM     14  C   LIG    1       26.558 -20.742   5.669  0.00  0.00    +0.128 A 
ATOM     15  C   LIG    1       27.592 -19.802   5.754  0.00  0.00    +0.060 A 
ENDROOT
BRANCH   1  16
ATOM     16  S   LIG    1       29.925 -18.808   6.748  0.00  0.00    +0.057 S 
ATOM     17  O   LIG    1       29.688 -18.006   7.927  0.00  0.00    -0.153 OA
ATOM     18  O   LIG    1       31.204 -19.424   6.495  0.00  0.00    -0.153 OA
BRANCH  16  19
ATOM     19  N   LIG    1       29.593 -17.785   5.461  0.00  0.00    -0.203 NA
ATOM     20  H   LIG    1       29.108 -16.951   5.794  0.00  0.00    +0.144 HD
ATOM     21  H   LIG    1       30.452 -17.584   4.946  0.00  0.00    +0.144 HD
ENDBRANCH  16  19
ENDBRANCH   1  16
BRANCH   8  22
ATOM     22  C   LIG    1       23.189 -22.118   6.510  0.00  0.00    +0.207 C 
ATOM     23 CL   LIG    1       21.992 -23.384   6.916  0.00  0.00    -0.101 Cl
ATOM     24 CL   LIG    1       23.888 -21.486   8.042  0.00  0.00    -0.101 Cl
ENDBRANCH   8  22
TORSDOF 3
ENDMDL
MODEL 3
REMARK VINA RESULT:      -6.7      2.654      6.239
REMARK  Name = *****
REMARK                            x       y       z     vdW  Elec       q    Type
REMARK                         _______ _______ _______ _____ _____    ______ ____
ROOT
ATOM      1  C   LIG    1       27.142 -21.480   6.999  0.00  0.00    +0.125 A 
ATOM      2  C   LIG    1       27.180 -20.367   6.161  0.00  0.00    +0.069 A 
ATOM      3 CL   LIG    1       25.904 -19.921   5.087  0.00  0.00    -0.082 Cl
ATOM      4  C   LIG    1       28.324 -19.548   6.149  0.00  0.00    +0.047 A 
ATOM      5  C   LIG    1       29.426 -19.799   6.980  0.00  0.00    +0.057 A 
ATOM      6  N   LIG    1       30.557 -19.006   6.851  0.00  0.00    -0.324 N 
ATOM      7  H   LIG    1       30.387 -18.068   6.487  0.00  0.00    +0.148 HD
ATOM      8  C   LIG    1       31.669 -19.066   7.795  0.00  0.00    +0.192 C 
ATOM      9  N   LIG    1       31.974 -20.465   8.089  0.00  0.00    -0.167 NA
ATOM     10  H   LIG    1       32.846 -20.598   8.601  0.00  0.00    +0.150 HD
ATOM     11  S   LIG    1       30.733 -21.317   8.808  0.00  0.00    +0.062 S 
ATOM     12  O   LIG    1       30.492 -20.715  10.100  0.00  0.00    -0.153 OA
ATOM     13  O   LIG    1       31.045 -22.718   8.668  0.00  0.00    -0.153 OA
ATOM     14  C   LIG    1       29.361 -20.933   7.787  0.00  0.00    +0.128 A 
ATOM     15  C   LIG    1       28.241 -21.773   7.815  0.00  0.00    +0.060 A 
ENDROOT
BRANCH   1  16
ATOM     16  S   LIG    1       25.729 -22.533   7.086  0.00  0.00    +0.057 S 
ATOM     17  O   LIG    1       26.146 -23.828   7.575  0.00  0.00    -0.153 OA
ATOM     18  O   LIG    1       24.635 -21.812   7.688  0.00  0.00    -0.153 OA
BRANCH  16  19
ATOM     19  N   LIG    1       25.340 -22.789   5.475  0.00  0.00    -0.203 NA
ATOM     20  H   LIG    1       24.555 -23.439   5.404  0.00  0.00    +0.144 HD
ATOM     21  H   LIG    1       25.177 -21.894   5.010  0.00  0.00    +0.144 HD
ENDBRANCH  16  19
ENDBRANCH   1  16
BRANCH   8  22
ATOM     22  C   LIG    1       31.492 -18.131   9.034  0.00  0.00    +0.207 C 
ATOM     23 CL   LIG    1       32.605 -16.733   8.941  0.00  0.00    -0.101 Cl
ATOM     24 CL   LIG    1       29.806 -17.507   9.099  0.00  0.00    -0.101 Cl
ENDBRANCH   8  22
TORSDOF 3
ENDMDL
MODEL 4
REMARK VINA RESULT:      -5.6      4.140      6.217
REMARK  Name = *****
REMARK                            x       y       z     vdW  Elec       q    Type
REMARK                         _______ _______ _______ _____ _____    ______ ____
ROOT
ATOM      1  C   LIG    1       25.346 -25.593   6.218  0.00  0.00    +0.125 A 
ATOM      2  C   LIG    1       25.161 -25.368   4.854  0.00  0.00    +0.069 A 
ATOM      3 CL   LIG    1       25.202 -26.609   3.655  0.00  0.00    -0.082 Cl
ATOM      4  C   LIG    1       24.947 -24.057   4.391  0.00  0.00    +0.047 A 
ATOM      5  C   LIG    1       24.884 -22.962   5.266  0.00  0.00    +0.057 A 
ATOM      6  N   LIG    1       24.762 -21.686   4.733  0.00  0.00    -0.324 N 
ATOM      7  H   LIG    1       24.317 -21.641   3.816  0.00  0.00    +0.148 HD
ATOM      8  C   LIG    1       24.497 -20.513   5.561  0.00  0.00    +0.192 C 
ATOM      9  N   LIG    1       25.342 -20.565   6.753  0.00  0.00    -0.167 NA
ATOM     10  H   LIG    1       25.346 -19.700   7.293  0.00  0.00    +0.150 HD
ATOM     11  S   LIG    1       25.075 -21.880   7.744  0.00  0.00    +0.062 S 
ATOM     12  O   LIG    1       23.729 -21.765   8.256  0.00  0.00    -0.153 OA
ATOM     13  O   LIG    1       26.216 -21.985   8.622  0.00  0.00    -0.153 OA
ATOM     14  C   LIG    1       25.096 -23.221   6.618  0.00  0.00    +0.128 A 
ATOM     15  C   LIG    1       25.320 -24.514   7.108  0.00  0.00    +0.060 A 
ENDROOT
BRANCH   1  16
ATOM     16  S   LIG    1       25.589 -27.213   6.870  0.00  0.00    +0.057 S 
ATOM     17  O   LIG    1       26.376 -27.112   8.078  0.00  0.00    -0.153 OA
ATOM     18  O   LIG    1       24.340 -27.933   6.837  0.00  0.00    -0.153 OA
BRANCH  16  19
ATOM     19  N   LIG    1       26.614 -27.929   5.751  0.00  0.00    -0.203 NA
ATOM     20  H   LIG    1       26.519 -27.468   4.845  0.00  0.00    +0.144 HD
ATOM     21  H   LIG    1       27.570 -27.938   6.111  0.00  0.00    +0.144 HD
ENDBRANCH  16  19
ENDBRANCH   1  16
BRANCH   8  22
ATOM     22  C   LIG    1       22.977 -20.254   5.813  0.00  0.00    +0.207 C 
ATOM     23 CL   LIG    1       22.427 -18.792   4.938  0.00  0.00    -0.101 Cl
ATOM     24 CL   LIG    1       22.008 -21.656   5.237  0.00  0.00    -0.101 Cl
ENDBRANCH   8  22
TORSDOF 3
ENDMDL
MODEL 5
REMARK VINA RESULT:      -5.5      8.907     10.059
REMARK  Name = *****
REMARK                            x       y       z     vdW  Elec       q    Type
REMARK                         _______ _______ _______ _____ _____    ______ ____
ROOT
ATOM      1  C   LIG    1       25.773 -26.732  13.247  0.00  0.00    +0.125 A 
ATOM      2  C   LIG    1       24.489 -27.249  13.419  0.00  0.00    +0.069 A 
ATOM      3 CL   LIG    1       23.267 -26.503  14.383  0.00  0.00    -0.082 Cl
ATOM      4  C   LIG    1       24.144 -28.464  12.800  0.00  0.00    +0.047 A 
ATOM      5  C   LIG    1       25.045 -29.165  11.985  0.00  0.00    +0.057 A 
ATOM      6  N   LIG    1       24.670 -30.403  11.481  0.00  0.00    -0.324 N 
ATOM      7  H   LIG    1       23.665 -30.539  11.375  0.00  0.00    +0.148 HD
ATOM      8  C   LIG    1       25.457 -31.112  10.476  0.00  0.00    +0.192 C 
ATOM      9  N   LIG    1       26.872 -31.038  10.834  0.00  0.00    -0.167 NA
ATOM     10  H   LIG    1       27.470 -31.653  10.282  0.00  0.00    +0.150 HD
ATOM     11  S   LIG    1       27.502 -29.494  10.886  0.00  0.00    +0.062 S 
ATOM     12  O   LIG    1       27.436 -28.958   9.545  0.00  0.00    -0.153 OA
ATOM     13  O   LIG    1       28.746 -29.570  11.614  0.00  0.00    -0.153 OA
ATOM     14  C   LIG    1       26.325 -28.630  11.855  0.00  0.00    +0.128 A 
ATOM     15  C   LIG    1       26.702 -27.428  12.465  0.00  0.00    +0.060 A 
ENDROOT
BRANCH   1  16
ATOM     16  S   LIG    1       26.264 -25.200  13.969  0.00  0.00    +0.057 S 
ATOM     17  O   LIG    1       25.469 -24.140  13.392  0.00  0.00    -0.153 OA
ATOM     18  O   LIG    1       26.386 -25.364  15.397  0.00  0.00    -0.153 OA
BRANCH  16  19
ATOM     19  N   LIG    1       27.806 -24.961  13.356  0.00  0.00    -0.203 NA
ATOM     20  H   LIG    1       28.282 -24.226  13.881  0.00  0.00    +0.144 HD
ATOM     21  H   LIG    1       28.314 -25.847  13.335  0.00  0.00    +0.144 HD
ENDBRANCH  16  19
ENDBRANCH   1  16
BRANCH   8  22
ATOM     22  C   LIG    1       25.102 -30.714   9.007  0.00  0.00    +0.207 C 
ATOM     23 CL   LIG    1       25.236 -32.126   7.916  0.00  0.00    -0.101 Cl
ATOM     24 CL   LIG    1       23.416 -30.093   8.926  0.00  0.00    -0.101 Cl
ENDBRANCH   8  22
TORSDOF 3
ENDMDL
MODEL 6
REMARK VINA RESULT:      -5.4      3.046      5.950
REMARK  Name = *****
REMARK                            x       y       z     vdW  Elec       q    Type
REMARK                         _______ _______ _______ _____ _____    ______ ____
ROOT
ATOM      1  C   LIG    1       24.517 -20.374   5.331  0.00  0.00    +0.125 A 
ATOM      2  C   LIG    1       25.421 -19.974   4.347  0.00  0.00    +0.069 A 
ATOM      3 CL   LIG    1       24.965 -19.483   2.756  0.00  0.00    -0.082 Cl
ATOM      4  C   LIG    1       26.799 -19.981   4.631  0.00  0.00    +0.047 A 
ATOM      5  C   LIG    1       27.297 -20.352   5.888  0.00  0.00    +0.057 A 
ATOM      6  N   LIG    1       28.671 -20.425   6.069  0.00  0.00    -0.324 N 
ATOM      7  H   LIG    1       29.221 -19.827   5.453  0.00  0.00    +0.148 HD
ATOM      8  C   LIG    1       29.280 -20.612   7.384  0.00  0.00    +0.192 C 
ATOM      9  N   LIG    1       28.544 -21.646   8.111  0.00  0.00    -0.167 NA
ATOM     10  H   LIG    1       29.008 -21.959   8.963  0.00  0.00    +0.150 HD
ATOM     11  S   LIG    1       26.943 -21.287   8.409  0.00  0.00    +0.062 S 
ATOM     12  O   LIG    1       26.916 -20.136   9.282  0.00  0.00    -0.153 OA
ATOM     13  O   LIG    1       26.292 -22.526   8.762  0.00  0.00    -0.153 OA
ATOM     14  C   LIG    1       26.366 -20.768   6.838  0.00  0.00    +0.128 A 
ATOM     15  C   LIG    1       24.989 -20.780   6.584  0.00  0.00    +0.060 A 
ENDROOT
BRANCH   1  16
ATOM     16  S   LIG    1       22.775 -20.362   5.054  0.00  0.00    +0.057 S 
ATOM     17  O   LIG    1       22.138 -21.158   6.079  0.00  0.00    -0.153 OA
ATOM     18  O   LIG    1       22.348 -19.014   4.767  0.00  0.00    -0.153 OA
BRANCH  16  19
ATOM     19  N   LIG    1       22.602 -21.257   3.647  0.00  0.00    -0.203 NA
ATOM     20  H   LIG    1       22.305 -20.651   2.881  0.00  0.00    +0.144 HD
ATOM     21  H   LIG    1       23.462 -21.774   3.454  0.00  0.00    +0.144 HD
ENDBRANCH  16  19
ENDBRANCH   1  16
BRANCH   8  22
ATOM     22  C   LIG    1       29.526 -19.277   8.157  0.00  0.00    +0.207 C 
ATOM     23 CL   LIG    1       30.978 -19.401   9.195  0.00  0.00    -0.101 Cl
ATOM     24 CL   LIG    1       29.776 -17.928   6.993  0.00  0.00    -0.101 Cl
ENDBRANCH   8  22
TORSDOF 3
ENDMDL
MODEL 7
REMARK VINA RESULT:      -5.3      9.413     10.847
REMARK  Name = *****
REMARK                            x       y       z     vdW  Elec       q    Type
REMARK                         _______ _______ _______ _____ _____    ______ ____
ROOT
ATOM      1  C   LIG    1       25.096 -29.858   7.467  0.00  0.00    +0.125 A 
ATOM      2  C   LIG    1       25.683 -28.594   7.418  0.00  0.00    +0.069 A 
ATOM      3 CL   LIG    1       25.770 -27.623   5.993  0.00  0.00    -0.082 Cl
ATOM      4  C   LIG    1       26.269 -28.059   8.578  0.00  0.00    +0.047 A 
ATOM      5  C   LIG    1       26.258 -28.745   9.802  0.00  0.00    +0.057 A 
ATOM      6  N   LIG    1       26.935 -28.199  10.883  0.00  0.00    -0.324 N 
ATOM      7  H   LIG    1       27.036 -27.184  10.862  0.00  0.00    +0.148 HD
ATOM      8  C   LIG    1       26.819 -28.738  12.235  0.00  0.00    +0.192 C 
ATOM      9  N   LIG    1       26.900 -30.197  12.178  0.00  0.00    -0.167 NA
ATOM     10  H   LIG    1       27.002 -30.639  13.091  0.00  0.00    +0.150 HD
ATOM     11  S   LIG    1       25.687 -30.932  11.299  0.00  0.00    +0.062 S 
ATOM     12  O   LIG    1       24.441 -30.660  11.978  0.00  0.00    -0.153 OA
ATOM     13  O   LIG    1       26.125 -32.279  11.021  0.00  0.00    -0.153 OA
ATOM     14  C   LIG    1       25.683 -30.014   9.807  0.00  0.00    +0.128 A 
ATOM     15  C   LIG    1       25.099 -30.579   8.667  0.00  0.00    +0.060 A 
ENDROOT
BRANCH   1  16
ATOM     16  S   LIG    1       24.317 -30.578   6.058  0.00  0.00    +0.057 S 
ATOM     17  O   LIG    1       25.307 -30.747   5.018  0.00  0.00    -0.153 OA
ATOM     18  O   LIG    1       23.473 -31.668   6.485  0.00  0.00    -0.153 OA
BRANCH  16  19
ATOM     19  N   LIG    1       23.316 -29.353   5.502  0.00  0.00    -0.203 NA
ATOM     20  H   LIG    1       23.431 -29.238   4.494  0.00  0.00    +0.144 HD
ATOM     21  H   LIG    1       22.352 -29.534   5.789  0.00  0.00    +0.144 HD
ENDBRANCH  16  19
ENDBRANCH   1  16
BRANCH   8  22
ATOM     22  C   LIG    1       25.618 -28.151  13.043  0.00  0.00    +0.207 C 
ATOM     23 CL   LIG    1       25.573 -28.829  14.698  0.00  0.00    -0.101 Cl
ATOM     24 CL   LIG    1       25.773 -26.363  13.168  0.00  0.00    -0.101 Cl
ENDBRANCH   8  22
TORSDOF 3
ENDMDL
MODEL 8
REMARK VINA RESULT:      -4.9      4.982      6.852
REMARK  Name = *****
REMARK                            x       y       z     vdW  Elec       q    Type
REMARK                         _______ _______ _______ _____ _____    ______ ____
ROOT
ATOM      1  C   LIG    1       24.859 -22.851   5.774  0.00  0.00    +0.125 A 
ATOM      2  C   LIG    1       25.305 -22.885   7.095  0.00  0.00    +0.069 A 
ATOM      3 CL   LIG    1       25.358 -21.508   8.135  0.00  0.00    -0.082 Cl
ATOM      4  C   LIG    1       25.766 -24.098   7.638  0.00  0.00    +0.047 A 
ATOM      5  C   LIG    1       25.767 -25.291   6.898  0.00  0.00    +0.057 A 
ATOM      6  N   LIG    1       26.323 -26.429   7.465  0.00  0.00    -0.324 N 
ATOM      7  H   LIG    1       26.311 -26.454   8.485  0.00  0.00    +0.148 HD
ATOM      8  C   LIG    1       26.197 -27.750   6.854  0.00  0.00    +0.192 C 
ATOM      9  N   LIG    1       26.441 -27.640   5.417  0.00  0.00    -0.167 NA
ATOM     10  H   LIG    1       26.544 -28.539   4.947  0.00  0.00    +0.150 HD
ATOM     11  S   LIG    1       25.365 -26.665   4.596  0.00  0.00    +0.062 S 
ATOM     12  O   LIG    1       24.062 -27.281   4.699  0.00  0.00    -0.153 OA
ATOM     13  O   LIG    1       25.963 -26.359   3.319  0.00  0.00    -0.153 OA
ATOM     14  C   LIG    1       25.337 -25.212   5.575  0.00  0.00    +0.128 A 
ATOM     15  C   LIG    1       24.880 -24.019   5.004  0.00  0.00    +0.060 A 
ENDROOT
BRANCH   1  16
ATOM     16  S   LIG    1       24.239 -21.372   5.039  0.00  0.00    +0.057 S 
ATOM     17  O   LIG    1       22.958 -21.063   5.631  0.00  0.00    -0.153 OA
ATOM     18  O   LIG    1       25.298 -20.394   4.971  0.00  0.00    -0.153 OA
BRANCH  16  19
ATOM     19  N   LIG    1       23.884 -21.841   3.469  0.00  0.00    -0.203 NA
ATOM     20  H   LIG    1       22.972 -22.298   3.439  0.00  0.00    +0.144 HD
ATOM     21  H   LIG    1       23.964 -21.040   2.839  0.00  0.00    +0.144 HD
ENDBRANCH  16  19
ENDBRANCH   1  16
BRANCH   8  22
ATOM     22  C   LIG    1       24.897 -28.511   7.270  0.00  0.00    +0.207 C 
ATOM     23 CL   LIG    1       24.615 -29.918   6.201  0.00  0.00    -0.101 Cl
ATOM     24 CL   LIG    1       25.044 -29.106   8.961  0.00  0.00    -0.101 Cl
ENDBRANCH   8  22
TORSDOF 3
ENDMDL
MODEL 9
REMARK VINA RESULT:      -4.8      9.839     11.067
REMARK  Name = *****
REMARK                            x       y       z     vdW  Elec       q    Type
REMARK                         _______ _______ _______ _____ _____    ______ ____
ROOT
ATOM      1  C   LIG    1       23.870 -28.395  12.660  0.00  0.00    +0.125 A 
ATOM      2  C   LIG    1       22.810 -29.149  12.158  0.00  0.00    +0.069 A 
ATOM      3 CL   LIG    1       21.173 -28.987  12.683  0.00  0.00    -0.082 Cl
ATOM      4  C   LIG    1       23.059 -30.127  11.178  0.00  0.00    +0.047 A 
ATOM      5  C   LIG    1       24.345 -30.351  10.662  0.00  0.00    +0.057 A 
ATOM      6  N   LIG    1       24.534 -31.393   9.766  0.00  0.00    -0.324 N 
ATOM      7  H   LIG    1       23.709 -31.655   9.226  0.00  0.00    +0.148 HD
ATOM      8  C   LIG    1       25.784 -31.581   9.035  0.00  0.00    +0.192 C 
ATOM      9  N   LIG    1       26.909 -31.393   9.950  0.00  0.00    -0.167 NA
ATOM     10  H   LIG    1       27.808 -31.677   9.562  0.00  0.00    +0.150 HD
ATOM     11  S   LIG    1       27.013 -29.872  10.628  0.00  0.00    +0.062 S 
ATOM     12  O   LIG    1       27.256 -28.938   9.552  0.00  0.00    -0.153 OA
ATOM     13  O   LIG    1       27.901 -29.976  11.761  0.00  0.00    -0.153 OA
ATOM     14  C   LIG    1       25.382 -29.595  11.205  0.00  0.00    +0.128 A 
ATOM     15  C   LIG    1       25.167 -28.621  12.187  0.00  0.00    +0.060 A 
ENDROOT
BRANCH   1  16
ATOM     16  S   LIG    1       23.625 -27.133  13.868  0.00  0.00    +0.057 S 
ATOM     17  O   LIG    1       22.795 -26.098  13.294  0.00  0.00    -0.153 OA
ATOM     18  O   LIG    1       23.307 -27.743  15.136  0.00  0.00    -0.153 OA
BRANCH  16  19
ATOM     19  N   LIG    1       25.143 -26.435  14.009  0.00  0.00    -0.203 NA
ATOM     20  H   LIG    1       25.728 -26.708  13.219  0.00  0.00    +0.144 HD
ATOM     21  H   LIG    1       25.052 -25.423  14.124  0.00  0.00    +0.144 HD
ENDBRANCH  16  19
ENDBRANCH   1  16
BRANCH   8  22
ATOM     22  C   LIG    1       25.853 -30.781   7.695  0.00  0.00    +0.207 C 
ATOM     23 CL   LIG    1       26.249 -31.864   6.326  0.00  0.00    -0.101 Cl
ATOM     24 CL   LIG    1       24.266 -30.003   7.359  0.00  0.00    -0.101 Cl
ENDBRANCH   8  22
TORSDOF 3
ENDMDL
