MODEL 1
REMARK VINA RESULT:       7.4      0.000      0.000
REMARK  Name = *****
REMARK                            x       y       z     vdW  Elec       q    Type
REMARK                         _______ _______ _______ _____ _____    ______ ____
ROOT
ATOM      1  C   LIG    1       24.852 -12.574   4.347  0.00  0.00    +0.132 C 
ATOM      2  C   LIG    1       24.186 -13.965   4.644  0.00  0.00    +0.011 C 
ATOM      3  C   LIG    1       23.797 -14.056   6.147  0.00  0.00    +0.015 C 
ATOM      4  C   LIG    1       25.349 -15.005   4.403  0.00  0.00    +0.002 C 
ATOM      5  C   LIG    1       25.152 -16.056   3.306  0.00  0.00    -0.003 C 
ATOM      6  C   LIG    1       23.658 -16.442   3.139  0.00  0.00    +0.003 C 
ATOM      7  C   LIG    1       22.928 -15.154   2.750  0.00  0.00    +0.005 C 
ATOM      8  C   LIG    1       22.997 -17.599   4.053  0.00  0.00    -0.004 C 
ATOM      9  C   LIG    1       21.510 -17.699   3.601  0.00  0.00    +0.016 C 
ATOM     10  C   LIG    1       24.063 -18.628   3.627  0.00  0.00    -0.059 C 
ATOM     11  C   LIG    1       23.652 -19.895   3.471  0.00  0.00    +0.049 C 
ATOM     12  C   LIG    1       23.692 -20.403   4.788  0.00  0.00    +0.163 A 
ATOM     13  C   LIG    1       23.277 -19.620   5.873  0.00  0.00    +0.019 A 
ATOM     14  C   LIG    1       23.457 -20.521   6.945  0.00  0.00    +0.161 A 
ATOM     15  N   LIG    1       24.218 -21.572   6.602  0.00  0.00    -0.086 NA
ATOM     16  O   LIG    1       24.375 -21.485   5.232  0.00  0.00    -0.355 OA
ATOM     17  C   LIG    1       25.428 -18.306   4.297  0.00  0.00    +0.032 C 
ATOM     18  C   LIG    1       22.908 -18.053   5.678  0.00  0.00    +0.051 C 
ATOM     19  C   LIG    1       26.094 -17.261   3.458  0.00  0.00    +0.008 C 
ATOM     20  C   LIG    1       26.618 -14.172   4.106  0.00  0.00    +0.008 C 
ATOM     21  C   LIG    1       22.843 -14.188   3.896  0.00  0.00    +0.011 C 
ATOM     22  C   LIG    1       26.326 -12.811   4.705  0.00  0.00    +0.049 C 
ENDROOT
BRANCH   1  24
ATOM     23  C   LIG    1       24.587 -11.690   1.812  0.00  0.00    +0.007 C 
ATOM     24  C   LIG    1       24.719 -12.140   2.954  0.00  0.00    -0.070 C 
ENDBRANCH   1  24
BRANCH   1  25
ATOM     25  O   LIG    1       24.277 -11.558   5.153  0.00  0.00    -0.376 OA
ATOM     26  H   LIG    1       23.313 -11.586   5.041  0.00  0.00    +0.211 HD
ENDBRANCH   1  25
TORSDOF 2
ENDMDL
MODEL 2
REMARK VINA RESULT:       8.4      1.165      1.305
REMARK  Name = *****
REMARK                            x       y       z     vdW  Elec       q    Type
REMARK                         _______ _______ _______ _____ _____    ______ ____
ROOT
ATOM      1  C   LIG    1       26.589 -13.215   4.343  0.00  0.00    +0.132 C 
ATOM      2  C   LIG    1       25.522 -14.288   4.761  0.00  0.00    +0.011 C 
ATOM      3  C   LIG    1       25.518 -14.456   6.308  0.00  0.00    +0.015 C 
ATOM      4  C   LIG    1       26.074 -15.635   4.151  0.00  0.00    +0.002 C 
ATOM      5  C   LIG    1       25.207 -16.359   3.115  0.00  0.00    -0.003 C 
ATOM      6  C   LIG    1       23.694 -16.134   3.371  0.00  0.00    +0.003 C 
ATOM      7  C   LIG    1       23.465 -14.625   3.264  0.00  0.00    +0.005 C 
ATOM      8  C   LIG    1       22.878 -17.088   4.388  0.00  0.00    -0.004 C 
ATOM      9  C   LIG    1       21.413 -16.561   4.382  0.00  0.00    +0.016 C 
ATOM     10  C   LIG    1       23.303 -18.361   3.629  0.00  0.00    -0.059 C 
ATOM     11  C   LIG    1       22.397 -19.346   3.547  0.00  0.00    +0.049 C 
ATOM     12  C   LIG    1       22.559 -20.027   4.773  0.00  0.00    +0.163 A 
ATOM     13  C   LIG    1       22.775 -19.320   5.964  0.00  0.00    +0.019 A 
ATOM     14  C   LIG    1       22.843 -20.376   6.899  0.00  0.00    +0.161 A 
ATOM     15  N   LIG    1       23.010 -21.568   6.307  0.00  0.00    -0.086 NA
ATOM     16  O   LIG    1       22.842 -21.339   4.955  0.00  0.00    -0.355 OA
ATOM     17  C   LIG    1       24.803 -18.673   3.889  0.00  0.00    +0.032 C 
ATOM     18  C   LIG    1       23.024 -17.718   5.949  0.00  0.00    +0.051 C 
ATOM     19  C   LIG    1       25.598 -17.835   2.938  0.00  0.00    +0.008 C 
ATOM     20  C   LIG    1       27.452 -15.297   3.534  0.00  0.00    +0.008 C 
ATOM     21  C   LIG    1       24.061 -13.882   4.425  0.00  0.00    +0.011 C 
ATOM     22  C   LIG    1       27.885 -14.033   4.249  0.00  0.00    +0.049 C 
ENDROOT
BRANCH   1  24
ATOM     23  C   LIG    1       25.962 -12.010   2.013  0.00  0.00    +0.007 C 
ATOM     24  C   LIG    1       26.297 -12.556   3.067  0.00  0.00    -0.070 C 
ENDBRANCH   1  24
BRANCH   1  25
ATOM     25  O   LIG    1       26.688 -12.194   5.323  0.00  0.00    -0.376 OA
ATOM     26  H   LIG    1       26.099 -12.420   6.062  0.00  0.00    +0.211 HD
ENDBRANCH   1  25
TORSDOF 2
ENDMDL
MODEL 3
REMARK VINA RESULT:       9.5      2.369      6.668
REMARK  Name = *****
REMARK                            x       y       z     vdW  Elec       q    Type
REMARK                         _______ _______ _______ _____ _____    ______ ____
ROOT
ATOM      1  C   LIG    1       24.619 -20.670   4.819  0.00  0.00    +0.132 C 
ATOM      2  C   LIG    1       25.139 -19.190   4.757  0.00  0.00    +0.011 C 
ATOM      3  C   LIG    1       26.117 -18.923   5.937  0.00  0.00    +0.015 C 
ATOM      4  C   LIG    1       23.849 -18.319   5.019  0.00  0.00    +0.002 C 
ATOM      5  C   LIG    1       23.403 -17.352   3.918  0.00  0.00    -0.003 C 
ATOM      6  C   LIG    1       24.608 -16.809   3.105  0.00  0.00    +0.003 C 
ATOM      7  C   LIG    1       25.278 -18.031   2.472  0.00  0.00    +0.005 C 
ATOM      8  C   LIG    1       25.423 -15.507   3.607  0.00  0.00    -0.004 C 
ATOM      9  C   LIG    1       26.541 -15.272   2.548  0.00  0.00    +0.016 C 
ATOM     10  C   LIG    1       24.141 -14.652   3.660  0.00  0.00    -0.059 C 
ATOM     11  C   LIG    1       24.259 -13.364   3.306  0.00  0.00    +0.049 C 
ATOM     12  C   LIG    1       24.714 -12.751   4.494  0.00  0.00    +0.163 A 
ATOM     13  C   LIG    1       25.663 -13.382   5.309  0.00  0.00    +0.019 A 
ATOM     14  C   LIG    1       25.832 -12.418   6.327  0.00  0.00    +0.161 A 
ATOM     15  N   LIG    1       24.854 -11.498   6.322  0.00  0.00    -0.086 NA
ATOM     16  O   LIG    1       24.140 -11.722   5.162  0.00  0.00    -0.355 OA
ATOM     17  C   LIG    1       23.258 -15.073   4.868  0.00  0.00    +0.032 C 
ATOM     18  C   LIG    1       26.134 -14.905   5.016  0.00  0.00    +0.051 C 
ATOM     19  C   LIG    1       22.454 -16.258   4.433  0.00  0.00    +0.008 C 
ATOM     20  C   LIG    1       22.710 -19.318   5.329  0.00  0.00    +0.008 C 
ATOM     21  C   LIG    1       25.984 -18.877   3.492  0.00  0.00    +0.011 C 
ATOM     22  C   LIG    1       23.423 -20.578   5.778  0.00  0.00    +0.049 C 
ENDROOT
BRANCH   1  24
ATOM     23  C   LIG    1       23.833 -21.572   2.401  0.00  0.00    +0.007 C 
ATOM     24  C   LIG    1       24.202 -21.206   3.521  0.00  0.00    -0.070 C 
ENDBRANCH   1  24
BRANCH   1  25
ATOM     25  O   LIG    1       25.623 -21.537   5.321  0.00  0.00    -0.376 OA
ATOM     26  H   LIG    1       25.190 -22.277   5.777  0.00  0.00    +0.211 HD
ENDBRANCH   1  25
TORSDOF 2
ENDMDL
