MODEL 1
REMARK VINA RESULT:      -5.6      0.000      0.000
REMARK  Name = *****
REMARK                            x       y       z     vdW  Elec       q    Type
REMARK                         _______ _______ _______ _____ _____    ______ ____
ROOT
ATOM      1  C   LIG    1       25.939 -21.384   6.288  0.00  0.00    +0.051 C 
ENDROOT
BRANCH   1   2
ATOM      2  C   LIG    1       24.877 -20.603   5.547  0.00  0.00    -0.046 A 
ATOM      3  C   LIG    1       23.583 -20.482   6.071  0.00  0.00    +0.003 A 
ATOM      4  C   LIG    1       22.613 -19.733   5.402  0.00  0.00    +0.000 A 
ATOM      5  C   LIG    1       22.925 -19.099   4.201  0.00  0.00    +0.000 A 
ATOM      6  C   LIG    1       24.207 -19.217   3.667  0.00  0.00    +0.000 A 
ATOM      7  C   LIG    1       25.179 -19.963   4.337  0.00  0.00    +0.003 A 
ENDBRANCH   1   2
BRANCH   1   8
ATOM      8  C   LIG    1       27.051 -20.474   6.832  0.00  0.00    +0.103 C 
BRANCH   8   9
ATOM      9  N   LIG    1       28.274 -20.612   6.023  0.00  0.00    -0.259 NA
ATOM     10  H   LIG    1       28.092 -21.225   5.223  0.00  0.00    +0.140 HD
BRANCH   9  11
ATOM     11  N   LIG    1       29.343 -21.092   6.863  0.00  0.00    -0.271 NA
ATOM     12  H   LIG    1       29.642 -20.401   7.556  0.00  0.00    +0.137 HD
ATOM     13  H   LIG    1       29.058 -21.924   7.387  0.00  0.00    +0.137 HD
ENDBRANCH   9  11
ENDBRANCH   8   9
ENDBRANCH   1   8
TORSDOF 4
ENDMDL
MODEL 2
REMARK VINA RESULT:      -5.6      0.026      1.526
REMARK  Name = *****
REMARK                            x       y       z     vdW  Elec       q    Type
REMARK                         _______ _______ _______ _____ _____    ______ ____
ROOT
ATOM      1  C   LIG    1       25.938 -21.385   6.287  0.00  0.00    +0.051 C 
ENDROOT
BRANCH   1   2
ATOM      2  C   LIG    1       24.883 -20.577   5.566  0.00  0.00    -0.046 A 
ATOM      3  C   LIG    1       25.175 -19.944   4.350  0.00  0.00    +0.003 A 
ATOM      4  C   LIG    1       24.190 -19.226   3.669  0.00  0.00    +0.000 A 
ATOM      5  C   LIG    1       22.904 -19.131   4.197  0.00  0.00    +0.000 A 
ATOM      6  C   LIG    1       22.603 -19.752   5.408  0.00  0.00    +0.000 A 
ATOM      7  C   LIG    1       23.586 -20.473   6.088  0.00  0.00    +0.003 A 
ENDBRANCH   1   2
BRANCH   1   8
ATOM      8  C   LIG    1       27.060 -20.498   6.849  0.00  0.00    +0.103 C 
BRANCH   8   9
ATOM      9  N   LIG    1       28.274 -20.616   6.024  0.00  0.00    -0.259 NA
ATOM     10  H   LIG    1       28.095 -21.242   5.233  0.00  0.00    +0.140 HD
BRANCH   9  11
ATOM     11  N   LIG    1       29.366 -21.063   6.853  0.00  0.00    -0.271 NA
ATOM     12  H   LIG    1       29.090 -21.207   7.828  0.00  0.00    +0.137 HD
ATOM     13  H   LIG    1       29.741 -21.957   6.523  0.00  0.00    +0.137 HD
ENDBRANCH   9  11
ENDBRANCH   8   9
ENDBRANCH   1   8
TORSDOF 4
ENDMDL
MODEL 3
REMARK VINA RESULT:      -5.5      1.403      2.279
REMARK  Name = *****
REMARK                            x       y       z     vdW  Elec       q    Type
REMARK                         _______ _______ _______ _____ _____    ______ ____
ROOT
ATOM      1  C   LIG    1       27.059 -20.471   6.752  0.00  0.00    +0.051 C 
ENDROOT
BRANCH   1   2
ATOM      2  C   LIG    1       25.647 -20.486   6.212  0.00  0.00    -0.046 A 
ATOM      3  C   LIG    1       25.398 -20.243   4.855  0.00  0.00    +0.003 A 
ATOM      4  C   LIG    1       24.096 -20.289   4.352  0.00  0.00    +0.000 A 
ATOM      5  C   LIG    1       23.029 -20.577   5.202  0.00  0.00    +0.000 A 
ATOM      6  C   LIG    1       23.264 -20.815   6.555  0.00  0.00    +0.000 A 
ATOM      7  C   LIG    1       24.565 -20.772   7.058  0.00  0.00    +0.003 A 
ENDBRANCH   1   2
BRANCH   1   8
ATOM      8  C   LIG    1       28.074 -19.996   5.701  0.00  0.00    +0.103 C 
BRANCH   8   9
ATOM      9  N   LIG    1       29.072 -19.103   6.313  0.00  0.00    -0.259 NA
ATOM     10  H   LIG    1       28.689 -18.689   7.168  0.00  0.00    +0.140 HD
BRANCH   9  11
ATOM     11  N   LIG    1       29.475 -18.113   5.345  0.00  0.00    -0.271 NA
ATOM     12  H   LIG    1       29.272 -17.157   5.649  0.00  0.00    +0.137 HD
ATOM     13  H   LIG    1       30.483 -18.153   5.170  0.00  0.00    +0.137 HD
ENDBRANCH   9  11
ENDBRANCH   8   9
ENDBRANCH   1   8
TORSDOF 4
ENDMDL
MODEL 4
REMARK VINA RESULT:      -5.2      6.787      7.541
REMARK  Name = *****
REMARK                            x       y       z     vdW  Elec       q    Type
REMARK                         _______ _______ _______ _____ _____    ______ ____
ROOT
ATOM      1  C   LIG    1       26.647 -14.858   3.300  0.00  0.00    +0.051 C 
ENDROOT
BRANCH   1   2
ATOM      2  C   LIG    1       25.619 -13.749   3.281  0.00  0.00    -0.046 A 
ATOM      3  C   LIG    1       24.968 -13.358   4.459  0.00  0.00    +0.003 A 
ATOM      4  C   LIG    1       24.043 -12.313   4.446  0.00  0.00    +0.000 A 
ATOM      5  C   LIG    1       23.757 -11.648   3.254  0.00  0.00    +0.000 A 
ATOM      6  C   LIG    1       24.394 -12.031   2.076  0.00  0.00    +0.000 A 
ATOM      7  C   LIG    1       25.322 -13.075   2.088  0.00  0.00    +0.003 A 
ENDBRANCH   1   2
BRANCH   1   8
ATOM      8  C   LIG    1       27.919 -14.453   4.061  0.00  0.00    +0.103 C 
BRANCH   8   9
ATOM      9  N   LIG    1       28.539 -13.271   3.438  0.00  0.00    -0.259 NA
ATOM     10  H   LIG    1       29.281 -13.567   2.797  0.00  0.00    +0.140 HD
BRANCH   9  11
ATOM     11  N   LIG    1       29.015 -12.388   4.473  0.00  0.00    -0.271 NA
ATOM     12  H   LIG    1       29.866 -11.885   4.205  0.00  0.00    +0.137 HD
ATOM     13  H   LIG    1       28.318 -11.674   4.703  0.00  0.00    +0.137 HD
ENDBRANCH   9  11
ENDBRANCH   8   9
ENDBRANCH   1   8
TORSDOF 4
ENDMDL
MODEL 5
REMARK VINA RESULT:      -5.2      7.149      7.928
REMARK  Name = *****
REMARK                            x       y       z     vdW  Elec       q    Type
REMARK                         _______ _______ _______ _____ _____    ______ ____
ROOT
ATOM      1  C   LIG    1       26.857 -14.417   3.069  0.00  0.00    +0.051 C 
ENDROOT
BRANCH   1   2
ATOM      2  C   LIG    1       25.751 -13.394   3.188  0.00  0.00    -0.046 A 
ATOM      3  C   LIG    1       25.353 -12.638   2.076  0.00  0.00    +0.003 A 
ATOM      4  C   LIG    1       24.309 -11.718   2.180  0.00  0.00    +0.000 A 
ATOM      5  C   LIG    1       23.652 -11.540   3.397  0.00  0.00    +0.000 A 
ATOM      6  C   LIG    1       24.042 -12.282   4.510  0.00  0.00    +0.000 A 
ATOM      7  C   LIG    1       25.084 -13.206   4.407  0.00  0.00    +0.003 A 
ENDBRANCH   1   2
BRANCH   1   8
ATOM      8  C   LIG    1       28.018 -14.127   4.033  0.00  0.00    +0.103 C 
BRANCH   8   9
ATOM      9  N   LIG    1       28.718 -12.892   3.641  0.00  0.00    -0.259 NA
ATOM     10  H   LIG    1       29.567 -13.127   3.117  0.00  0.00    +0.140 HD
BRANCH   9  11
ATOM     11  N   LIG    1       28.991 -12.110   4.821  0.00  0.00    -0.271 NA
ATOM     12  H   LIG    1       28.317 -12.279   5.573  0.00  0.00    +0.137 HD
ATOM     13  H   LIG    1       29.914 -12.328   5.206  0.00  0.00    +0.137 HD
ENDBRANCH   9  11
ENDBRANCH   8   9
ENDBRANCH   1   8
TORSDOF 4
ENDMDL
MODEL 6
REMARK VINA RESULT:      -5.2      2.555      3.767
REMARK  Name = *****
REMARK                            x       y       z     vdW  Elec       q    Type
REMARK                         _______ _______ _______ _____ _____    ______ ____
ROOT
ATOM      1  C   LIG    1       25.344 -19.605   3.438  0.00  0.00    +0.051 C 
ENDROOT
BRANCH   1   2
ATOM      2  C   LIG    1       24.698 -20.134   4.699  0.00  0.00    -0.046 A 
ATOM      3  C   LIG    1       25.481 -20.562   5.779  0.00  0.00    +0.003 A 
ATOM      4  C   LIG    1       24.882 -21.019   6.954  0.00  0.00    +0.000 A 
ATOM      5  C   LIG    1       23.493 -21.055   7.062  0.00  0.00    +0.000 A 
ATOM      6  C   LIG    1       22.703 -20.636   5.993  0.00  0.00    +0.000 A 
ATOM      7  C   LIG    1       23.301 -20.176   4.818  0.00  0.00    +0.003 A 
ENDBRANCH   1   2
BRANCH   1   8
ATOM      8  C   LIG    1       25.202 -18.081   3.312  0.00  0.00    +0.103 C 
BRANCH   8   9
ATOM      9  N   LIG    1       26.527 -17.439   3.279  0.00  0.00    -0.259 NA
ATOM     10  H   LIG    1       27.065 -17.714   4.106  0.00  0.00    +0.140 HD
BRANCH   9  11
ATOM     11  N   LIG    1       26.356 -16.011   3.173  0.00  0.00    -0.271 NA
ATOM     12  H   LIG    1       26.865 -15.497   3.896  0.00  0.00    +0.137 HD
ATOM     13  H   LIG    1       26.699 -15.662   2.274  0.00  0.00    +0.137 HD
ENDBRANCH   9  11
ENDBRANCH   8   9
ENDBRANCH   1   8
TORSDOF 4
ENDMDL
MODEL 7
REMARK VINA RESULT:      -5.2      2.547      3.667
REMARK  Name = *****
REMARK                            x       y       z     vdW  Elec       q    Type
REMARK                         _______ _______ _______ _____ _____    ______ ____
ROOT
ATOM      1  C   LIG    1       25.474 -19.598   3.526  0.00  0.00    +0.051 C 
ENDROOT
BRANCH   1   2
ATOM      2  C   LIG    1       24.769 -20.084   4.772  0.00  0.00    -0.046 A 
ATOM      3  C   LIG    1       23.371 -20.057   4.858  0.00  0.00    +0.003 A 
ATOM      4  C   LIG    1       22.720 -20.537   5.997  0.00  0.00    +0.000 A 
ATOM      5  C   LIG    1       23.461 -21.047   7.062  0.00  0.00    +0.000 A 
ATOM      6  C   LIG    1       24.852 -21.074   6.989  0.00  0.00    +0.000 A 
ATOM      7  C   LIG    1       25.504 -20.598   5.850  0.00  0.00    +0.003 A 
ENDBRANCH   1   2
BRANCH   1   8
ATOM      8  C   LIG    1       25.280 -18.090   3.304  0.00  0.00    +0.103 C 
BRANCH   8   9
ATOM      9  N   LIG    1       26.579 -17.396   3.300  0.00  0.00    -0.259 NA
ATOM     10  H   LIG    1       27.133 -17.695   4.109  0.00  0.00    +0.140 HD
BRANCH   9  11
ATOM     11  N   LIG    1       26.353 -15.973   3.274  0.00  0.00    -0.271 NA
ATOM     12  H   LIG    1       26.744 -15.494   4.090  0.00  0.00    +0.137 HD
ATOM     13  H   LIG    1       26.786 -15.543   2.452  0.00  0.00    +0.137 HD
ENDBRANCH   9  11
ENDBRANCH   8   9
ENDBRANCH   1   8
TORSDOF 4
ENDMDL
MODEL 8
REMARK VINA RESULT:      -5.0      6.068      6.917
REMARK  Name = *****
REMARK                            x       y       z     vdW  Elec       q    Type
REMARK                         _______ _______ _______ _____ _____    ______ ____
ROOT
ATOM      1  C   LIG    1       27.440 -14.375   3.395  0.00  0.00    +0.051 C 
ENDROOT
BRANCH   1   2
ATOM      2  C   LIG    1       26.162 -13.568   3.379  0.00  0.00    -0.046 A 
ATOM      3  C   LIG    1       25.439 -13.351   4.560  0.00  0.00    +0.003 A 
ATOM      4  C   LIG    1       24.276 -12.578   4.548  0.00  0.00    +0.000 A 
ATOM      5  C   LIG    1       23.823 -12.014   3.357  0.00  0.00    +0.000 A 
ATOM      6  C   LIG    1       24.532 -12.227   2.176  0.00  0.00    +0.000 A 
ATOM      7  C   LIG    1       25.696 -12.998   2.186  0.00  0.00    +0.003 A 
ENDBRANCH   1   2
BRANCH   1   8
ATOM      8  C   LIG    1       27.201 -15.825   3.845  0.00  0.00    +0.103 C 
BRANCH   8   9
ATOM      9  N   LIG    1       26.107 -16.433   3.070  0.00  0.00    -0.259 NA
ATOM     10  H   LIG    1       25.209 -16.047   3.377  0.00  0.00    +0.140 HD
BRANCH   9  11
ATOM     11  N   LIG    1       26.174 -17.867   3.206  0.00  0.00    -0.271 NA
ATOM     12  H   LIG    1       25.415 -18.246   3.779  0.00  0.00    +0.137 HD
ATOM     13  H   LIG    1       26.107 -18.330   2.295  0.00  0.00    +0.137 HD
ENDBRANCH   9  11
ENDBRANCH   8   9
ENDBRANCH   1   8
TORSDOF 4
ENDMDL
MODEL 9
REMARK VINA RESULT:      -4.9      5.594      6.721
REMARK  Name = *****
REMARK                            x       y       z     vdW  Elec       q    Type
REMARK                         _______ _______ _______ _____ _____    ______ ____
ROOT
ATOM      1  C   LIG    1       26.473 -15.316   3.300  0.00  0.00    +0.051 C 
ENDROOT
BRANCH   1   2
ATOM      2  C   LIG    1       25.600 -14.081   3.290  0.00  0.00    -0.046 A 
ATOM      3  C   LIG    1       25.460 -13.314   2.125  0.00  0.00    +0.003 A 
ATOM      4  C   LIG    1       24.629 -12.193   2.109  0.00  0.00    +0.000 A 
ATOM      5  C   LIG    1       23.929 -11.826   3.257  0.00  0.00    +0.000 A 
ATOM      6  C   LIG    1       24.064 -12.577   4.422  0.00  0.00    +0.000 A 
ATOM      7  C   LIG    1       24.893 -13.700   4.439  0.00  0.00    +0.003 A 
ENDBRANCH   1   2
BRANCH   1   8
ATOM      8  C   LIG    1       25.644 -16.608   3.345  0.00  0.00    +0.103 C 
BRANCH   8   9
ATOM      9  N   LIG    1       26.523 -17.788   3.283  0.00  0.00    -0.259 NA
ATOM     10  H   LIG    1       27.024 -17.800   2.389  0.00  0.00    +0.140 HD
BRANCH   9  11
ATOM     11  N   LIG    1       25.733 -18.976   3.496  0.00  0.00    -0.271 NA
ATOM     12  H   LIG    1       25.103 -18.894   4.298  0.00  0.00    +0.137 HD
ATOM     13  H   LIG    1       25.143 -19.179   2.684  0.00  0.00    +0.137 HD
ENDBRANCH   9  11
ENDBRANCH   8   9
ENDBRANCH   1   8
TORSDOF 4
ENDMDL
