MODEL 1
REMARK VINA RESULT:      -5.7      0.000      0.000
REMARK  Name = *****
REMARK                            x       y       z     vdW  Elec       q    Type
REMARK                         _______ _______ _______ _____ _____    ______ ____
ROOT
ATOM      1  C   LIG    1       21.882 -17.716   4.427  0.00  0.00    -0.027 C 
ATOM      2  C   LIG    1       22.058 -16.517   4.776  0.00  0.00    -0.027 C 
ENDROOT
BRANCH   1   3
ATOM      3  C   LIG    1       22.817 -18.814   4.445  0.00  0.00    +0.054 C 
BRANCH   3   5
ATOM      4  C   LIG    1       23.004 -20.597   6.211  0.00  0.00    -0.027 C 
ATOM      5  C   LIG    1       22.325 -19.628   5.574  0.00  0.00    -0.027 C 
BRANCH   4   6
ATOM      6  C   LIG    1       24.285 -21.247   5.758  0.00  0.00    +0.054 C 
BRANCH   6   8
ATOM      7  C   LIG    1       25.108 -20.490   3.414  0.00  0.00    -0.027 C 
ATOM      8  C   LIG    1       24.487 -21.342   4.264  0.00  0.00    -0.027 C 
BRANCH   7   9
ATOM      9  C   LIG    1       25.859 -19.187   3.674  0.00  0.00    +0.054 C 
BRANCH   9  11
ATOM     10  C   LIG    1       27.565 -20.209   5.336  0.00  0.00    -0.031 C 
ATOM     11  C   LIG    1       26.706 -19.226   4.964  0.00  0.00    -0.027 C 
BRANCH  10  13
ATOM     12  C   LIG    1       29.475 -18.950   7.037  0.00  0.00    +0.008 C 
ATOM     13  C   LIG    1       28.607 -20.173   6.503  0.00  0.00    +0.023 C 
ENDBRANCH  10  13
ENDBRANCH   9  11
ENDBRANCH   7   9
ENDBRANCH   6   8
ENDBRANCH   4   6
ENDBRANCH   3   5
ENDBRANCH   1   3
BRANCH   2  14
ATOM     14  C   LIG    1       23.123 -15.569   5.221  0.00  0.00    +0.054 C 
BRANCH  14  15
ATOM     15  C   LIG    1       23.243 -14.616   4.126  0.00  0.00    -0.027 C 
ATOM     16  C   LIG    1       23.910 -13.477   4.281  0.00  0.00    -0.031 C 
BRANCH  16  17
ATOM     17  C   LIG    1       24.164 -12.601   3.120  0.00  0.00    +0.027 C 
BRANCH  17  18
ATOM     18  C   LIG    1       24.986 -13.405   2.150  0.00  0.00    +0.015 C 
BRANCH  18  19
ATOM     19  C   LIG    1       26.468 -13.430   2.490  0.00  0.00    +0.121 C 
BRANCH  19  20
ATOM     20  C   LIG    1       26.881 -14.740   3.126  0.00  0.00    +0.307 C 
ATOM     21  O   LIG    1       26.237 -15.776   3.034  0.00  0.00    -0.251 OA
BRANCH  20  22
ATOM     22  O   LIG    1       28.033 -14.607   3.833  0.00  0.00    -0.465 OA
BRANCH  22  23
ATOM     23  C   LIG    1       28.686 -13.333   3.771  0.00  0.00    +0.228 C 
ATOM     24  C   LIG    1       28.371 -12.535   5.029  0.00  0.00    +0.048 C 
ENDBRANCH  22  23
ENDBRANCH  20  22
ENDBRANCH  19  20
ENDBRANCH  18  19
ENDBRANCH  17  18
ENDBRANCH  16  17
ENDBRANCH  14  15
ENDBRANCH   2  14
TORSDOF 15
ENDMDL
MODEL 2
REMARK VINA RESULT:      -5.6      2.265      6.774
REMARK  Name = *****
REMARK                            x       y       z     vdW  Elec       q    Type
REMARK                         _______ _______ _______ _____ _____    ______ ____
ROOT
ATOM      1  C   LIG    1       23.869 -14.056   3.748  0.00  0.00    -0.027 C 
ATOM      2  C   LIG    1       23.260 -15.121   4.037  0.00  0.00    -0.027 C 
ENDROOT
BRANCH   1   3
ATOM      3  C   LIG    1       23.828 -12.776   4.412  0.00  0.00    +0.054 C 
BRANCH   3   5
ATOM      4  C   LIG    1       24.815 -11.920   2.261  0.00  0.00    -0.027 C 
ATOM      5  C   LIG    1       23.946 -11.833   3.283  0.00  0.00    -0.027 C 
BRANCH   4   6
ATOM      6  C   LIG    1       26.019 -12.822   2.176  0.00  0.00    +0.054 C 
BRANCH   6   8
ATOM      7  C   LIG    1       28.029 -12.985   3.812  0.00  0.00    -0.027 C 
ATOM      8  C   LIG    1       27.254 -12.346   2.904  0.00  0.00    -0.027 C 
BRANCH   7   9
ATOM      9  C   LIG    1       27.957 -14.404   4.367  0.00  0.00    +0.054 C 
BRANCH   9  11
ATOM     10  C   LIG    1       26.722 -16.613   3.806  0.00  0.00    -0.031 C 
ATOM     11  C   LIG    1       27.121 -15.356   3.484  0.00  0.00    -0.027 C 
BRANCH  10  13
ATOM     12  C   LIG    1       25.365 -19.054   3.239  0.00  0.00    +0.008 C 
ATOM     13  C   LIG    1       25.687 -17.508   3.046  0.00  0.00    +0.023 C 
ENDBRANCH  10  13
ENDBRANCH   9  11
ENDBRANCH   7   9
ENDBRANCH   6   8
ENDBRANCH   4   6
ENDBRANCH   3   5
ENDBRANCH   1   3
BRANCH   2  14
ATOM     14  C   LIG    1       22.216 -15.662   4.960  0.00  0.00    +0.054 C 
BRANCH  14  15
ATOM     15  C   LIG    1       22.571 -17.065   5.126  0.00  0.00    -0.027 C 
ATOM     16  C   LIG    1       21.885 -18.021   4.506  0.00  0.00    -0.031 C 
BRANCH  16  17
ATOM     17  C   LIG    1       22.354 -19.420   4.549  0.00  0.00    +0.027 C 
BRANCH  17  18
ATOM     18  C   LIG    1       22.706 -19.708   5.984  0.00  0.00    +0.015 C 
BRANCH  18  19
ATOM     19  C   LIG    1       23.217 -21.122   6.208  0.00  0.00    +0.121 C 
BRANCH  19  20
ATOM     20  C   LIG    1       24.702 -21.237   5.938  0.00  0.00    +0.307 C 
ATOM     21  O   LIG    1       25.176 -21.571   4.861  0.00  0.00    -0.251 OA
BRANCH  20  22
ATOM     22  O   LIG    1       25.431 -20.954   7.049  0.00  0.00    -0.465 OA
BRANCH  22  23
ATOM     23  C   LIG    1       26.816 -21.320   7.023  0.00  0.00    +0.228 C 
ATOM     24  C   LIG    1       27.670 -20.076   6.821  0.00  0.00    +0.048 C 
ENDBRANCH  22  23
ENDBRANCH  20  22
ENDBRANCH  19  20
ENDBRANCH  18  19
ENDBRANCH  17  18
ENDBRANCH  16  17
ENDBRANCH  14  15
ENDBRANCH   2  14
TORSDOF 15
ENDMDL
MODEL 3
REMARK VINA RESULT:      -5.6      1.385      2.878
REMARK  Name = *****
REMARK                            x       y       z     vdW  Elec       q    Type
REMARK                         _______ _______ _______ _____ _____    ______ ____
ROOT
ATOM      1  C   LIG    1       24.196 -19.993   3.968  0.00  0.00    -0.027 C 
ATOM      2  C   LIG    1       23.427 -18.998   4.068  0.00  0.00    -0.027 C 
ENDROOT
BRANCH   1   3
ATOM      3  C   LIG    1       23.933 -21.379   4.268  0.00  0.00    +0.054 C 
BRANCH   3   5
ATOM      4  C   LIG    1       24.649 -20.917   6.635  0.00  0.00    -0.027 C 
ATOM      5  C   LIG    1       23.755 -21.356   5.733  0.00  0.00    -0.027 C 
BRANCH   4   6
ATOM      6  C   LIG    1       26.103 -20.611   6.390  0.00  0.00    +0.054 C 
BRANCH   6   8
ATOM      7  C   LIG    1       28.446 -21.509   7.062  0.00  0.00    -0.027 C 
ATOM      8  C   LIG    1       27.094 -21.565   7.016  0.00  0.00    -0.027 C 
BRANCH   7   9
ATOM      9  C   LIG    1       29.421 -20.450   6.555  0.00  0.00    +0.054 C 
BRANCH   9  11
ATOM     10  C   LIG    1       29.194 -18.277   5.162  0.00  0.00    -0.031 C 
ATOM     11  C   LIG    1       28.719 -19.163   6.073  0.00  0.00    -0.027 C 
BRANCH  10  13
ATOM     12  C   LIG    1       26.997 -17.121   3.761  0.00  0.00    +0.008 C 
ATOM     13  C   LIG    1       28.417 -17.102   4.479  0.00  0.00    +0.023 C 
ENDBRANCH  10  13
ENDBRANCH   9  11
ENDBRANCH   7   9
ENDBRANCH   6   8
ENDBRANCH   4   6
ENDBRANCH   3   5
ENDBRANCH   1   3
BRANCH   2  14
ATOM     14  C   LIG    1       22.074 -18.607   4.565  0.00  0.00    +0.054 C 
BRANCH  14  15
ATOM     15  C   LIG    1       22.158 -17.165   4.750  0.00  0.00    -0.027 C 
ATOM     16  C   LIG    1       23.282 -16.507   4.485  0.00  0.00    -0.031 C 
BRANCH  16  17
ATOM     17  C   LIG    1       23.305 -15.031   4.519  0.00  0.00    +0.027 C 
BRANCH  17  18
ATOM     18  C   LIG    1       24.172 -14.592   3.369  0.00  0.00    +0.015 C 
BRANCH  18  19
ATOM     19  C   LIG    1       25.337 -13.712   3.794  0.00  0.00    +0.121 C 
BRANCH  19  20
ATOM     20  C   LIG    1       26.553 -13.920   2.916  0.00  0.00    +0.307 C 
ATOM     21  O   LIG    1       26.545 -14.576   1.884  0.00  0.00    -0.251 OA
BRANCH  20  22
ATOM     22  O   LIG    1       27.650 -13.314   3.438  0.00  0.00    -0.465 OA
BRANCH  22  23
ATOM     23  C   LIG    1       27.818 -13.395   4.859  0.00  0.00    +0.228 C 
ATOM     24  C   LIG    1       28.678 -12.232   5.339  0.00  0.00    +0.048 C 
ENDBRANCH  22  23
ENDBRANCH  20  22
ENDBRANCH  19  20
ENDBRANCH  18  19
ENDBRANCH  17  18
ENDBRANCH  16  17
ENDBRANCH  14  15
ENDBRANCH   2  14
TORSDOF 15
ENDMDL
MODEL 4
REMARK VINA RESULT:      -5.3      1.400      1.990
REMARK  Name = *****
REMARK                            x       y       z     vdW  Elec       q    Type
REMARK                         _______ _______ _______ _____ _____    ______ ____
ROOT
ATOM      1  C   LIG    1       24.159 -17.851   3.688  0.00  0.00    -0.027 C 
ATOM      2  C   LIG    1       24.109 -16.666   4.118  0.00  0.00    -0.027 C 
ENDROOT
BRANCH   1   3
ATOM      3  C   LIG    1       23.078 -18.771   3.432  0.00  0.00    +0.054 C 
BRANCH   3   5
ATOM      4  C   LIG    1       22.238 -19.833   5.553  0.00  0.00    -0.027 C 
ATOM      5  C   LIG    1       22.363 -18.783   4.723  0.00  0.00    -0.027 C 
BRANCH   4   6
ATOM      6  C   LIG    1       22.553 -21.272   5.240  0.00  0.00    +0.054 C 
BRANCH   6   8
ATOM      7  C   LIG    1       25.137 -21.467   5.422  0.00  0.00    -0.027 C 
ATOM      8  C   LIG    1       23.959 -21.552   4.761  0.00  0.00    -0.027 C 
BRANCH   7   9
ATOM      9  C   LIG    1       25.446 -21.117   6.875  0.00  0.00    +0.054 C 
BRANCH   9  11
ATOM     10  C   LIG    1       27.789 -20.328   6.099  0.00  0.00    -0.031 C 
ATOM     11  C   LIG    1       26.848 -20.498   7.062  0.00  0.00    -0.027 C 
BRANCH  10  13
ATOM     12  C   LIG    1       29.475 -18.104   5.521  0.00  0.00    +0.008 C 
ATOM     13  C   LIG    1       29.113 -19.498   6.197  0.00  0.00    +0.023 C 
ENDBRANCH  10  13
ENDBRANCH   9  11
ENDBRANCH   7   9
ENDBRANCH   6   8
ENDBRANCH   4   6
ENDBRANCH   3   5
ENDBRANCH   1   3
BRANCH   2  14
ATOM     14  C   LIG    1       23.153 -15.655   4.662  0.00  0.00    +0.054 C 
BRANCH  14  15
ATOM     15  C   LIG    1       23.517 -14.415   3.991  0.00  0.00    -0.027 C 
ATOM     16  C   LIG    1       24.587 -14.352   3.205  0.00  0.00    -0.031 C 
BRANCH  16  17
ATOM     17  C   LIG    1       24.849 -13.140   2.403  0.00  0.00    +0.027 C 
BRANCH  17  18
ATOM     18  C   LIG    1       26.338 -13.085   2.188  0.00  0.00    +0.015 C 
BRANCH  18  19
ATOM     19  C   LIG    1       27.111 -14.046   3.077  0.00  0.00    +0.121 C 
BRANCH  19  20
ATOM     20  C   LIG    1       28.265 -13.362   3.781  0.00  0.00    +0.307 C 
ATOM     21  O   LIG    1       29.404 -13.316   3.337  0.00  0.00    -0.251 OA
BRANCH  20  22
ATOM     22  O   LIG    1       27.879 -12.841   4.974  0.00  0.00    -0.465 OA
BRANCH  22  23
ATOM     23  C   LIG    1       27.206 -13.726   5.878  0.00  0.00    +0.228 C 
ATOM     24  C   LIG    1       25.884 -13.106   6.312  0.00  0.00    +0.048 C 
ENDBRANCH  22  23
ENDBRANCH  20  22
ENDBRANCH  19  20
ENDBRANCH  18  19
ENDBRANCH  17  18
ENDBRANCH  16  17
ENDBRANCH  14  15
ENDBRANCH   2  14
TORSDOF 15
ENDMDL
MODEL 5
REMARK VINA RESULT:      -5.2      1.223      5.032
REMARK  Name = *****
REMARK                            x       y       z     vdW  Elec       q    Type
REMARK                         _______ _______ _______ _____ _____    ______ ____
ROOT
ATOM      1  C   LIG    1       24.648 -21.502   6.280  0.00  0.00    -0.027 C 
ATOM      2  C   LIG    1       25.907 -21.572   6.246  0.00  0.00    -0.027 C 
ENDROOT
BRANCH   1   3
ATOM      3  C   LIG    1       23.808 -20.586   7.012  0.00  0.00    +0.054 C 
BRANCH   3   5
ATOM      4  C   LIG    1       22.599 -20.630   4.805  0.00  0.00    -0.027 C 
ATOM      5  C   LIG    1       22.620 -20.486   6.141  0.00  0.00    -0.027 C 
BRANCH   4   6
ATOM      6  C   LIG    1       23.789 -20.653   3.882  0.00  0.00    +0.054 C 
BRANCH   6   8
ATOM      7  C   LIG    1       24.011 -18.065   3.852  0.00  0.00    -0.027 C 
ATOM      8  C   LIG    1       24.465 -19.323   3.640  0.00  0.00    -0.027 C 
BRANCH   7   9
ATOM      9  C   LIG    1       22.701 -17.562   4.451  0.00  0.00    +0.054 C 
BRANCH   9  11
ATOM     10  C   LIG    1       23.642 -15.147   4.407  0.00  0.00    -0.031 C 
ATOM     11  C   LIG    1       22.606 -16.021   4.486  0.00  0.00    -0.027 C 
BRANCH  10  13
ATOM     12  C   LIG    1       24.123 -12.717   2.999  0.00  0.00    +0.008 C 
ATOM     13  C   LIG    1       23.567 -13.598   4.202  0.00  0.00    +0.023 C 
ENDBRANCH  10  13
ENDBRANCH   9  11
ENDBRANCH   7   9
ENDBRANCH   6   8
ENDBRANCH   4   6
ENDBRANCH   3   5
ENDBRANCH   1   3
BRANCH   2  14
ATOM     14  C   LIG    1       27.131 -20.993   6.877  0.00  0.00    +0.054 C 
BRANCH  14  15
ATOM     15  C   LIG    1       27.524 -19.913   5.983  0.00  0.00    -0.027 C 
ATOM     16  C   LIG    1       28.669 -19.260   6.161  0.00  0.00    -0.031 C 
BRANCH  16  17
ATOM     17  C   LIG    1       29.132 -18.284   5.156  0.00  0.00    +0.027 C 
BRANCH  17  18
ATOM     18  C   LIG    1       27.898 -17.628   4.597  0.00  0.00    +0.015 C 
BRANCH  18  19
ATOM     19  C   LIG    1       28.068 -16.139   4.345  0.00  0.00    +0.121 C 
BRANCH  19  20
ATOM     20  C   LIG    1       27.037 -15.608   3.371  0.00  0.00    +0.307 C 
ATOM     21  O   LIG    1       26.172 -16.298   2.850  0.00  0.00    -0.251 OA
BRANCH  20  22
ATOM     22  O   LIG    1       27.218 -14.284   3.131  0.00  0.00    -0.465 OA
BRANCH  22  23
ATOM     23  C   LIG    1       27.481 -13.450   4.266  0.00  0.00    +0.228 C 
ATOM     24  C   LIG    1       28.867 -12.832   4.136  0.00  0.00    +0.048 C 
ENDBRANCH  22  23
ENDBRANCH  20  22
ENDBRANCH  19  20
ENDBRANCH  18  19
ENDBRANCH  17  18
ENDBRANCH  16  17
ENDBRANCH  14  15
ENDBRANCH   2  14
TORSDOF 15
ENDMDL
MODEL 6
REMARK VINA RESULT:      -5.1      1.940      7.483
REMARK  Name = *****
REMARK                            x       y       z     vdW  Elec       q    Type
REMARK                         _______ _______ _______ _____ _____    ______ ____
ROOT
ATOM      1  C   LIG    1       29.400 -18.725   5.174  0.00  0.00    -0.027 C 
ATOM      2  C   LIG    1       29.265 -19.746   5.901  0.00  0.00    -0.027 C 
ENDROOT
BRANCH   1   3
ATOM      3  C   LIG    1       28.795 -17.423   5.313  0.00  0.00    +0.054 C 
BRANCH   3   5
ATOM      4  C   LIG    1       27.142 -16.496   3.658  0.00  0.00    -0.027 C 
ATOM      5  C   LIG    1       27.653 -17.506   4.382  0.00  0.00    -0.027 C 
BRANCH   4   6
ATOM      6  C   LIG    1       27.431 -15.028   3.829  0.00  0.00    +0.054 C 
BRANCH   6   8
ATOM      7  C   LIG    1       26.085 -13.108   2.712  0.00  0.00    -0.027 C 
ATOM      8  C   LIG    1       26.974 -14.128   2.704  0.00  0.00    -0.027 C 
BRANCH   7   9
ATOM      9  C   LIG    1       25.289 -12.483   3.855  0.00  0.00    +0.054 C 
BRANCH   9  11
ATOM     10  C   LIG    1       23.696 -14.526   3.907  0.00  0.00    -0.031 C 
ATOM     11  C   LIG    1       24.297 -13.469   4.509  0.00  0.00    -0.027 C 
BRANCH  10  13
ATOM     12  C   LIG    1       21.963 -15.618   5.890  0.00  0.00    +0.008 C 
ATOM     13  C   LIG    1       22.880 -15.674   4.591  0.00  0.00    +0.023 C 
ENDBRANCH  10  13
ENDBRANCH   9  11
ENDBRANCH   7   9
ENDBRANCH   6   8
ENDBRANCH   4   6
ENDBRANCH   3   5
ENDBRANCH   1   3
BRANCH   2  14
ATOM     14  C   LIG    1       28.480 -20.264   7.062  0.00  0.00    +0.054 C 
BRANCH  14  15
ATOM     15  C   LIG    1       27.112 -20.346   6.567  0.00  0.00    -0.027 C 
ATOM     16  C   LIG    1       26.260 -21.240   7.059  0.00  0.00    -0.031 C 
BRANCH  16  17
ATOM     17  C   LIG    1       24.837 -21.203   6.669  0.00  0.00    +0.027 C 
BRANCH  17  18
ATOM     18  C   LIG    1       24.787 -21.538   5.203  0.00  0.00    +0.015 C 
BRANCH  18  19
ATOM     19  C   LIG    1       23.624 -20.883   4.474  0.00  0.00    +0.121 C 
BRANCH  19  20
ATOM     20  C   LIG    1       24.057 -19.650   3.709  0.00  0.00    +0.307 C 
ATOM     21  O   LIG    1       25.213 -19.422   3.382  0.00  0.00    -0.251 OA
BRANCH  20  22
ATOM     22  O   LIG    1       23.007 -18.824   3.465  0.00  0.00    -0.465 OA
BRANCH  22  23
ATOM     23  C   LIG    1       21.760 -19.163   4.085  0.00  0.00    +0.228 C 
ATOM     24  C   LIG    1       20.626 -18.415   3.397  0.00  0.00    +0.048 C 
ENDBRANCH  22  23
ENDBRANCH  20  22
ENDBRANCH  19  20
ENDBRANCH  18  19
ENDBRANCH  17  18
ENDBRANCH  16  17
ENDBRANCH  14  15
ENDBRANCH   2  14
TORSDOF 15
ENDMDL
MODEL 7
REMARK VINA RESULT:      -5.1      1.492      4.938
REMARK  Name = *****
REMARK                            x       y       z     vdW  Elec       q    Type
REMARK                         _______ _______ _______ _____ _____    ______ ____
ROOT
ATOM      1  C   LIG    1       27.935 -19.764   7.061  0.00  0.00    -0.027 C 
ATOM      2  C   LIG    1       28.551 -18.831   6.477  0.00  0.00    -0.027 C 
ENDROOT
BRANCH   1   3
ATOM      3  C   LIG    1       27.816 -21.151   6.684  0.00  0.00    +0.054 C 
BRANCH   3   5
ATOM      4  C   LIG    1       25.515 -20.873   5.705  0.00  0.00    -0.027 C 
ATOM      5  C   LIG    1       26.834 -21.094   5.583  0.00  0.00    -0.027 C 
BRANCH   4   6
ATOM      6  C   LIG    1       24.709 -20.905   6.977  0.00  0.00    +0.054 C 
BRANCH   6   8
ATOM      7  C   LIG    1       22.463 -20.535   5.724  0.00  0.00    -0.027 C 
ATOM      8  C   LIG    1       23.207 -20.852   6.810  0.00  0.00    -0.027 C 
BRANCH   7   9
ATOM      9  C   LIG    1       22.874 -20.181   4.298  0.00  0.00    +0.054 C 
BRANCH   9  11
ATOM     10  C   LIG    1       22.125 -17.745   4.771  0.00  0.00    -0.031 C 
ATOM     11  C   LIG    1       22.701 -18.681   3.974  0.00  0.00    -0.027 C 
BRANCH  10  13
ATOM     12  C   LIG    1       23.361 -15.177   4.736  0.00  0.00    +0.008 C 
ATOM     13  C   LIG    1       22.144 -16.192   4.584  0.00  0.00    +0.023 C 
ENDBRANCH  10  13
ENDBRANCH   9  11
ENDBRANCH   7   9
ENDBRANCH   6   8
ENDBRANCH   4   6
ENDBRANCH   3   5
ENDBRANCH   1   3
BRANCH   2  14
ATOM     14  C   LIG    1       29.302 -18.528   5.222  0.00  0.00    +0.054 C 
BRANCH  14  15
ATOM     15  C   LIG    1       28.443 -17.599   4.500  0.00  0.00    -0.027 C 
ATOM     16  C   LIG    1       27.239 -17.970   4.077  0.00  0.00    -0.031 C 
BRANCH  16  17
ATOM     17  C   LIG    1       26.316 -16.976   3.496  0.00  0.00    +0.027 C 
BRANCH  17  18
ATOM     18  C   LIG    1       27.083 -15.683   3.406  0.00  0.00    +0.015 C 
BRANCH  18  19
ATOM     19  C   LIG    1       26.321 -14.579   2.690  0.00  0.00    +0.121 C 
BRANCH  19  20
ATOM     20  C   LIG    1       26.773 -13.203   3.130  0.00  0.00    +0.307 C 
ATOM     21  O   LIG    1       27.637 -13.006   3.974  0.00  0.00    -0.251 OA
BRANCH  20  22
ATOM     22  O   LIG    1       26.078 -12.225   2.493  0.00  0.00    -0.465 OA
BRANCH  22  23
ATOM     23  C   LIG    1       24.697 -12.489   2.219  0.00  0.00    +0.228 C 
ATOM     24  C   LIG    1       23.828 -11.820   3.276  0.00  0.00    +0.048 C 
ENDBRANCH  22  23
ENDBRANCH  20  22
ENDBRANCH  19  20
ENDBRANCH  18  19
ENDBRANCH  17  18
ENDBRANCH  16  17
ENDBRANCH  14  15
ENDBRANCH   2  14
TORSDOF 15
ENDMDL
MODEL 8
REMARK VINA RESULT:      -5.0      2.295      5.845
REMARK  Name = *****
REMARK                            x       y       z     vdW  Elec       q    Type
REMARK                         _______ _______ _______ _____ _____    ______ ____
ROOT
ATOM      1  C   LIG    1       24.449 -12.030   2.688  0.00  0.00    -0.027 C 
ATOM      2  C   LIG    1       23.809 -12.166   3.765  0.00  0.00    -0.027 C 
ENDROOT
BRANCH   1   3
ATOM      3  C   LIG    1       25.137 -13.028   1.906  0.00  0.00    +0.054 C 
BRANCH   3   5
ATOM      4  C   LIG    1       27.257 -13.509   3.172  0.00  0.00    -0.027 C 
ATOM      5  C   LIG    1       26.547 -12.802   2.277  0.00  0.00    -0.027 C 
BRANCH   4   6
ATOM      6  C   LIG    1       26.718 -14.493   4.177  0.00  0.00    +0.054 C 
BRANCH   6   8
ATOM      7  C   LIG    1       27.372 -16.976   3.790  0.00  0.00    -0.027 C 
ATOM      8  C   LIG    1       26.543 -15.911   3.685  0.00  0.00    -0.027 C 
BRANCH   7   9
ATOM      9  C   LIG    1       28.725 -17.128   4.480  0.00  0.00    +0.054 C 
BRANCH   9  11
ATOM     10  C   LIG    1       29.153 -18.828   6.389  0.00  0.00    -0.031 C 
ATOM     11  C   LIG    1       28.942 -18.533   5.081  0.00  0.00    -0.027 C 
BRANCH  10  13
ATOM     12  C   LIG    1       28.104 -21.434   6.871  0.00  0.00    +0.008 C 
ATOM     13  C   LIG    1       29.140 -20.241   7.062  0.00  0.00    +0.023 C 
ENDBRANCH  10  13
ENDBRANCH   9  11
ENDBRANCH   7   9
ENDBRANCH   6   8
ENDBRANCH   4   6
ENDBRANCH   3   5
ENDBRANCH   1   3
BRANCH   2  14
ATOM     14  C   LIG    1       23.487 -13.175   4.819  0.00  0.00    +0.054 C 
BRANCH  14  15
ATOM     15  C   LIG    1       23.252 -14.408   4.081  0.00  0.00    -0.027 C 
ATOM     16  C   LIG    1       23.134 -15.572   4.713  0.00  0.00    -0.031 C 
BRANCH  16  17
ATOM     17  C   LIG    1       22.733 -16.784   3.972  0.00  0.00    +0.027 C 
BRANCH  17  18
ATOM     18  C   LIG    1       22.199 -17.751   4.994  0.00  0.00    +0.015 C 
BRANCH  18  19
ATOM     19  C   LIG    1       22.090 -19.176   4.475  0.00  0.00    +0.121 C 
BRANCH  19  20
ATOM     20  C   LIG    1       22.836 -20.158   5.355  0.00  0.00    +0.307 C 
ATOM     21  O   LIG    1       22.818 -20.127   6.578  0.00  0.00    -0.251 OA
BRANCH  20  22
ATOM     22  O   LIG    1       23.546 -21.047   4.614  0.00  0.00    -0.465 OA
BRANCH  22  23
ATOM     23  C   LIG    1       24.950 -21.136   4.884  0.00  0.00    +0.228 C 
ATOM     24  C   LIG    1       25.682 -20.010   4.166  0.00  0.00    +0.048 C 
ENDBRANCH  22  23
ENDBRANCH  20  22
ENDBRANCH  19  20
ENDBRANCH  18  19
ENDBRANCH  17  18
ENDBRANCH  16  17
ENDBRANCH  14  15
ENDBRANCH   2  14
TORSDOF 15
ENDMDL
MODEL 9
REMARK VINA RESULT:      -4.1      2.257      7.616
REMARK  Name = *****
REMARK                            x       y       z     vdW  Elec       q    Type
REMARK                         _______ _______ _______ _____ _____    ______ ____
ROOT
ATOM      1  C   LIG    1       26.100 -16.939   3.312  0.00  0.00    -0.027 C 
ATOM      2  C   LIG    1       27.064 -17.505   3.896  0.00  0.00    -0.027 C 
ENDROOT
BRANCH   1   3
ATOM      3  C   LIG    1       25.873 -15.532   3.086  0.00  0.00    +0.054 C 
BRANCH   3   5
ATOM      4  C   LIG    1       24.496 -14.214   4.729  0.00  0.00    -0.027 C 
ATOM      5  C   LIG    1       24.682 -15.269   3.918  0.00  0.00    -0.027 C 
BRANCH   4   6
ATOM      6  C   LIG    1       25.541 -13.226   5.177  0.00  0.00    +0.054 C 
BRANCH   6   8
ATOM      7  C   LIG    1       28.081 -13.693   4.901  0.00  0.00    -0.027 C 
ATOM      8  C   LIG    1       26.890 -13.806   5.534  0.00  0.00    -0.027 C 
BRANCH   7   9
ATOM      9  C   LIG    1       28.482 -12.909   3.655  0.00  0.00    +0.054 C 
BRANCH   9  11
ATOM     10  C   LIG    1       26.295 -12.711   2.278  0.00  0.00    -0.031 C 
ATOM     11  C   LIG    1       27.298 -12.159   3.007  0.00  0.00    -0.027 C 
BRANCH  10  13
ATOM     12  C   LIG    1       23.774 -11.447   2.692  0.00  0.00    +0.008 C 
ATOM     13  C   LIG    1       24.967 -12.027   1.812  0.00  0.00    +0.023 C 
ENDBRANCH  10  13
ENDBRANCH   9  11
ENDBRANCH   7   9
ENDBRANCH   6   8
ENDBRANCH   4   6
ENDBRANCH   3   5
ENDBRANCH   1   3
BRANCH   2  14
ATOM     14  C   LIG    1       28.293 -17.205   4.691  0.00  0.00    +0.054 C 
BRANCH  14  15
ATOM     15  C   LIG    1       28.725 -18.502   5.194  0.00  0.00    -0.027 C 
ATOM     16  C   LIG    1       29.196 -18.633   6.430  0.00  0.00    -0.031 C 
BRANCH  16  17
ATOM     17  C   LIG    1       29.474 -19.974   6.981  0.00  0.00    +0.027 C 
BRANCH  17  18
ATOM     18  C   LIG    1       28.434 -20.896   6.404  0.00  0.00    +0.015 C 
BRANCH  18  19
ATOM     19  C   LIG    1       27.066 -20.740   7.048  0.00  0.00    +0.121 C 
BRANCH  19  20
ATOM     20  C   LIG    1       25.960 -20.666   6.016  0.00  0.00    +0.307 C 
ATOM     21  O   LIG    1       26.155 -20.621   4.809  0.00  0.00    -0.251 OA
BRANCH  20  22
ATOM     22  O   LIG    1       24.736 -20.625   6.603  0.00  0.00    -0.465 OA
BRANCH  22  23
ATOM     23  C   LIG    1       23.610 -20.935   5.773  0.00  0.00    +0.228 C 
ATOM     24  C   LIG    1       22.955 -19.645   5.296  0.00  0.00    +0.048 C 
ENDBRANCH  22  23
ENDBRANCH  20  22
ENDBRANCH  19  20
ENDBRANCH  18  19
ENDBRANCH  17  18
ENDBRANCH  16  17
ENDBRANCH  14  15
ENDBRANCH   2  14
TORSDOF 15
ENDMDL
