MODEL 1
REMARK VINA RESULT:      16.7      0.000      0.000
REMARK  Name = *****
REMARK                            x       y       z     vdW  Elec       q    Type
REMARK                         _______ _______ _______ _____ _____    ______ ____
ROOT
ATOM      1  C   LIG    1       25.666 -21.502   7.277  0.00  0.00    +0.045 C 
ATOM      2  C   LIG    1       26.519 -22.767   7.101  0.00  0.00    +0.083 C 
ATOM      3  N   LIG    1       27.515 -23.054   8.111  0.00  0.00    -0.294 NA
ATOM      4  C   LIG    1       28.153 -24.246   7.483  0.00  0.00    +0.086 C 
ATOM      5  C   LIG    1       27.215 -24.702   6.274  0.00  0.00    +0.030 C 
ATOM      6  C   LIG    1       26.832 -23.183   9.413  0.00  0.00    +0.112 C 
ATOM      7  C   LIG    1       25.455 -22.504   9.513  0.00  0.00    -0.015 C 
ATOM      8  C   LIG    1       25.858 -24.165   6.778  0.00  0.00    +0.037 C 
ATOM      9  C   LIG    1       24.444 -23.872   6.163  0.00  0.00    +0.132 C 
ATOM     10  C   LIG    1       24.161 -22.576   5.358  0.00  0.00    +0.220 C 
ATOM     11  N   LIG    1       24.036 -25.129   5.483  0.00  0.00    -0.325 N 
ATOM     12  C   LIG    1       22.653 -25.330   5.035  0.00  0.00    +0.130 C 
ATOM     13  C   LIG    1       24.415 -26.046   6.529  0.00  0.00    +0.037 A 
ATOM     14  C   LIG    1       23.959 -27.349   6.636  0.00  0.00    +0.069 A 
ATOM     15  C   LIG    1       24.468 -28.215   7.607  0.00  0.00    +0.127 A 
ATOM     16  C   LIG    1       25.435 -27.765   8.545  0.00  0.00    +0.017 A 
ATOM     17  C   LIG    1       25.884 -26.403   8.406  0.00  0.00    +0.014 A 
ATOM     18  C   LIG    1       25.379 -25.523   7.416  0.00  0.00    -0.016 A 
ATOM     19  C   LIG    1       24.956 -21.331   5.875  0.00  0.00    +0.232 C 
ATOM     20  C   LIG    1       24.886 -21.753   8.544  0.00  0.00    -0.018 C 
ENDROOT
BRANCH  16  21
ATOM     21  C   LIG    1       26.160 -28.770   9.536  0.00  0.00    +0.136 C 
ATOM     22  C   LIG    1       25.181 -29.629  10.442  0.00  0.00    +0.042 C 
ATOM     23  C   LIG    1       24.156 -29.319  11.363  0.00  0.00    -0.017 C 
ATOM     24  C   LIG    1       23.729 -30.558  11.959  0.00  0.00    +0.003 C 
ATOM     25  C   LIG    1       24.416 -31.590  11.338  0.00  0.00    +0.047 C 
ATOM     26  C   LIG    1       24.228 -32.937  11.672  0.00  0.00    +0.026 C 
ATOM     27  C   LIG    1       23.322 -33.232  12.695  0.00  0.00    +0.002 C 
ATOM     28  C   LIG    1       22.618 -32.219  13.341  0.00  0.00    +0.001 C 
ATOM     29  C   LIG    1       22.805 -30.883  12.976  0.00  0.00    +0.010 C 
ATOM     30  C   LIG    1       23.514 -28.000  11.762  0.00  0.00    +0.053 C 
ATOM     31  C   LIG    1       24.111 -27.349  13.048  0.00  0.00    +0.089 C 
ATOM     32  N   LIG    1       25.048 -26.223  12.836  0.00  0.00    -0.299 NA
ATOM     33  C   LIG    1       25.917 -25.905  13.992  0.00  0.00    +0.119 C 
ATOM     34  C   LIG    1       27.275 -26.694  14.142  0.00  0.00    +0.079 C 
ATOM     35  C   LIG    1       27.895 -27.116  12.785  0.00  0.00    +0.040 C 
ATOM     36  C   LIG    1       26.785 -27.552  11.824  0.00  0.00    +0.007 C 
ATOM     37  C   LIG    1       25.858 -26.367  11.637  0.00  0.00    +0.088 C 
ATOM     38  N   LIG    1       25.227 -31.016  10.392  0.00  0.00    -0.356 NA
ATOM     39  H   LIG    1       25.779 -31.561   9.744  0.00  0.00    +0.166 HD
ATOM     40  C   LIG    1       27.266 -28.132  10.506  0.00  0.00    +0.034 C 
BRANCH  21  41
ATOM     41  C   LIG    1       26.959 -29.775   8.581  0.00  0.00    +0.324 C 
ATOM     42  O   LIG    1       26.968 -29.744   7.357  0.00  0.00    -0.249 OA
BRANCH  41  43
ATOM     43  O   LIG    1       27.638 -30.722   9.300  0.00  0.00    -0.467 OA
ATOM     44  C   LIG    1       27.570 -32.076   8.852  0.00  0.00    +0.280 C 
ENDBRANCH  41  43
ENDBRANCH  21  41
BRANCH  34  45
ATOM     45  O   LIG    1       27.040 -27.880  14.920  0.00  0.00    -0.387 OA
ATOM     46  H   LIG    1       27.856 -28.408  14.925  0.00  0.00    +0.210 HD
ENDBRANCH  34  45
BRANCH  34  47
ATOM     47  C   LIG    1       28.275 -25.836  14.951  0.00  0.00    +0.033 C 
ATOM     48  C   LIG    1       28.100 -24.329  14.783  0.00  0.00    +0.007 C 
ENDBRANCH  34  47
ENDBRANCH  16  21
BRANCH   1  50
ATOM     49  C   LIG    1       28.060 -20.385   7.229  0.00  0.00    +0.005 C 
ATOM     50  C   LIG    1       26.565 -20.221   7.520  0.00  0.00    +0.013 C 
ENDBRANCH   1  50
BRANCH  10  51
ATOM     51  O   LIG    1       24.467 -22.856   3.980  0.00  0.00    -0.373 OA
ATOM     52  H   LIG    1       23.819 -22.342   3.454  0.00  0.00    +0.211 HD
ENDBRANCH  10  51
BRANCH  10  53
ATOM     53  C   LIG    1       22.676 -22.138   5.586  0.00  0.00    +0.345 C 
ATOM     54  O   LIG    1       21.947 -22.485   6.516  0.00  0.00    -0.247 OA
BRANCH  53  55
ATOM     55  O   LIG    1       22.264 -21.234   4.652  0.00  0.00    -0.466 OA
ATOM     56  C   LIG    1       22.185 -19.895   5.156  0.00  0.00    +0.280 C 
ENDBRANCH  53  55
ENDBRANCH  10  53
BRANCH  15  57
ATOM     57  O   LIG    1       24.027 -29.511   7.668  0.00  0.00    -0.495 OA
ATOM     58  C   LIG    1       23.964 -30.244   6.448  0.00  0.00    +0.277 C 
ENDBRANCH  15  57
BRANCH  19  59
ATOM     59  O   LIG    1       25.994 -20.946   4.872  0.00  0.00    -0.457 OA
BRANCH  59  60
ATOM     60  C   LIG    1       25.687 -20.013   3.965  0.00  0.00    +0.304 C 
ATOM     61  O   LIG    1       24.828 -20.080   3.122  0.00  0.00    -0.251 OA
ATOM     62  C   LIG    1       26.524 -18.789   4.236  0.00  0.00    +0.136 C 
ENDBRANCH  59  60
ENDBRANCH  19  59
TORSDOF 12
ENDMDL
