MODEL 1
REMARK VINA RESULT:      -3.2      0.000      0.000
REMARK  Name = *****
REMARK                            x       y       z     vdW  Elec       q    Type
REMARK                         _______ _______ _______ _____ _____    ______ ____
ROOT
ATOM      1  N   LIG    1       25.633 -17.498   3.303  0.00  0.00    -0.287 NA
ATOM      2  C   LIG    1       24.317 -17.202   3.895  0.00  0.00    +0.108 C 
ATOM      3  C   LIG    1       23.347 -18.418   3.799  0.00  0.00    +0.039 C 
ATOM      4  C   LIG    1       23.033 -18.779   2.334  0.00  0.00    +0.030 C 
ATOM      5  C   LIG    1       24.030 -19.587   4.546  0.00  0.00    +0.108 C 
ATOM      6  N   LIG    1       25.361 -19.912   4.020  0.00  0.00    -0.287 NA
ATOM      7  C   LIG    1       26.225 -18.713   3.911  0.00  0.00    +0.171 C 
ENDROOT
BRANCH   3   8
ATOM      8  N   LIG    1       22.060 -18.087   4.460  0.00  0.00    -0.323 NA
ATOM      9  H   LIG    1       21.846 -18.791   5.148  0.00  0.00    +0.119 HD
ATOM     10  H   LIG    1       22.187 -17.208   4.999  0.00  0.00    +0.119 HD
ENDBRANCH   3   8
BRANCH   1  11
ATOM     11  C   LIG    1       26.614 -16.386   3.516  0.00  0.00    +0.089 C 
BRANCH  11  12
ATOM     12  C   LIG    1       26.193 -14.901   3.346  0.00  0.00    +0.003 C 
BRANCH  12  13
ATOM     13  C   LIG    1       27.177 -14.063   2.489  0.00  0.00    +0.001 C 
ATOM     14  C   LIG    1       28.133 -13.139   3.236  0.00  0.00    +0.004 C 
ENDBRANCH  12  13
BRANCH  12  15
ATOM     15  C   LIG    1       25.932 -14.173   4.713  0.00  0.00    +0.005 C 
BRANCH  15  16
ATOM     16  C   LIG    1       25.093 -12.882   4.678  0.00  0.00    +0.000 C 
BRANCH  16  18
ATOM     17  C   LIG    1       24.396 -11.731   2.457  0.00  0.00    +0.004 C 
ATOM     18  C   LIG    1       24.096 -12.799   3.501  0.00  0.00    -0.003 C 
ENDBRANCH  16  18
ENDBRANCH  15  16
ENDBRANCH  12  15
ENDBRANCH  11  12
ENDBRANCH   1  11
BRANCH   6  19
ATOM     19  C   LIG    1       26.060 -20.883   4.913  0.00  0.00    +0.089 C 
BRANCH  19  20
ATOM     20  C   LIG    1       25.938 -20.811   6.475  0.00  0.00    +0.003 C 
BRANCH  20  21
ATOM     21  C   LIG    1       24.713 -21.537   7.062  0.00  0.00    +0.001 C 
ATOM     22  C   LIG    1       23.462 -21.501   6.203  0.00  0.00    +0.004 C 
ENDBRANCH  20  21
BRANCH  20  23
ATOM     23  C   LIG    1       27.255 -21.418   7.062  0.00  0.00    +0.005 C 
BRANCH  23  24
ATOM     24  C   LIG    1       28.564 -21.112   6.314  0.00  0.00    +0.000 C 
BRANCH  24  25
ATOM     25  C   LIG    1       29.317 -19.901   6.890  0.00  0.00    -0.003 C 
ATOM     26  C   LIG    1       29.293 -18.672   5.993  0.00  0.00    +0.004 C 
ENDBRANCH  24  25
ENDBRANCH  23  24
ENDBRANCH  20  23
ENDBRANCH  19  20
ENDBRANCH   6  19
TORSDOF 13
ENDMDL
MODEL 2
REMARK VINA RESULT:      -3.0      1.579      4.210
REMARK  Name = *****
REMARK                            x       y       z     vdW  Elec       q    Type
REMARK                         _______ _______ _______ _____ _____    ______ ____
ROOT
ATOM      1  N   LIG    1       27.088 -17.723   4.477  0.00  0.00    -0.287 NA
ATOM      2  C   LIG    1       28.312 -18.526   4.638  0.00  0.00    +0.108 C 
ATOM      3  C   LIG    1       28.111 -19.702   5.640  0.00  0.00    +0.039 C 
ATOM      4  C   LIG    1       27.802 -19.191   7.060  0.00  0.00    +0.030 C 
ATOM      5  C   LIG    1       26.961 -20.568   5.077  0.00  0.00    +0.108 C 
ATOM      6  N   LIG    1       25.718 -19.817   4.866  0.00  0.00    -0.287 NA
ATOM      7  C   LIG    1       25.943 -18.578   4.086  0.00  0.00    +0.171 C 
ENDROOT
BRANCH   3   8
ATOM      8  N   LIG    1       29.353 -20.511   5.719  0.00  0.00    -0.323 NA
ATOM      9  H   LIG    1       29.267 -21.184   6.464  0.00  0.00    +0.119 HD
ATOM     10  H   LIG    1       29.433 -21.073   4.850  0.00  0.00    +0.119 HD
ENDBRANCH   3   8
BRANCH   1  11
ATOM     11  C   LIG    1       27.230 -16.677   3.413  0.00  0.00    +0.089 C 
BRANCH  11  12
ATOM     12  C   LIG    1       27.412 -15.179   3.780  0.00  0.00    +0.003 C 
BRANCH  12  13
ATOM     13  C   LIG    1       26.571 -14.724   4.999  0.00  0.00    +0.001 C 
ATOM     14  C   LIG    1       26.960 -13.404   5.657  0.00  0.00    +0.004 C 
ENDBRANCH  12  13
BRANCH  12  15
ATOM     15  C   LIG    1       27.154 -14.212   2.569  0.00  0.00    +0.005 C 
BRANCH  15  16
ATOM     16  C   LIG    1       25.688 -13.923   2.196  0.00  0.00    +0.000 C 
BRANCH  16  18
ATOM     17  C   LIG    1       23.985 -12.270   3.251  0.00  0.00    +0.004 C 
ATOM     18  C   LIG    1       25.247 -12.459   2.418  0.00  0.00    -0.003 C 
ENDBRANCH  16  18
ENDBRANCH  15  16
ENDBRANCH  12  15
ENDBRANCH  11  12
ENDBRANCH   1  11
BRANCH   6  19
ATOM     19  C   LIG    1       24.723 -20.639   4.116  0.00  0.00    +0.089 C 
BRANCH  19  20
ATOM     20  C   LIG    1       23.178 -20.467   4.324  0.00  0.00    +0.003 C 
BRANCH  20  21
ATOM     21  C   LIG    1       22.679 -20.774   5.747  0.00  0.00    +0.001 C 
ATOM     22  C   LIG    1       23.642 -21.559   6.620  0.00  0.00    +0.004 C 
ENDBRANCH  20  21
BRANCH  20  23
ATOM     23  C   LIG    1       22.830 -18.990   3.939  0.00  0.00    +0.005 C 
BRANCH  23  24
ATOM     24  C   LIG    1       22.268 -18.089   5.052  0.00  0.00    +0.000 C 
BRANCH  24  25
ATOM     25  C   LIG    1       21.962 -16.661   4.572  0.00  0.00    -0.003 C 
ATOM     26  C   LIG    1       23.196 -15.788   4.397  0.00  0.00    +0.004 C 
ENDBRANCH  24  25
ENDBRANCH  23  24
ENDBRANCH  20  23
ENDBRANCH  19  20
ENDBRANCH   6  19
TORSDOF 13
ENDMDL
MODEL 3
REMARK VINA RESULT:      -2.7      1.712      6.822
REMARK  Name = *****
REMARK                            x       y       z     vdW  Elec       q    Type
REMARK                         _______ _______ _______ _____ _____    ______ ____
ROOT
ATOM      1  N   LIG    1       26.475 -19.730   4.249  0.00  0.00    -0.287 NA
ATOM      2  C   LIG    1       27.064 -19.675   5.598  0.00  0.00    +0.108 C 
ATOM      3  C   LIG    1       28.370 -18.826   5.630  0.00  0.00    +0.039 C 
ATOM      4  C   LIG    1       29.475 -19.453   4.758  0.00  0.00    +0.030 C 
ATOM      5  C   LIG    1       27.987 -17.410   5.144  0.00  0.00    +0.108 C 
ATOM      6  N   LIG    1       27.367 -17.401   3.814  0.00  0.00    -0.287 NA
ATOM      7  C   LIG    1       26.249 -18.367   3.714  0.00  0.00    +0.171 C 
ENDROOT
BRANCH   3   8
ATOM      8  N   LIG    1       28.887 -18.755   7.019  0.00  0.00    -0.323 NA
ATOM      9  H   LIG    1       29.803 -18.333   7.014  0.00  0.00    +0.119 HD
ATOM     10  H   LIG    1       28.288 -18.101   7.558  0.00  0.00    +0.119 HD
ENDBRANCH   3   8
BRANCH   1  11
ATOM     11  C   LIG    1       25.147 -20.425   4.236  0.00  0.00    +0.089 C 
BRANCH  11  12
ATOM     12  C   LIG    1       23.876 -19.736   4.805  0.00  0.00    +0.003 C 
BRANCH  12  13
ATOM     13  C   LIG    1       23.175 -20.542   5.929  0.00  0.00    +0.001 C 
ATOM     14  C   LIG    1       22.135 -21.572   5.499  0.00  0.00    +0.004 C 
ENDBRANCH  12  13
BRANCH  12  15
ATOM     15  C   LIG    1       22.831 -19.358   3.696  0.00  0.00    +0.005 C 
BRANCH  15  16
ATOM     16  C   LIG    1       21.845 -18.218   4.014  0.00  0.00    +0.000 C 
BRANCH  16  18
ATOM     17  C   LIG    1       22.750 -15.834   4.504  0.00  0.00    +0.004 C 
ATOM     18  C   LIG    1       22.358 -17.199   5.056  0.00  0.00    -0.003 C 
ENDBRANCH  16  18
ENDBRANCH  15  16
ENDBRANCH  12  15
ENDBRANCH  11  12
ENDBRANCH   1  11
BRANCH   6  19
ATOM     19  C   LIG    1       26.817 -16.050   3.496  0.00  0.00    +0.089 C 
BRANCH  19  20
ATOM     20  C   LIG    1       27.221 -14.775   4.314  0.00  0.00    +0.003 C 
BRANCH  20  21
ATOM     21  C   LIG    1       28.450 -14.021   3.773  0.00  0.00    +0.001 C 
ATOM     22  C   LIG    1       28.533 -12.554   4.153  0.00  0.00    +0.004 C 
ENDBRANCH  20  21
BRANCH  20  23
ATOM     23  C   LIG    1       25.973 -13.829   4.327  0.00  0.00    +0.005 C 
BRANCH  23  24
ATOM     24  C   LIG    1       25.218 -13.646   3.000  0.00  0.00    +0.000 C 
BRANCH  24  25
ATOM     25  C   LIG    1       24.069 -12.628   3.097  0.00  0.00    -0.003 C 
ATOM     26  C   LIG    1       23.884 -12.035   4.486  0.00  0.00    +0.004 C 
ENDBRANCH  24  25
ENDBRANCH  23  24
ENDBRANCH  20  23
ENDBRANCH  19  20
ENDBRANCH   6  19
TORSDOF 13
ENDMDL
MODEL 4
REMARK VINA RESULT:      -2.6      1.010      6.941
REMARK  Name = *****
REMARK                            x       y       z     vdW  Elec       q    Type
REMARK                         _______ _______ _______ _____ _____    ______ ____
ROOT
ATOM      1  N   LIG    1       24.704 -19.361   4.790  0.00  0.00    -0.287 NA
ATOM      2  C   LIG    1       23.472 -19.574   4.012  0.00  0.00    +0.108 C 
ATOM      3  C   LIG    1       22.630 -18.269   3.882  0.00  0.00    +0.039 C 
ATOM      4  C   LIG    1       22.133 -17.776   5.255  0.00  0.00    +0.030 C 
ATOM      5  C   LIG    1       23.539 -17.227   3.190  0.00  0.00    +0.108 C 
ATOM      6  N   LIG    1       24.799 -16.991   3.904  0.00  0.00    -0.287 NA
ATOM      7  C   LIG    1       25.506 -18.254   4.218  0.00  0.00    +0.171 C 
ENDROOT
BRANCH   3   8
ATOM      8  N   LIG    1       21.434 -18.525   3.042  0.00  0.00    -0.323 NA
ATOM      9  H   LIG    1       21.279 -19.519   2.976  0.00  0.00    +0.119 HD
ATOM     10  H   LIG    1       20.602 -18.151   3.537  0.00  0.00    +0.119 HD
ENDBRANCH   3   8
BRANCH   1  11
ATOM     11  C   LIG    1       25.586 -20.573   4.801  0.00  0.00    +0.089 C 
BRANCH  11  12
ATOM     12  C   LIG    1       25.978 -21.267   6.134  0.00  0.00    +0.003 C 
BRANCH  12  13
ATOM     13  C   LIG    1       24.775 -21.571   7.062  0.00  0.00    +0.001 C 
ATOM     14  C   LIG    1       23.426 -20.979   6.666  0.00  0.00    +0.004 C 
ENDBRANCH  12  13
BRANCH  12  15
ATOM     15  C   LIG    1       27.078 -20.483   6.936  0.00  0.00    +0.005 C 
BRANCH  15  16
ATOM     16  C   LIG    1       28.546 -20.884   6.698  0.00  0.00    +0.000 C 
BRANCH  16  18
ATOM     17  C   LIG    1       28.832 -18.609   5.477  0.00  0.00    +0.004 C 
ATOM     18  C   LIG    1       29.475 -19.711   6.310  0.00  0.00    -0.003 C 
ENDBRANCH  16  18
ENDBRANCH  15  16
ENDBRANCH  12  15
ENDBRANCH  11  12
ENDBRANCH   1  11
BRANCH   6  19
ATOM     19  C   LIG    1       25.724 -16.157   3.082  0.00  0.00    +0.089 C 
BRANCH  19  20
ATOM     20  C   LIG    1       26.178 -14.726   3.536  0.00  0.00    +0.003 C 
BRANCH  20  21
ATOM     21  C   LIG    1       27.602 -14.653   4.117  0.00  0.00    +0.001 C 
ATOM     22  C   LIG    1       28.426 -13.458   3.673  0.00  0.00    +0.004 C 
ENDBRANCH  20  21
BRANCH  20  23
ATOM     23  C   LIG    1       26.060 -13.793   2.284  0.00  0.00    +0.005 C 
BRANCH  23  24
ATOM     24  C   LIG    1       24.748 -13.010   2.113  0.00  0.00    +0.000 C 
BRANCH  24  25
ATOM     25  C   LIG    1       23.842 -13.076   3.355  0.00  0.00    -0.003 C 
ATOM     26  C   LIG    1       23.964 -11.871   4.275  0.00  0.00    +0.004 C 
ENDBRANCH  24  25
ENDBRANCH  23  24
ENDBRANCH  20  23
ENDBRANCH  19  20
ENDBRANCH   6  19
TORSDOF 13
ENDMDL
MODEL 5
REMARK VINA RESULT:      -2.3      2.075      6.343
REMARK  Name = *****
REMARK                            x       y       z     vdW  Elec       q    Type
REMARK                         _______ _______ _______ _____ _____    ______ ____
ROOT
ATOM      1  N   LIG    1       26.881 -16.085   3.390  0.00  0.00    -0.287 NA
ATOM      2  C   LIG    1       27.555 -15.261   4.408  0.00  0.00    +0.108 C 
ATOM      3  C   LIG    1       27.048 -13.787   4.396  0.00  0.00    +0.039 C 
ATOM      4  C   LIG    1       27.374 -13.087   3.063  0.00  0.00    +0.030 C 
ATOM      5  C   LIG    1       25.526 -13.843   4.660  0.00  0.00    +0.108 C 
ATOM      6  N   LIG    1       24.799 -14.674   3.693  0.00  0.00    -0.287 NA
ATOM      7  C   LIG    1       25.408 -16.016   3.544  0.00  0.00    +0.171 C 
ENDROOT
BRANCH   3   8
ATOM      8  N   LIG    1       27.715 -13.019   5.476  0.00  0.00    -0.323 NA
ATOM      9  H   LIG    1       27.053 -12.383   5.892  0.00  0.00    +0.119 HD
ATOM     10  H   LIG    1       27.974 -13.679   6.234  0.00  0.00    +0.119 HD
ENDBRANCH   3   8
BRANCH   1  11
ATOM     11  C   LIG    1       27.258 -17.531   3.488  0.00  0.00    +0.089 C 
BRANCH  11  12
ATOM     12  C   LIG    1       27.571 -18.187   4.861  0.00  0.00    +0.003 C 
BRANCH  12  13
ATOM     13  C   LIG    1       29.073 -18.157   5.244  0.00  0.00    +0.001 C 
ATOM     14  C   LIG    1       29.456 -18.744   6.598  0.00  0.00    +0.004 C 
ENDBRANCH  12  13
BRANCH  12  15
ATOM     15  C   LIG    1       27.025 -19.655   4.982  0.00  0.00    +0.005 C 
BRANCH  15  16
ATOM     16  C   LIG    1       26.521 -20.110   6.364  0.00  0.00    +0.000 C 
BRANCH  16  18
ATOM     17  C   LIG    1       24.359 -21.444   6.902  0.00  0.00    +0.004 C 
ATOM     18  C   LIG    1       25.783 -21.468   6.362  0.00  0.00    -0.003 C 
ENDBRANCH  16  18
ENDBRANCH  15  16
ENDBRANCH  12  15
ENDBRANCH  11  12
ENDBRANCH   1  11
BRANCH   6  19
ATOM     19  C   LIG    1       23.384 -14.874   4.125  0.00  0.00    +0.089 C 
BRANCH  19  20
ATOM     20  C   LIG    1       22.930 -16.148   4.919  0.00  0.00    +0.003 C 
BRANCH  20  21
ATOM     21  C   LIG    1       21.862 -15.891   5.997  0.00  0.00    +0.001 C 
ATOM     22  C   LIG    1       21.769 -14.460   6.494  0.00  0.00    +0.004 C 
ENDBRANCH  20  21
BRANCH  20  23
ATOM     23  C   LIG    1       22.395 -17.173   3.864  0.00  0.00    +0.005 C 
BRANCH  23  24
ATOM     24  C   LIG    1       22.212 -18.627   4.329  0.00  0.00    +0.000 C 
BRANCH  24  25
ATOM     25  C   LIG    1       23.536 -19.408   4.398  0.00  0.00    -0.003 C 
ATOM     26  C   LIG    1       23.901 -20.122   3.106  0.00  0.00    +0.004 C 
ENDBRANCH  24  25
ENDBRANCH  23  24
ENDBRANCH  20  23
ENDBRANCH  19  20
ENDBRANCH   6  19
TORSDOF 13
ENDMDL
MODEL 6
REMARK VINA RESULT:      -2.0      1.155      6.472
REMARK  Name = *****
REMARK                            x       y       z     vdW  Elec       q    Type
REMARK                         _______ _______ _______ _____ _____    ______ ____
ROOT
ATOM      1  N   LIG    1       24.567 -19.230   4.755  0.00  0.00    -0.287 NA
ATOM      2  C   LIG    1       23.258 -19.419   4.107  0.00  0.00    +0.108 C 
ATOM      3  C   LIG    1       22.429 -18.100   4.068  0.00  0.00    +0.039 C 
ATOM      4  C   LIG    1       22.084 -17.606   5.486  0.00  0.00    +0.030 C 
ATOM      5  C   LIG    1       23.279 -17.069   3.290  0.00  0.00    +0.108 C 
ATOM      6  N   LIG    1       24.609 -16.857   3.871  0.00  0.00    -0.287 NA
ATOM      7  C   LIG    1       25.324 -18.133   4.107  0.00  0.00    +0.171 C 
ENDROOT
BRANCH   3   8
ATOM      8  N   LIG    1       21.149 -18.333   3.355  0.00  0.00    -0.323 NA
ATOM      9  H   LIG    1       21.057 -17.666   2.605  0.00  0.00    +0.119 HD
ATOM     10  H   LIG    1       21.198 -19.261   2.891  0.00  0.00    +0.119 HD
ENDBRANCH   3   8
BRANCH   1  11
ATOM     11  C   LIG    1       25.426 -20.455   4.671  0.00  0.00    +0.089 C 
BRANCH  11  12
ATOM     12  C   LIG    1       25.978 -21.136   5.953  0.00  0.00    +0.003 C 
BRANCH  12  13
ATOM     13  C   LIG    1       24.879 -21.571   6.956  0.00  0.00    +0.001 C 
ATOM     14  C   LIG    1       23.437 -21.550   6.459  0.00  0.00    +0.004 C 
ENDBRANCH  12  13
BRANCH  12  15
ATOM     15  C   LIG    1       27.057 -20.270   6.696  0.00  0.00    +0.005 C 
BRANCH  15  16
ATOM     16  C   LIG    1       28.537 -20.602   6.427  0.00  0.00    +0.000 C 
BRANCH  16  18
ATOM     17  C   LIG    1       29.048 -18.333   5.272  0.00  0.00    +0.004 C 
ATOM     18  C   LIG    1       29.459 -19.367   6.312  0.00  0.00    -0.003 C 
ENDBRANCH  16  18
ENDBRANCH  15  16
ENDBRANCH  12  15
ENDBRANCH  11  12
ENDBRANCH   1  11
BRANCH   6  19
ATOM     19  C   LIG    1       25.459 -16.033   2.961  0.00  0.00    +0.089 C 
BRANCH  19  20
ATOM     20  C   LIG    1       25.509 -14.469   3.059  0.00  0.00    +0.003 C 
BRANCH  20  21
ATOM     21  C   LIG    1       24.140 -13.789   3.241  0.00  0.00    +0.001 C 
ATOM     22  C   LIG    1       23.969 -13.002   4.529  0.00  0.00    +0.004 C 
ENDBRANCH  20  21
BRANCH  20  23
ATOM     23  C   LIG    1       26.447 -14.120   4.263  0.00  0.00    +0.005 C 
BRANCH  23  24
ATOM     24  C   LIG    1       27.932 -14.496   4.128  0.00  0.00    +0.000 C 
BRANCH  24  25
ATOM     25  C   LIG    1       28.822 -13.303   3.740  0.00  0.00    -0.003 C 
ATOM     26  C   LIG    1       28.812 -12.169   4.754  0.00  0.00    +0.004 C 
ENDBRANCH  24  25
ENDBRANCH  23  24
ENDBRANCH  20  23
ENDBRANCH  19  20
ENDBRANCH   6  19
TORSDOF 13
ENDMDL
MODEL 7
REMARK VINA RESULT:      -2.0      2.174      6.428
REMARK  Name = *****
REMARK                            x       y       z     vdW  Elec       q    Type
REMARK                         _______ _______ _______ _____ _____    ______ ____
ROOT
ATOM      1  N   LIG    1       23.247 -14.501   4.223  0.00  0.00    -0.287 NA
ATOM      2  C   LIG    1       23.313 -13.717   2.978  0.00  0.00    +0.108 C 
ATOM      3  C   LIG    1       24.071 -12.370   3.176  0.00  0.00    +0.039 C 
ATOM      4  C   LIG    1       23.337 -11.447   4.167  0.00  0.00    +0.030 C 
ATOM      5  C   LIG    1       25.491 -12.731   3.669  0.00  0.00    +0.108 C 
ATOM      6  N   LIG    1       25.492 -13.539   4.894  0.00  0.00    -0.287 NA
ATOM      7  C   LIG    1       24.602 -14.718   4.784  0.00  0.00    +0.171 C 
ENDROOT
BRANCH   3   8
ATOM      8  N   LIG    1       24.160 -11.650   1.881  0.00  0.00    -0.323 NA
ATOM      9  H   LIG    1       23.282 -11.192   1.692  0.00  0.00    +0.119 HD
ATOM     10  H   LIG    1       24.852 -10.883   1.981  0.00  0.00    +0.119 HD
ENDBRANCH   3   8
BRANCH   1  11
ATOM     11  C   LIG    1       22.645 -15.856   4.011  0.00  0.00    +0.089 C 
BRANCH  11  12
ATOM     12  C   LIG    1       23.443 -17.148   4.337  0.00  0.00    +0.003 C 
BRANCH  12  13
ATOM     13  C   LIG    1       24.766 -17.288   3.540  0.00  0.00    +0.001 C 
ATOM     14  C   LIG    1       25.211 -18.701   3.177  0.00  0.00    +0.004 C 
ENDBRANCH  12  13
BRANCH  12  15
ATOM     15  C   LIG    1       22.590 -18.457   4.177  0.00  0.00    +0.005 C 
BRANCH  15  16
ATOM     16  C   LIG    1       22.370 -19.316   5.437  0.00  0.00    +0.000 C 
BRANCH  16  18
ATOM     17  C   LIG    1       23.838 -21.020   6.734  0.00  0.00    +0.004 C 
ATOM     18  C   LIG    1       23.128 -20.662   5.435  0.00  0.00    -0.003 C 
ENDBRANCH  16  18
ENDBRANCH  15  16
ENDBRANCH  12  15
ENDBRANCH  11  12
ENDBRANCH   1  11
BRANCH   6  19
ATOM     19  C   LIG    1       26.864 -14.045   5.194  0.00  0.00    +0.089 C 
BRANCH  19  20
ATOM     20  C   LIG    1       27.773 -14.683   4.087  0.00  0.00    +0.003 C 
BRANCH  20  21
ATOM     21  C   LIG    1       28.706 -13.693   3.366  0.00  0.00    +0.001 C 
ATOM     22  C   LIG    1       29.041 -12.431   4.141  0.00  0.00    +0.004 C 
ENDBRANCH  20  21
BRANCH  20  23
ATOM     23  C   LIG    1       28.615 -15.805   4.782  0.00  0.00    +0.005 C 
BRANCH  23  24
ATOM     24  C   LIG    1       28.204 -17.262   4.506  0.00  0.00    +0.000 C 
BRANCH  24  25
ATOM     25  C   LIG    1       28.828 -18.260   5.497  0.00  0.00    -0.003 C 
ATOM     26  C   LIG    1       28.097 -19.592   5.577  0.00  0.00    +0.004 C 
ENDBRANCH  24  25
ENDBRANCH  23  24
ENDBRANCH  20  23
ENDBRANCH  19  20
ENDBRANCH   6  19
TORSDOF 13
ENDMDL
MODEL 8
REMARK VINA RESULT:      -1.5      1.896      5.837
REMARK  Name = *****
REMARK                            x       y       z     vdW  Elec       q    Type
REMARK                         _______ _______ _______ _____ _____    ______ ____
ROOT
ATOM      1  N   LIG    1       25.106 -19.654   4.916  0.00  0.00    -0.287 NA
ATOM      2  C   LIG    1       24.168 -20.758   4.654  0.00  0.00    +0.108 C 
ATOM      3  C   LIG    1       22.741 -20.455   5.204  0.00  0.00    +0.039 C 
ATOM      4  C   LIG    1       22.743 -20.314   6.738  0.00  0.00    +0.030 C 
ATOM      5  C   LIG    1       22.267 -19.160   4.506  0.00  0.00    +0.108 C 
ATOM      6  N   LIG    1       23.177 -18.026   4.707  0.00  0.00    -0.287 NA
ATOM      7  C   LIG    1       24.580 -18.375   4.383  0.00  0.00    +0.171 C 
ENDROOT
BRANCH   3   8
ATOM      8  N   LIG    1       21.825 -21.572   4.862  0.00  0.00    -0.323 NA
ATOM      9  H   LIG    1       21.108 -21.644   5.566  0.00  0.00    +0.119 HD
ATOM     10  H   LIG    1       21.324 -21.326   3.986  0.00  0.00    +0.119 HD
ENDBRANCH   3   8
BRANCH   1  11
ATOM     11  C   LIG    1       26.439 -19.875   4.270  0.00  0.00    +0.089 C 
BRANCH  11  12
ATOM     12  C   LIG    1       27.758 -19.695   5.070  0.00  0.00    +0.003 C 
BRANCH  12  13
ATOM     13  C   LIG    1       27.616 -19.978   6.587  0.00  0.00    +0.001 C 
ATOM     14  C   LIG    1       26.956 -21.293   6.989  0.00  0.00    +0.004 C 
ENDBRANCH  12  13
BRANCH  12  15
ATOM     15  C   LIG    1       28.422 -18.287   4.856  0.00  0.00    +0.005 C 
BRANCH  15  16
ATOM     16  C   LIG    1       27.623 -17.245   4.051  0.00  0.00    +0.000 C 
BRANCH  16  18
ATOM     17  C   LIG    1       27.452 -14.723   3.454  0.00  0.00    +0.004 C 
ATOM     18  C   LIG    1       27.887 -15.779   4.463  0.00  0.00    -0.003 C 
ENDBRANCH  16  18
ENDBRANCH  15  16
ENDBRANCH  12  15
ENDBRANCH  11  12
ENDBRANCH   1  11
BRANCH   6  19
ATOM     19  C   LIG    1       22.792 -16.878   3.833  0.00  0.00    +0.089 C 
BRANCH  19  20
ATOM     20  C   LIG    1       22.723 -15.409   4.376  0.00  0.00    +0.003 C 
BRANCH  20  21
ATOM     21  C   LIG    1       22.715 -15.286   5.911  0.00  0.00    +0.001 C 
ATOM     22  C   LIG    1       21.340 -15.198   6.549  0.00  0.00    +0.004 C 
ENDBRANCH  20  21
BRANCH  20  23
ATOM     23  C   LIG    1       23.955 -14.647   3.783  0.00  0.00    +0.005 C 
BRANCH  23  24
ATOM     24  C   LIG    1       24.720 -13.706   4.728  0.00  0.00    +0.000 C 
BRANCH  24  25
ATOM     25  C   LIG    1       24.298 -12.234   4.583  0.00  0.00    -0.003 C 
ATOM     26  C   LIG    1       23.841 -11.856   3.182  0.00  0.00    +0.004 C 
ENDBRANCH  24  25
ENDBRANCH  23  24
ENDBRANCH  20  23
ENDBRANCH  19  20
ENDBRANCH   6  19
TORSDOF 13
ENDMDL
MODEL 9
REMARK VINA RESULT:      -1.5      2.221      5.601
REMARK  Name = *****
REMARK                            x       y       z     vdW  Elec       q    Type
REMARK                         _______ _______ _______ _____ _____    ______ ____
ROOT
ATOM      1  N   LIG    1       24.732 -14.701   4.279  0.00  0.00    -0.287 NA
ATOM      2  C   LIG    1       25.441 -13.680   3.488  0.00  0.00    +0.108 C 
ATOM      3  C   LIG    1       26.975 -13.689   3.766  0.00  0.00    +0.039 C 
ATOM      4  C   LIG    1       27.288 -13.322   5.229  0.00  0.00    +0.030 C 
ATOM      5  C   LIG    1       27.479 -15.105   3.406  0.00  0.00    +0.108 C 
ATOM      6  N   LIG    1       26.789 -16.171   4.141  0.00  0.00    -0.287 NA
ATOM      7  C   LIG    1       25.316 -16.044   4.054  0.00  0.00    +0.171 C 
ENDROOT
BRANCH   3   8
ATOM      8  N   LIG    1       27.646 -12.684   2.903  0.00  0.00    -0.323 NA
ATOM      9  H   LIG    1       27.067 -12.493   2.101  0.00  0.00    +0.119 HD
ATOM     10  H   LIG    1       27.696 -11.788   3.424  0.00  0.00    +0.119 HD
ENDBRANCH   3   8
BRANCH   1  11
ATOM     11  C   LIG    1       23.281 -14.794   3.915  0.00  0.00    +0.089 C 
BRANCH  11  12
ATOM     12  C   LIG    1       22.365 -15.879   4.545  0.00  0.00    +0.003 C 
BRANCH  12  13
ATOM     13  C   LIG    1       22.320 -15.841   6.093  0.00  0.00    +0.001 C 
ATOM     14  C   LIG    1       21.395 -14.813   6.736  0.00  0.00    +0.004 C 
ENDBRANCH  12  13
BRANCH  12  15
ATOM     15  C   LIG    1       22.710 -17.333   4.062  0.00  0.00    +0.005 C 
BRANCH  15  16
ATOM     16  C   LIG    1       21.986 -18.500   4.760  0.00  0.00    +0.000 C 
BRANCH  16  18
ATOM     17  C   LIG    1       21.640 -21.073   4.803  0.00  0.00    +0.004 C 
ATOM     18  C   LIG    1       22.517 -19.901   4.381  0.00  0.00    -0.003 C 
ENDBRANCH  16  18
ENDBRANCH  15  16
ENDBRANCH  12  15
ENDBRANCH  11  12
ENDBRANCH   1  11
BRANCH   6  19
ATOM     19  C   LIG    1       27.153 -17.512   3.594  0.00  0.00    +0.089 C 
BRANCH  19  20
ATOM     20  C   LIG    1       28.014 -18.536   4.411  0.00  0.00    +0.003 C 
BRANCH  20  21
ATOM     21  C   LIG    1       29.113 -17.905   5.285  0.00  0.00    +0.001 C 
ATOM     22  C   LIG    1       29.475 -18.682   6.538  0.00  0.00    +0.004 C 
ENDBRANCH  20  21
BRANCH  20  23
ATOM     23  C   LIG    1       27.022 -19.354   5.303  0.00  0.00    +0.005 C 
BRANCH  23  24
ATOM     24  C   LIG    1       25.899 -20.121   4.583  0.00  0.00    +0.000 C 
BRANCH  24  25
ATOM     25  C   LIG    1       25.301 -21.252   5.436  0.00  0.00    -0.003 C 
ATOM     26  C   LIG    1       25.005 -20.853   6.874  0.00  0.00    +0.004 C 
ENDBRANCH  24  25
ENDBRANCH  23  24
ENDBRANCH  20  23
ENDBRANCH  19  20
ENDBRANCH   6  19
TORSDOF 13
ENDMDL
