MODEL 1
REMARK VINA RESULT:      -9.6      0.000      0.000
REMARK  Name = *****
REMARK                            x       y       z     vdW  Elec       q    Type
REMARK                         _______ _______ _______ _____ _____    ______ ____
ROOT
ATOM      1  C   LIG    1       24.760 -23.918   6.006  0.00  0.00    +0.185 C 
ATOM      2  O   LIG    1       25.034 -22.575   5.609  0.00  0.00    -0.334 OA
ATOM      3  C   LIG    1       25.342 -21.824   6.797  0.00  0.00    +0.217 C 
ATOM      4  O   LIG    1       25.458 -22.775   7.891  0.00  0.00    -0.341 OA
ATOM      5  C   LIG    1       25.554 -24.065   7.276  0.00  0.00    +0.198 C 
ENDROOT
BRANCH   3   6
ATOM      6  C   LIG    1       26.678 -21.060   6.726  0.00  0.00    +0.031 A 
ATOM      7  C   LIG    1       27.062 -20.190   5.684  0.00  0.00    +0.051 A 
ATOM      8 CL   LIG    1       26.041 -19.712   4.371  0.00  0.00    -0.083 Cl
ATOM      9  C   LIG    1       28.348 -19.628   5.643  0.00  0.00    +0.040 A 
ATOM     10  C   LIG    1       29.264 -19.881   6.654  0.00  0.00    +0.042 A 
ATOM     11 CL   LIG    1       30.840 -19.200   6.567  0.00  0.00    -0.084 Cl
ATOM     12  C   LIG    1       28.907 -20.688   7.724  0.00  0.00    +0.020 A 
ATOM     13  C   LIG    1       27.636 -21.279   7.753  0.00  0.00    +0.012 A 
ENDBRANCH   3   6
BRANCH   1  14
ATOM     14  C   LIG    1       25.162 -24.926   4.924  0.00  0.00    +0.263 C 
BRANCH  14  15
ATOM     15  O   LIG    1       26.103 -25.863   5.467  0.00  0.00    -0.489 OA
BRANCH  15  19
ATOM     16  C   LIG    1       24.667 -29.436   7.215  0.00  0.00    +0.030 A 
ATOM     17  C   LIG    1       24.314 -29.089   5.902  0.00  0.00    +0.027 A 
ATOM     18  C   LIG    1       24.768 -27.914   5.286  0.00  0.00    +0.047 A 
ATOM     19  C   LIG    1       25.618 -27.047   5.958  0.00  0.00    +0.121 A 
ATOM     20  C   LIG    1       26.038 -27.405   7.244  0.00  0.00    +0.047 A 
ATOM     21  C   LIG    1       25.572 -28.584   7.864  0.00  0.00    +0.027 A 
BRANCH  16  27
ATOM     22  C   LIG    1       24.580 -32.543  12.381  0.00  0.00    +0.109 C 
ATOM     23  C   LIG    1       24.989 -33.013  10.973  0.00  0.00    +0.213 C 
ATOM     24  N   LIG    1       24.145 -32.604   9.960  0.00  0.00    -0.299 N 
ATOM     25  C   LIG    1       23.168 -31.486  10.025  0.00  0.00    +0.126 C 
ATOM     26  C   LIG    1       23.685 -30.243   9.260  0.00  0.00    +0.124 C 
ATOM     27  N   LIG    1       24.137 -30.573   7.881  0.00  0.00    -0.327 N 
ATOM     28  C   LIG    1       25.008 -31.787   7.799  0.00  0.00    +0.124 C 
ATOM     29  C   LIG    1       24.433 -32.980   8.582  0.00  0.00    +0.126 C 
ATOM     30  O   LIG    1       25.982 -33.714  10.804  0.00  0.00    -0.276 OA
ENDBRANCH  16  27
ENDBRANCH  15  19
ENDBRANCH  14  15
ENDBRANCH   1  14
BRANCH   3  31
ATOM     31  C   LIG    1       24.125 -20.920   7.139  0.00  0.00    +0.193 C 
BRANCH  31  32
ATOM     32  N   LIG    1       23.170 -20.666   6.079  0.00  0.00    -0.331 N 
ATOM     33  C   LIG    1       22.236 -21.529   5.583  0.00  0.00    +0.199 A 
ATOM     34  N   LIG    1       21.501 -20.967   4.652  0.00  0.00    -0.244 NA
ATOM     35  C   LIG    1       21.943 -19.676   4.573  0.00  0.00    +0.130 A 
ATOM     36  C   LIG    1       22.966 -19.457   5.465  0.00  0.00    +0.107 A 
ENDBRANCH  31  32
ENDBRANCH   3  31
TORSDOF 7
ENDMDL
MODEL 2
REMARK VINA RESULT:      -9.2      2.154      2.745
REMARK  Name = *****
REMARK                            x       y       z     vdW  Elec       q    Type
REMARK                         _______ _______ _______ _____ _____    ______ ____
ROOT
ATOM      1  C   LIG    1       23.890 -22.539   6.251  0.00  0.00    +0.185 C 
ATOM      2  O   LIG    1       25.079 -22.276   5.508  0.00  0.00    -0.334 OA
ATOM      3  C   LIG    1       25.377 -20.874   5.642  0.00  0.00    +0.217 C 
ATOM      4  O   LIG    1       24.474 -20.336   6.646  0.00  0.00    -0.341 OA
ATOM      5  C   LIG    1       23.912 -21.472   7.313  0.00  0.00    +0.198 C 
ENDROOT
BRANCH   3   6
ATOM      6  C   LIG    1       26.809 -20.581   6.127  0.00  0.00    +0.031 A 
ATOM      7  C   LIG    1       27.395 -21.115   7.294  0.00  0.00    +0.051 A 
ATOM      8 CL   LIG    1       26.662 -22.307   8.311  0.00  0.00    -0.083 Cl
ATOM      9  C   LIG    1       28.667 -20.700   7.723  0.00  0.00    +0.040 A 
ATOM     10  C   LIG    1       29.400 -19.783   6.983  0.00  0.00    +0.042 A 
ATOM     11 CL   LIG    1       30.943 -19.274   7.543  0.00  0.00    -0.084 Cl
ATOM     12  C   LIG    1       28.880 -19.276   5.801  0.00  0.00    +0.020 A 
ATOM     13  C   LIG    1       27.598 -19.661   5.385  0.00  0.00    +0.012 A 
ENDBRANCH   3   6
BRANCH   1  14
ATOM     14  C   LIG    1       23.877 -23.960   6.825  0.00  0.00    +0.263 C 
BRANCH  14  15
ATOM     15  O   LIG    1       25.079 -24.643   6.441  0.00  0.00    -0.489 OA
BRANCH  15  19
ATOM     16  C   LIG    1       25.043 -28.871   6.377  0.00  0.00    +0.030 A 
ATOM     17  C   LIG    1       24.291 -28.135   5.449  0.00  0.00    +0.027 A 
ATOM     18  C   LIG    1       24.275 -26.732   5.436  0.00  0.00    +0.047 A 
ATOM     19  C   LIG    1       25.035 -26.009   6.344  0.00  0.00    +0.121 A 
ATOM     20  C   LIG    1       25.845 -26.721   7.237  0.00  0.00    +0.047 A 
ATOM     21  C   LIG    1       25.852 -28.132   7.253  0.00  0.00    +0.027 A 
BRANCH  16  27
ATOM     22  C   LIG    1       27.967 -33.825   8.182  0.00  0.00    +0.109 C 
ATOM     23  C   LIG    1       27.466 -33.452   6.774  0.00  0.00    +0.213 C 
ATOM     24  N   LIG    1       26.194 -32.920   6.736  0.00  0.00    -0.299 N 
ATOM     25  C   LIG    1       25.453 -32.324   7.879  0.00  0.00    +0.126 C 
ATOM     26  C   LIG    1       25.438 -30.779   7.794  0.00  0.00    +0.124 C 
ATOM     27  N   LIG    1       24.991 -30.288   6.461  0.00  0.00    -0.327 N 
ATOM     28  C   LIG    1       25.635 -30.989   5.307  0.00  0.00    +0.124 C 
ATOM     29  C   LIG    1       25.615 -32.520   5.460  0.00  0.00    +0.126 C 
ATOM     30  O   LIG    1       28.164 -33.648   5.783  0.00  0.00    -0.276 OA
ENDBRANCH  16  27
ENDBRANCH  15  19
ENDBRANCH  14  15
ENDBRANCH   1  14
BRANCH   3  31
ATOM     31  C   LIG    1       25.013 -20.163   4.309  0.00  0.00    +0.193 C 
BRANCH  31  32
ATOM     32  N   LIG    1       23.836 -19.316   4.310  0.00  0.00    -0.331 N 
ATOM     33  C   LIG    1       23.779 -17.979   4.044  0.00  0.00    +0.199 A 
ATOM     34  N   LIG    1       22.547 -17.526   4.090  0.00  0.00    -0.244 NA
ATOM     35  C   LIG    1       21.770 -18.621   4.349  0.00  0.00    +0.130 A 
ATOM     36  C   LIG    1       22.545 -19.751   4.468  0.00  0.00    +0.107 A 
ENDBRANCH  31  32
ENDBRANCH   3  31
TORSDOF 7
ENDMDL
MODEL 3
REMARK VINA RESULT:      -9.1      3.802     10.800
REMARK  Name = *****
REMARK                            x       y       z     vdW  Elec       q    Type
REMARK                         _______ _______ _______ _____ _____    ______ ____
ROOT
ATOM      1  C   LIG    1       24.398 -30.380   7.548  0.00  0.00    +0.185 C 
ATOM      2  O   LIG    1       23.347 -30.517   8.503  0.00  0.00    -0.334 OA
ATOM      3  C   LIG    1       23.942 -30.906   9.754  0.00  0.00    +0.217 C 
ATOM      4  O   LIG    1       25.383 -30.797   9.598  0.00  0.00    -0.341 OA
ATOM      5  C   LIG    1       25.589 -30.036   8.402  0.00  0.00    +0.198 C 
ENDROOT
BRANCH   3   6
ATOM      6  C   LIG    1       23.552 -30.005  10.940  0.00  0.00    +0.031 A 
ATOM      7  C   LIG    1       22.230 -29.738  11.357  0.00  0.00    +0.051 A 
ATOM      8 CL   LIG    1       20.817 -30.491  10.701  0.00  0.00    -0.083 Cl
ATOM      9  C   LIG    1       21.963 -28.810  12.376  0.00  0.00    +0.040 A 
ATOM     10  C   LIG    1       22.999 -28.161  13.032  0.00  0.00    +0.042 A 
ATOM     11 CL   LIG    1       22.644 -27.010  14.259  0.00  0.00    -0.084 Cl
ATOM     12  C   LIG    1       24.315 -28.435  12.688  0.00  0.00    +0.020 A 
ATOM     13  C   LIG    1       24.586 -29.336  11.648  0.00  0.00    +0.012 A 
ENDBRANCH   3   6
BRANCH   1  14
ATOM     14  C   LIG    1       24.080 -29.310   6.498  0.00  0.00    +0.263 C 
BRANCH  14  15
ATOM     15  O   LIG    1       25.278 -28.591   6.167  0.00  0.00    -0.489 OA
BRANCH  15  19
ATOM     16  C   LIG    1       24.971 -24.392   6.559  0.00  0.00    +0.030 A 
ATOM     17  C   LIG    1       26.196 -25.043   6.765  0.00  0.00    +0.027 A 
ATOM     18  C   LIG    1       26.341 -26.433   6.645  0.00  0.00    +0.047 A 
ATOM     19  C   LIG    1       25.260 -27.227   6.290  0.00  0.00    +0.121 A 
ATOM     20  C   LIG    1       24.043 -26.594   6.014  0.00  0.00    +0.047 A 
ATOM     21  C   LIG    1       23.899 -25.196   6.144  0.00  0.00    +0.027 A 
BRANCH  16  27
ATOM     22  C   LIG    1       22.170 -19.418   4.621  0.00  0.00    +0.109 C 
ATOM     23  C   LIG    1       23.679 -19.690   4.760  0.00  0.00    +0.213 C 
ATOM     24  N   LIG    1       24.047 -20.318   5.931  0.00  0.00    -0.299 N 
ATOM     25  C   LIG    1       23.153 -21.081   6.841  0.00  0.00    +0.126 C 
ATOM     26  C   LIG    1       23.358 -22.607   6.681  0.00  0.00    +0.124 C 
ATOM     27  N   LIG    1       24.792 -22.999   6.771  0.00  0.00    -0.327 N 
ATOM     28  C   LIG    1       25.711 -22.138   5.965  0.00  0.00    +0.124 C 
ATOM     29  C   LIG    1       25.448 -20.637   6.173  0.00  0.00    +0.126 C 
ATOM     30  O   LIG    1       24.467 -19.342   3.885  0.00  0.00    -0.276 OA
ENDBRANCH  16  27
ENDBRANCH  15  19
ENDBRANCH  14  15
ENDBRANCH   1  14
BRANCH   3  31
ATOM     31  C   LIG    1       23.647 -32.414   9.993  0.00  0.00    +0.193 C 
BRANCH  31  32
ATOM     32  N   LIG    1       23.820 -32.916  11.342  0.00  0.00    -0.331 N 
ATOM     33  C   LIG    1       22.841 -33.295  12.215  0.00  0.00    +0.199 A 
ATOM     34  N   LIG    1       23.343 -33.743  13.342  0.00  0.00    -0.244 NA
ATOM     35  C   LIG    1       24.700 -33.699  13.176  0.00  0.00    +0.130 A 
ATOM     36  C   LIG    1       25.022 -33.210  11.932  0.00  0.00    +0.107 A 
ENDBRANCH  31  32
ENDBRANCH   3  31
TORSDOF 7
ENDMDL
MODEL 4
REMARK VINA RESULT:      -8.9      3.794     10.090
REMARK  Name = *****
REMARK                            x       y       z     vdW  Elec       q    Type
REMARK                         _______ _______ _______ _____ _____    ______ ____
ROOT
ATOM      1  C   LIG    1       24.373 -30.653   6.524  0.00  0.00    +0.185 C 
ATOM      2  O   LIG    1       23.975 -30.313   7.851  0.00  0.00    -0.334 OA
ATOM      3  C   LIG    1       24.684 -31.178   8.755  0.00  0.00    +0.217 C 
ATOM      4  O   LIG    1       25.674 -31.901   7.972  0.00  0.00    -0.341 OA
ATOM      5  C   LIG    1       25.757 -31.214   6.719  0.00  0.00    +0.198 C 
ENDROOT
BRANCH   3   6
ATOM      6  C   LIG    1       25.451 -30.433   9.864  0.00  0.00    +0.031 A 
ATOM      7  C   LIG    1       25.722 -30.946  11.150  0.00  0.00    +0.051 A 
ATOM      8 CL   LIG    1       25.369 -32.560  11.662  0.00  0.00    -0.083 Cl
ATOM      9  C   LIG    1       26.325 -30.151  12.137  0.00  0.00    +0.040 A 
ATOM     10  C   LIG    1       26.710 -28.847  11.859  0.00  0.00    +0.042 A 
ATOM     11 CL   LIG    1       27.423 -27.887  13.094  0.00  0.00    -0.084 Cl
ATOM     12  C   LIG    1       26.510 -28.323  10.591  0.00  0.00    +0.020 A 
ATOM     13  C   LIG    1       25.878 -29.101   9.611  0.00  0.00    +0.012 A 
ENDBRANCH   3   6
BRANCH   1  14
ATOM     14  C   LIG    1       24.342 -29.440   5.588  0.00  0.00    +0.263 C 
BRANCH  14  15
ATOM     15  O   LIG    1       25.440 -28.569   5.894  0.00  0.00    -0.489 OA
BRANCH  15  19
ATOM     16  C   LIG    1       24.832 -24.456   6.666  0.00  0.00    +0.030 A 
ATOM     17  C   LIG    1       23.805 -25.242   6.124  0.00  0.00    +0.027 A 
ATOM     18  C   LIG    1       23.965 -26.609   5.853  0.00  0.00    +0.047 A 
ATOM     19  C   LIG    1       25.162 -27.250   6.138  0.00  0.00    +0.121 A 
ATOM     20  C   LIG    1       26.179 -26.502   6.741  0.00  0.00    +0.047 A 
ATOM     21  C   LIG    1       26.018 -25.125   7.005  0.00  0.00    +0.027 A 
BRANCH  16  27
ATOM     22  C   LIG    1       22.254 -19.399   4.637  0.00  0.00    +0.109 C 
ATOM     23  C   LIG    1       23.749 -19.733   4.786  0.00  0.00    +0.213 C 
ATOM     24  N   LIG    1       24.086 -20.357   5.969  0.00  0.00    -0.299 N 
ATOM     25  C   LIG    1       23.157 -21.066   6.887  0.00  0.00    +0.126 C 
ATOM     26  C   LIG    1       23.298 -22.602   6.753  0.00  0.00    +0.124 C 
ATOM     27  N   LIG    1       24.713 -23.053   6.855  0.00  0.00    -0.327 N 
ATOM     28  C   LIG    1       25.670 -22.246   6.038  0.00  0.00    +0.124 C 
ATOM     29  C   LIG    1       25.472 -20.732   6.222  0.00  0.00    +0.126 C 
ATOM     30  O   LIG    1       24.554 -19.433   3.909  0.00  0.00    -0.276 OA
ENDBRANCH  16  27
ENDBRANCH  15  19
ENDBRANCH  14  15
ENDBRANCH   1  14
BRANCH   3  31
ATOM     31  C   LIG    1       23.694 -32.248   9.294  0.00  0.00    +0.193 C 
BRANCH  31  32
ATOM     32  N   LIG    1       22.416 -31.777   9.790  0.00  0.00    -0.331 N 
ATOM     33  C   LIG    1       21.218 -32.430   9.741  0.00  0.00    +0.199 A 
ATOM     34  N   LIG    1       20.264 -31.739  10.320  0.00  0.00    -0.244 NA
ATOM     35  C   LIG    1       20.875 -30.616  10.805  0.00  0.00    +0.130 A 
ATOM     36  C   LIG    1       22.218 -30.627  10.509  0.00  0.00    +0.107 A 
ENDBRANCH  31  32
ENDBRANCH   3  31
TORSDOF 7
ENDMDL
MODEL 5
REMARK VINA RESULT:      -8.9      1.754      2.233
REMARK  Name = *****
REMARK                            x       y       z     vdW  Elec       q    Type
REMARK                         _______ _______ _______ _____ _____    ______ ____
ROOT
ATOM      1  C   LIG    1       23.815 -22.741   6.162  0.00  0.00    +0.185 C 
ATOM      2  O   LIG    1       25.023 -22.453   5.459  0.00  0.00    -0.334 OA
ATOM      3  C   LIG    1       25.302 -21.051   5.627  0.00  0.00    +0.217 C 
ATOM      4  O   LIG    1       24.364 -20.540   6.614  0.00  0.00    -0.341 OA
ATOM      5  C   LIG    1       23.795 -21.694   7.243  0.00  0.00    +0.198 C 
ENDROOT
BRANCH   3   6
ATOM      6  C   LIG    1       26.716 -20.753   6.159  0.00  0.00    +0.031 A 
ATOM      7  C   LIG    1       27.266 -21.285   7.344  0.00  0.00    +0.051 A 
ATOM      8 CL   LIG    1       26.504 -22.481   8.335  0.00  0.00    -0.083 Cl
ATOM      9  C   LIG    1       28.521 -20.867   7.815  0.00  0.00    +0.040 A 
ATOM     10  C   LIG    1       29.274 -19.946   7.100  0.00  0.00    +0.042 A 
ATOM     11 CL   LIG    1       30.797 -19.432   7.712  0.00  0.00    -0.084 Cl
ATOM     12  C   LIG    1       28.792 -19.440   5.902  0.00  0.00    +0.020 A 
ATOM     13  C   LIG    1       27.525 -19.829   5.445  0.00  0.00    +0.012 A 
ENDBRANCH   3   6
BRANCH   1  14
ATOM     14  C   LIG    1       23.800 -24.172   6.708  0.00  0.00    +0.263 C 
BRANCH  14  15
ATOM     15  O   LIG    1       25.026 -24.831   6.362  0.00  0.00    -0.489 OA
BRANCH  15  19
ATOM     16  C   LIG    1       25.138 -29.055   6.527  0.00  0.00    +0.030 A 
ATOM     17  C   LIG    1       24.385 -28.397   5.544  0.00  0.00    +0.027 A 
ATOM     18  C   LIG    1       24.320 -26.999   5.454  0.00  0.00    +0.047 A 
ATOM     19  C   LIG    1       25.032 -26.201   6.339  0.00  0.00    +0.121 A 
ATOM     20  C   LIG    1       25.844 -26.835   7.286  0.00  0.00    +0.047 A 
ATOM     21  C   LIG    1       25.900 -28.242   7.379  0.00  0.00    +0.027 A 
BRANCH  16  27
ATOM     22  C   LIG    1       22.009 -33.789   8.563  0.00  0.00    +0.109 C 
ATOM     23  C   LIG    1       23.415 -33.309   8.967  0.00  0.00    +0.213 C 
ATOM     24  N   LIG    1       24.225 -32.940   7.913  0.00  0.00    -0.299 N 
ATOM     25  C   LIG    1       23.778 -32.590   6.539  0.00  0.00    +0.126 C 
ATOM     26  C   LIG    1       23.822 -31.060   6.306  0.00  0.00    +0.124 C 
ATOM     27  N   LIG    1       25.134 -30.467   6.686  0.00  0.00    -0.327 N 
ATOM     28  C   LIG    1       25.652 -30.931   8.010  0.00  0.00    +0.124 C 
ATOM     29  C   LIG    1       25.576 -32.459   8.170  0.00  0.00    +0.126 C 
ATOM     30  O   LIG    1       23.763 -33.290  10.145  0.00  0.00    -0.276 OA
ENDBRANCH  16  27
ENDBRANCH  15  19
ENDBRANCH  14  15
ENDBRANCH   1  14
BRANCH   3  31
ATOM     31  C   LIG    1       24.969 -20.318   4.297  0.00  0.00    +0.193 C 
BRANCH  31  32
ATOM     32  N   LIG    1       23.755 -19.526   4.262  0.00  0.00    -0.331 N 
ATOM     33  C   LIG    1       22.482 -19.953   4.507  0.00  0.00    +0.199 A 
ATOM     34  N   LIG    1       21.617 -18.969   4.433  0.00  0.00    -0.244 NA
ATOM     35  C   LIG    1       22.362 -17.851   4.177  0.00  0.00    +0.130 A 
ATOM     36  C   LIG    1       23.698 -18.167   4.089  0.00  0.00    +0.107 A 
ENDBRANCH  31  32
ENDBRANCH   3  31
TORSDOF 7
ENDMDL
MODEL 6
REMARK VINA RESULT:      -8.3      3.640     10.129
REMARK  Name = *****
REMARK                            x       y       z     vdW  Elec       q    Type
REMARK                         _______ _______ _______ _____ _____    ______ ____
ROOT
ATOM      1  C   LIG    1       24.454 -30.626   6.596  0.00  0.00    +0.185 C 
ATOM      2  O   LIG    1       24.057 -30.686   7.966  0.00  0.00    -0.334 OA
ATOM      3  C   LIG    1       25.115 -31.328   8.700  0.00  0.00    +0.217 C 
ATOM      4  O   LIG    1       26.245 -31.465   7.795  0.00  0.00    -0.341 OA
ATOM      5  C   LIG    1       25.957 -30.614   6.680  0.00  0.00    +0.198 C 
ENDROOT
BRANCH   3   6
ATOM      6  C   LIG    1       25.612 -30.524   9.915  0.00  0.00    +0.031 A 
ATOM      7  C   LIG    1       24.788 -29.792  10.797  0.00  0.00    +0.051 A 
ATOM      8 CL   LIG    1       23.058 -29.787  10.756  0.00  0.00    -0.083 Cl
ATOM      9  C   LIG    1       25.339 -28.991  11.810  0.00  0.00    +0.040 A 
ATOM     10  C   LIG    1       26.712 -28.932  11.998  0.00  0.00    +0.042 A 
ATOM     11 CL   LIG    1       27.362 -27.924  13.230  0.00  0.00    -0.084 Cl
ATOM     12  C   LIG    1       27.554 -29.678  11.186  0.00  0.00    +0.020 A 
ATOM     13  C   LIG    1       27.012 -30.454  10.152  0.00  0.00    +0.012 A 
ENDBRANCH   3   6
BRANCH   1  14
ATOM     14  C   LIG    1       23.880 -29.395   5.888  0.00  0.00    +0.263 C 
BRANCH  14  15
ATOM     15  O   LIG    1       24.952 -28.537   5.472  0.00  0.00    -0.489 OA
BRANCH  15  19
ATOM     16  C   LIG    1       24.998 -24.468   6.622  0.00  0.00    +0.030 A 
ATOM     17  C   LIG    1       23.950 -24.980   5.842  0.00  0.00    +0.027 A 
ATOM     18  C   LIG    1       23.897 -26.322   5.439  0.00  0.00    +0.047 A 
ATOM     19  C   LIG    1       24.887 -27.215   5.825  0.00  0.00    +0.121 A 
ATOM     20  C   LIG    1       25.907 -26.743   6.658  0.00  0.00    +0.047 A 
ATOM     21  C   LIG    1       25.962 -25.390   7.055  0.00  0.00    +0.027 A 
BRANCH  16  27
ATOM     22  C   LIG    1       28.238 -19.445   5.840  0.00  0.00    +0.109 C 
ATOM     23  C   LIG    1       27.892 -20.183   7.146  0.00  0.00    +0.213 C 
ATOM     24  N   LIG    1       26.581 -20.601   7.243  0.00  0.00    -0.299 N 
ATOM     25  C   LIG    1       25.624 -20.767   6.118  0.00  0.00    +0.126 C 
ATOM     26  C   LIG    1       25.429 -22.261   5.762  0.00  0.00    +0.124 C 
ATOM     27  N   LIG    1       25.111 -23.092   6.955  0.00  0.00    -0.327 N 
ATOM     28  C   LIG    1       25.987 -22.822   8.136  0.00  0.00    +0.124 C 
ATOM     29  C   LIG    1       26.135 -21.319   8.430  0.00  0.00    +0.126 C 
ATOM     30  O   LIG    1       28.737 -20.348   8.021  0.00  0.00    -0.276 OA
ENDBRANCH  16  27
ENDBRANCH  15  19
ENDBRANCH  14  15
ENDBRANCH   1  14
BRANCH   3  31
ATOM     31  C   LIG    1       24.665 -32.774   9.051  0.00  0.00    +0.193 C 
BRANCH  31  32
ATOM     32  N   LIG    1       23.400 -32.924   9.741  0.00  0.00    -0.331 N 
ATOM     33  C   LIG    1       23.204 -33.095  11.081  0.00  0.00    +0.199 A 
ATOM     34  N   LIG    1       21.927 -33.156  11.382  0.00  0.00    -0.244 NA
ATOM     35  C   LIG    1       21.268 -32.971  10.198  0.00  0.00    +0.130 A 
ATOM     36  C   LIG    1       22.161 -32.802   9.166  0.00  0.00    +0.107 A 
ENDBRANCH  31  32
ENDBRANCH   3  31
TORSDOF 7
ENDMDL
MODEL 7
REMARK VINA RESULT:      -8.1      1.904      4.102
REMARK  Name = *****
REMARK                            x       y       z     vdW  Elec       q    Type
REMARK                         _______ _______ _______ _____ _____    ______ ____
ROOT
ATOM      1  C   LIG    1       24.591 -23.820   6.494  0.00  0.00    +0.185 C 
ATOM      2  O   LIG    1       23.889 -22.618   6.807  0.00  0.00    -0.334 OA
ATOM      3  C   LIG    1       24.525 -21.542   6.092  0.00  0.00    +0.217 C 
ATOM      4  O   LIG    1       25.485 -22.141   5.179  0.00  0.00    -0.341 OA
ATOM      5  C   LIG    1       25.159 -23.535   5.129  0.00  0.00    +0.198 C 
ENDROOT
BRANCH   3   6
ATOM      6  C   LIG    1       23.558 -20.702   5.236  0.00  0.00    +0.031 A 
ATOM      7  C   LIG    1       23.936 -19.623   4.409  0.00  0.00    +0.051 A 
ATOM      8 CL   LIG    1       25.568 -19.143   4.096  0.00  0.00    -0.083 Cl
ATOM      9  C   LIG    1       22.972 -18.838   3.755  0.00  0.00    +0.040 A 
ATOM     10  C   LIG    1       21.621 -19.131   3.872  0.00  0.00    +0.042 A 
ATOM     11 CL   LIG    1       20.461 -18.139   3.081  0.00  0.00    -0.084 Cl
ATOM     12  C   LIG    1       21.213 -20.217   4.633  0.00  0.00    +0.020 A 
ATOM     13  C   LIG    1       22.168 -20.984   5.315  0.00  0.00    +0.012 A 
ENDBRANCH   3   6
BRANCH   1  14
ATOM     14  C   LIG    1       23.668 -25.043   6.518  0.00  0.00    +0.263 C 
BRANCH  14  15
ATOM     15  O   LIG    1       24.090 -25.983   5.520  0.00  0.00    -0.489 OA
BRANCH  15  19
ATOM     16  C   LIG    1       25.069 -29.820   7.002  0.00  0.00    +0.030 A 
ATOM     17  C   LIG    1       24.350 -29.677   5.806  0.00  0.00    +0.027 A 
ATOM     18  C   LIG    1       24.005 -28.423   5.280  0.00  0.00    +0.047 A 
ATOM     19  C   LIG    1       24.390 -27.257   5.926  0.00  0.00    +0.121 A 
ATOM     20  C   LIG    1       25.166 -27.373   7.084  0.00  0.00    +0.047 A 
ATOM     21  C   LIG    1       25.504 -28.636   7.615  0.00  0.00    +0.027 A 
BRANCH  16  27
ATOM     22  C   LIG    1       23.713 -33.547  11.542  0.00  0.00    +0.109 C 
ATOM     23  C   LIG    1       25.076 -32.944  11.156  0.00  0.00    +0.213 C 
ATOM     24  N   LIG    1       25.356 -32.968   9.805  0.00  0.00    -0.299 N 
ATOM     25  C   LIG    1       24.371 -33.131   8.704  0.00  0.00    +0.126 C 
ATOM     26  C   LIG    1       24.090 -31.783   7.996  0.00  0.00    +0.124 C 
ATOM     27  N   LIG    1       25.341 -31.084   7.592  0.00  0.00    -0.327 N 
ATOM     28  C   LIG    1       26.389 -31.044   8.657  0.00  0.00    +0.124 C 
ATOM     29  C   LIG    1       26.613 -32.416   9.316  0.00  0.00    +0.126 C 
ATOM     30  O   LIG    1       25.839 -32.506  12.012  0.00  0.00    -0.276 OA
ENDBRANCH  16  27
ENDBRANCH  15  19
ENDBRANCH  14  15
ENDBRANCH   1  14
BRANCH   3  31
ATOM     31  C   LIG    1       25.355 -20.701   7.101  0.00  0.00    +0.193 C 
BRANCH  31  32
ATOM     32  N   LIG    1       26.796 -20.865   7.072  0.00  0.00    -0.331 N 
ATOM     33  C   LIG    1       27.690 -20.188   6.296  0.00  0.00    +0.199 A 
ATOM     34  N   LIG    1       28.926 -20.551   6.548  0.00  0.00    -0.244 NA
ATOM     35  C   LIG    1       28.834 -21.466   7.560  0.00  0.00    +0.130 A 
ATOM     36  C   LIG    1       27.522 -21.662   7.920  0.00  0.00    +0.107 A 
ENDBRANCH  31  32
ENDBRANCH   3  31
TORSDOF 7
ENDMDL
MODEL 8
REMARK VINA RESULT:      -8.0      3.919     10.217
REMARK  Name = *****
REMARK                            x       y       z     vdW  Elec       q    Type
REMARK                         _______ _______ _______ _____ _____    ______ ____
ROOT
ATOM      1  C   LIG    1       24.718 -29.316   5.692  0.00  0.00    +0.185 C 
ATOM      2  O   LIG    1       23.894 -29.552   6.834  0.00  0.00    -0.334 OA
ATOM      3  C   LIG    1       24.552 -30.539   7.649  0.00  0.00    +0.217 C 
ATOM      4  O   LIG    1       25.881 -30.740   7.094  0.00  0.00    -0.341 OA
ATOM      5  C   LIG    1       26.097 -29.647   6.195  0.00  0.00    +0.198 C 
ENDROOT
BRANCH   3   6
ATOM      6  C   LIG    1       24.741 -30.113   9.117  0.00  0.00    +0.031 A 
ATOM      7  C   LIG    1       23.749 -30.188  10.118  0.00  0.00    +0.051 A 
ATOM      8 CL   LIG    1       22.189 -30.906   9.911  0.00  0.00    -0.083 Cl
ATOM      9  C   LIG    1       23.973 -29.667  11.403  0.00  0.00    +0.040 A 
ATOM     10  C   LIG    1       25.196 -29.102  11.735  0.00  0.00    +0.042 A 
ATOM     11 CL   LIG    1       25.435 -28.450  13.307  0.00  0.00    -0.084 Cl
ATOM     12  C   LIG    1       26.215 -29.058  10.795  0.00  0.00    +0.020 A 
ATOM     13  C   LIG    1       25.986 -29.546   9.501  0.00  0.00    +0.012 A 
ENDBRANCH   3   6
BRANCH   1  14
ATOM     14  C   LIG    1       24.591 -27.876   5.184  0.00  0.00    +0.263 C 
BRANCH  14  15
ATOM     15  O   LIG    1       23.743 -27.128   6.068  0.00  0.00    -0.489 OA
BRANCH  15  19
ATOM     16  C   LIG    1       25.102 -23.218   6.929  0.00  0.00    +0.030 A 
ATOM     17  C   LIG    1       23.735 -23.479   6.757  0.00  0.00    +0.027 A 
ATOM     18  C   LIG    1       23.242 -24.760   6.471  0.00  0.00    +0.047 A 
ATOM     19  C   LIG    1       24.106 -25.841   6.367  0.00  0.00    +0.121 A 
ATOM     20  C   LIG    1       25.468 -25.618   6.600  0.00  0.00    +0.047 A 
ATOM     21  C   LIG    1       25.961 -24.326   6.880  0.00  0.00    +0.027 A 
BRANCH  16  27
ATOM     22  C   LIG    1       29.974 -19.702   6.421  0.00  0.00    +0.109 C 
ATOM     23  C   LIG    1       29.143 -20.034   7.675  0.00  0.00    +0.213 C 
ATOM     24  N   LIG    1       27.777 -19.996   7.489  0.00  0.00    -0.299 N 
ATOM     25  C   LIG    1       27.062 -20.062   6.187  0.00  0.00    +0.126 C 
ATOM     26  C   LIG    1       26.434 -21.459   5.962  0.00  0.00    +0.124 C 
ATOM     27  N   LIG    1       25.619 -21.909   7.124  0.00  0.00    -0.327 N 
ATOM     28  C   LIG    1       26.285 -21.709   8.448  0.00  0.00    +0.124 C 
ATOM     29  C   LIG    1       26.885 -20.301   8.601  0.00  0.00    +0.126 C 
ATOM     30  O   LIG    1       29.688 -20.288   8.745  0.00  0.00    -0.276 OA
ENDBRANCH  16  27
ENDBRANCH  15  19
ENDBRANCH  14  15
ENDBRANCH   1  14
BRANCH   3  31
ATOM     31  C   LIG    1       23.805 -31.892   7.484  0.00  0.00    +0.193 C 
BRANCH  31  32
ATOM     32  N   LIG    1       24.046 -32.637   6.263  0.00  0.00    -0.331 N 
ATOM     33  C   LIG    1       25.232 -33.157   5.832  0.00  0.00    +0.199 A 
ATOM     34  N   LIG    1       25.093 -33.811   4.702  0.00  0.00    -0.244 NA
ATOM     35  C   LIG    1       23.758 -33.754   4.413  0.00  0.00    +0.130 A 
ATOM     36  C   LIG    1       23.081 -33.048   5.380  0.00  0.00    +0.107 A 
ENDBRANCH  31  32
ENDBRANCH   3  31
TORSDOF 7
ENDMDL
MODEL 9
REMARK VINA RESULT:      -7.9      4.520     11.026
REMARK  Name = *****
REMARK                            x       y       z     vdW  Elec       q    Type
REMARK                         _______ _______ _______ _____ _____    ______ ____
ROOT
ATOM      1  C   LIG    1       24.611 -30.085   6.602  0.00  0.00    +0.185 C 
ATOM      2  O   LIG    1       23.657 -31.052   7.040  0.00  0.00    -0.334 OA
ATOM      3  C   LIG    1       24.113 -31.574   8.301  0.00  0.00    +0.217 C 
ATOM      4  O   LIG    1       25.242 -30.759   8.722  0.00  0.00    -0.341 OA
ATOM      5  C   LIG    1       25.211 -29.593   7.892  0.00  0.00    +0.198 C 
ENDROOT
BRANCH   3   6
ATOM      6  C   LIG    1       23.064 -31.498   9.426  0.00  0.00    +0.031 A 
ATOM      7  C   LIG    1       21.971 -32.378   9.577  0.00  0.00    +0.051 A 
ATOM      8 CL   LIG    1       21.696 -33.786   8.611  0.00  0.00    -0.083 Cl
ATOM      9  C   LIG    1       20.997 -32.162  10.566  0.00  0.00    +0.040 A 
ATOM     10  C   LIG    1       21.108 -31.099  11.450  0.00  0.00    +0.042 A 
ATOM     11 CL   LIG    1       19.888 -30.844  12.634  0.00  0.00    -0.084 Cl
ATOM     12  C   LIG    1       22.196 -30.243  11.368  0.00  0.00    +0.020 A 
ATOM     13  C   LIG    1       23.154 -30.433  10.363  0.00  0.00    +0.012 A 
ENDBRANCH   3   6
BRANCH   1  14
ATOM     14  C   LIG    1       23.957 -28.971   5.778  0.00  0.00    +0.263 C 
BRANCH  14  15
ATOM     15  O   LIG    1       24.973 -28.194   5.129  0.00  0.00    -0.489 OA
BRANCH  15  19
ATOM     16  C   LIG    1       25.470 -24.173   6.340  0.00  0.00    +0.030 A 
ATOM     17  C   LIG    1       25.890 -25.226   7.166  0.00  0.00    +0.027 A 
ATOM     18  C   LIG    1       25.744 -26.573   6.803  0.00  0.00    +0.047 A 
ATOM     19  C   LIG    1       25.188 -26.917   5.579  0.00  0.00    +0.121 A 
ATOM     20  C   LIG    1       24.823 -25.883   4.709  0.00  0.00    +0.047 A 
ATOM     21  C   LIG    1       24.964 -24.529   5.082  0.00  0.00    +0.027 A 
BRANCH  16  27
ATOM     22  C   LIG    1       28.719 -19.098   6.154  0.00  0.00    +0.109 C 
ATOM     23  C   LIG    1       28.228 -19.891   7.379  0.00  0.00    +0.213 C 
ATOM     24  N   LIG    1       26.920 -20.323   7.301  0.00  0.00    -0.299 N 
ATOM     25  C   LIG    1       26.106 -20.449   6.064  0.00  0.00    +0.126 C 
ATOM     26  C   LIG    1       25.973 -21.928   5.627  0.00  0.00    +0.124 C 
ATOM     27  N   LIG    1       25.526 -22.811   6.739  0.00  0.00    -0.327 N 
ATOM     28  C   LIG    1       26.252 -22.583   8.027  0.00  0.00    +0.124 C 
ATOM     29  C   LIG    1       26.346 -21.093   8.397  0.00  0.00    +0.126 C 
ATOM     30  O   LIG    1       28.965 -20.087   8.341  0.00  0.00    -0.276 OA
ENDBRANCH  16  27
ENDBRANCH  15  19
ENDBRANCH  14  15
ENDBRANCH   1  14
BRANCH   3  31
ATOM     31  C   LIG    1       24.676 -33.004   8.070  0.00  0.00    +0.193 C 
BRANCH  31  32
ATOM     32  N   LIG    1       25.830 -33.129   7.201  0.00  0.00    -0.331 N 
ATOM     33  C   LIG    1       25.833 -33.401   5.863  0.00  0.00    +0.199 A 
ATOM     34  N   LIG    1       27.049 -33.403   5.370  0.00  0.00    -0.244 NA
ATOM     35  C   LIG    1       27.864 -33.073   6.418  0.00  0.00    +0.130 A 
ATOM     36  C   LIG    1       27.128 -32.875   7.562  0.00  0.00    +0.107 A 
ENDBRANCH  31  32
ENDBRANCH   3  31
TORSDOF 7
ENDMDL
