MODEL 1
REMARK VINA RESULT:      -9.6      0.000      0.000
REMARK  Name = *****
REMARK                            x       y       z     vdW  Elec       q    Type
REMARK                         _______ _______ _______ _____ _____    ______ ____
ROOT
ATOM      1  O   LIG    1       26.249 -20.175   5.675  0.00  0.00    -0.375 OA
ENDROOT
BRANCH   1   2
ATOM      2  C   LIG    1       25.537 -21.395   5.373  0.00  0.00    +0.135 C 
ATOM      3  C   LIG    1       25.508 -22.293   6.661  0.00  0.00    +0.086 C 
ATOM      4  C   LIG    1       24.733 -21.517   7.758  0.00  0.00    +0.021 C 
ATOM      5  C   LIG    1       23.324 -21.112   7.325  0.00  0.00    +0.002 C 
ATOM      6  C   LIG    1       23.309 -20.371   5.990  0.00  0.00    +0.003 C 
ATOM      7  C   LIG    1       24.097 -21.111   4.913  0.00  0.00    +0.033 C 
BRANCH   3   8
ATOM      8  N   LIG    1       24.931 -23.649   6.429  0.00  0.00    -0.294 NA
ATOM      9  C   LIG    1       24.938 -24.043   5.003  0.00  0.00    +0.116 C 
ATOM     10  C   LIG    1       24.969 -25.568   5.034  0.00  0.00    +0.130 C 
ATOM     11  C   LIG    1       25.914 -25.843   6.183  0.00  0.00    +0.048 C 
ATOM     12  C   LIG    1       25.614 -24.724   7.175  0.00  0.00    +0.087 C 
BRANCH  10  13
ATOM     13  O   LIG    1       23.680 -26.104   5.323  0.00  0.00    -0.391 OA
ATOM     14  H   LIG    1       23.331 -26.447   4.478  0.00  0.00    +0.210 HD
ENDBRANCH  10  13
ENDBRANCH   3   8
ENDBRANCH   1   2
BRANCH   1  15
ATOM     15  C   LIG    1       27.292 -20.333   6.641  0.00  0.00    +0.165 C 
BRANCH  15  16
ATOM     16  C   LIG    1       28.613 -19.846   6.051  0.00  0.00    +0.063 C 
BRANCH  16  20
ATOM     17  C   LIG    1       31.398 -18.645   9.129  0.00  0.00    +0.162 A 
ATOM     18  C   LIG    1       31.313 -20.010   8.765  0.00  0.00    +0.162 A 
ATOM     19  C   LIG    1       30.411 -20.384   7.756  0.00  0.00    +0.053 A 
ATOM     20  C   LIG    1       29.594 -19.436   7.122  0.00  0.00    -0.042 A 
ATOM     21  C   LIG    1       29.710 -18.089   7.486  0.00  0.00    +0.007 A 
ATOM     22  C   LIG    1       30.588 -17.711   8.480  0.00  0.00    +0.050 A 
BRANCH  17  24
ATOM     23  C   LIG    1       32.474 -16.861  10.259  0.00  0.00    +0.277 C 
ATOM     24  O   LIG    1       32.225 -18.262  10.157  0.00  0.00    -0.491 OA
ENDBRANCH  17  24
BRANCH  18  25
ATOM     25  O   LIG    1       32.033 -21.053   9.284  0.00  0.00    -0.491 OA
ATOM     26  C   LIG    1       31.445 -22.349   9.239  0.00  0.00    +0.277 C 
ENDBRANCH  18  25
ENDBRANCH  16  20
ENDBRANCH  15  16
ENDBRANCH   1  15
TORSDOF 8
ENDMDL
MODEL 2
REMARK VINA RESULT:      -9.4      0.959      2.166
REMARK  Name = *****
REMARK                            x       y       z     vdW  Elec       q    Type
REMARK                         _______ _______ _______ _____ _____    ______ ____
ROOT
ATOM      1  O   LIG    1       25.712 -19.918   4.986  0.00  0.00    -0.375 OA
ENDROOT
BRANCH   1   2
ATOM      2  C   LIG    1       25.015 -21.181   4.925  0.00  0.00    +0.135 C 
ATOM      3  C   LIG    1       25.376 -22.018   6.204  0.00  0.00    +0.086 C 
ATOM      4  C   LIG    1       24.876 -21.227   7.441  0.00  0.00    +0.021 C 
ATOM      5  C   LIG    1       23.381 -20.907   7.384  0.00  0.00    +0.002 C 
ATOM      6  C   LIG    1       22.974 -20.231   6.077  0.00  0.00    +0.003 C 
ATOM      7  C   LIG    1       23.491 -20.985   4.854  0.00  0.00    +0.033 C 
BRANCH   3   8
ATOM      8  N   LIG    1       24.835 -23.408   6.180  0.00  0.00    -0.294 NA
ATOM      9  C   LIG    1       24.879 -24.020   4.833  0.00  0.00    +0.116 C 
ATOM     10  C   LIG    1       24.945 -25.520   5.104  0.00  0.00    +0.130 C 
ATOM     11  C   LIG    1       25.874 -25.588   6.296  0.00  0.00    +0.048 C 
ATOM     12  C   LIG    1       25.529 -24.335   7.095  0.00  0.00    +0.087 C 
BRANCH  10  13
ATOM     13  O   LIG    1       23.663 -26.038   5.453  0.00  0.00    -0.391 OA
ATOM     14  H   LIG    1       23.193 -26.194   4.613  0.00  0.00    +0.210 HD
ENDBRANCH  10  13
ENDBRANCH   3   8
ENDBRANCH   1   2
BRANCH   1  15
ATOM     15  C   LIG    1       27.087 -19.991   4.597  0.00  0.00    +0.165 C 
BRANCH  15  16
ATOM     16  C   LIG    1       27.868 -18.864   5.267  0.00  0.00    +0.063 C 
BRANCH  16  20
ATOM     17  C   LIG    1       30.685 -20.389   8.166  0.00  0.00    +0.162 A 
ATOM     18  C   LIG    1       30.913 -19.122   7.578  0.00  0.00    +0.162 A 
ATOM     19  C   LIG    1       29.984 -18.634   6.645  0.00  0.00    +0.053 A 
ATOM     20  C   LIG    1       28.853 -19.384   6.284  0.00  0.00    -0.042 A 
ATOM     21  C   LIG    1       28.640 -20.625   6.894  0.00  0.00    +0.007 A 
ATOM     22  C   LIG    1       29.550 -21.118   7.807  0.00  0.00    +0.050 A 
BRANCH  17  24
ATOM     23  C   LIG    1       31.393 -22.272   9.420  0.00  0.00    +0.277 C 
ATOM     24  O   LIG    1       31.611 -20.916   9.033  0.00  0.00    -0.491 OA
ENDBRANCH  17  24
BRANCH  18  25
ATOM     25  O   LIG    1       31.959 -18.272   7.819  0.00  0.00    -0.491 OA
ATOM     26  C   LIG    1       31.869 -17.419   8.955  0.00  0.00    +0.277 C 
ENDBRANCH  18  25
ENDBRANCH  16  20
ENDBRANCH  15  16
ENDBRANCH   1  15
TORSDOF 8
ENDMDL
MODEL 3
REMARK VINA RESULT:      -8.9      2.852      8.413
REMARK  Name = *****
REMARK                            x       y       z     vdW  Elec       q    Type
REMARK                         _______ _______ _______ _____ _____    ______ ____
ROOT
ATOM      1  O   LIG    1       24.335 -23.736   5.852  0.00  0.00    -0.375 OA
ENDROOT
BRANCH   1   2
ATOM      2  C   LIG    1       25.030 -22.808   6.713  0.00  0.00    +0.135 C 
ATOM      3  C   LIG    1       25.830 -21.795   5.818  0.00  0.00    +0.086 C 
ATOM      4  C   LIG    1       24.802 -21.012   4.960  0.00  0.00    +0.021 C 
ATOM      5  C   LIG    1       23.738 -20.302   5.797  0.00  0.00    +0.002 C 
ATOM      6  C   LIG    1       23.052 -21.236   6.791  0.00  0.00    +0.003 C 
ATOM      7  C   LIG    1       24.056 -22.035   7.617  0.00  0.00    +0.033 C 
BRANCH   3   8
ATOM      8  N   LIG    1       26.712 -20.879   6.597  0.00  0.00    -0.294 NA
ATOM      9  C   LIG    1       27.689 -21.600   7.442  0.00  0.00    +0.116 C 
ATOM     10  C   LIG    1       28.848 -20.620   7.599  0.00  0.00    +0.130 C 
ATOM     11  C   LIG    1       28.936 -20.008   6.218  0.00  0.00    +0.048 C 
ATOM     12  C   LIG    1       27.483 -19.937   5.760  0.00  0.00    +0.087 C 
BRANCH  10  13
ATOM     13  O   LIG    1       28.544 -19.612   8.561  0.00  0.00    -0.391 OA
ATOM     14  H   LIG    1       28.474 -18.774   8.066  0.00  0.00    +0.210 HD
ENDBRANCH  10  13
ENDBRANCH   3   8
ENDBRANCH   1   2
BRANCH   1  15
ATOM     15  C   LIG    1       25.184 -24.711   5.238  0.00  0.00    +0.165 C 
BRANCH  15  16
ATOM     16  C   LIG    1       25.944 -25.479   6.317  0.00  0.00    +0.063 C 
BRANCH  16  20
ATOM     17  C   LIG    1       24.391 -29.479   6.823  0.00  0.00    +0.162 A 
ATOM     18  C   LIG    1       25.337 -28.980   7.750  0.00  0.00    +0.162 A 
ATOM     19  C   LIG    1       25.825 -27.674   7.579  0.00  0.00    +0.053 A 
ATOM     20  C   LIG    1       25.402 -26.873   6.506  0.00  0.00    -0.042 A 
ATOM     21  C   LIG    1       24.452 -27.383   5.614  0.00  0.00    +0.007 A 
ATOM     22  C   LIG    1       23.970 -28.666   5.768  0.00  0.00    +0.050 A 
BRANCH  17  24
ATOM     23  C   LIG    1       24.627 -31.730   6.119  0.00  0.00    +0.277 C 
ATOM     24  O   LIG    1       23.946 -30.774   6.931  0.00  0.00    -0.491 OA
ENDBRANCH  17  24
BRANCH  18  25
ATOM     25  O   LIG    1       25.850 -29.628   8.841  0.00  0.00    -0.491 OA
ATOM     26  C   LIG    1       26.645 -28.870   9.746  0.00  0.00    +0.277 C 
ENDBRANCH  18  25
ENDBRANCH  16  20
ENDBRANCH  15  16
ENDBRANCH   1  15
TORSDOF 8
ENDMDL
MODEL 4
REMARK VINA RESULT:      -8.6      1.546      1.997
REMARK  Name = *****
REMARK                            x       y       z     vdW  Elec       q    Type
REMARK                         _______ _______ _______ _____ _____    ______ ____
ROOT
ATOM      1  O   LIG    1       25.848 -20.312   7.406  0.00  0.00    -0.375 OA
ENDROOT
BRANCH   1   2
ATOM      2  C   LIG    1       25.785 -21.358   6.412  0.00  0.00    +0.135 C 
ATOM      3  C   LIG    1       24.885 -22.522   6.963  0.00  0.00    +0.086 C 
ATOM      4  C   LIG    1       23.460 -21.951   7.183  0.00  0.00    +0.021 C 
ATOM      5  C   LIG    1       22.861 -21.328   5.921  0.00  0.00    +0.002 C 
ATOM      6  C   LIG    1       23.789 -20.302   5.275  0.00  0.00    +0.003 C 
ATOM      7  C   LIG    1       25.203 -20.845   5.084  0.00  0.00    +0.033 C 
BRANCH   3   8
ATOM      8  N   LIG    1       24.869 -23.729   6.086  0.00  0.00    -0.294 NA
ATOM      9  C   LIG    1       26.103 -24.537   6.194  0.00  0.00    +0.116 C 
ATOM     10  C   LIG    1       25.665 -25.948   5.816  0.00  0.00    +0.130 C 
ATOM     11  C   LIG    1       24.308 -26.048   6.478  0.00  0.00    +0.048 C 
ATOM     12  C   LIG    1       23.736 -24.640   6.346  0.00  0.00    +0.087 C 
BRANCH  10  13
ATOM     13  O   LIG    1       25.529 -26.084   4.402  0.00  0.00    -0.391 OA
ATOM     14  H   LIG    1       26.352 -25.733   4.014  0.00  0.00    +0.210 HD
ENDBRANCH  10  13
ENDBRANCH   3   8
ENDBRANCH   1   2
BRANCH   1  15
ATOM     15  C   LIG    1       27.076 -20.277   8.139  0.00  0.00    +0.165 C 
BRANCH  15  16
ATOM     16  C   LIG    1       28.250 -20.210   7.166  0.00  0.00    +0.063 C 
BRANCH  16  20
ATOM     17  C   LIG    1       31.644 -18.103   8.813  0.00  0.00    +0.162 A 
ATOM     18  C   LIG    1       30.401 -18.051   9.488  0.00  0.00    +0.162 A 
ATOM     19  C   LIG    1       29.309 -18.749   8.947  0.00  0.00    +0.053 A 
ATOM     20  C   LIG    1       29.430 -19.477   7.753  0.00  0.00    -0.042 A 
ATOM     21  C   LIG    1       30.675 -19.530   7.114  0.00  0.00    +0.007 A 
ATOM     22  C   LIG    1       31.753 -18.842   7.633  0.00  0.00    +0.050 A 
BRANCH  17  24
ATOM     23  C   LIG    1       32.538 -15.961   9.293  0.00  0.00    +0.277 C 
ATOM     24  O   LIG    1       32.710 -17.378   9.286  0.00  0.00    -0.491 OA
ENDBRANCH  17  24
BRANCH  18  25
ATOM     25  O   LIG    1       30.118 -17.389  10.653  0.00  0.00    -0.491 OA
ATOM     26  C   LIG    1       30.940 -17.660  11.783  0.00  0.00    +0.277 C 
ENDBRANCH  18  25
ENDBRANCH  16  20
ENDBRANCH  15  16
ENDBRANCH   1  15
TORSDOF 8
ENDMDL
MODEL 5
REMARK VINA RESULT:      -8.6      2.922      8.328
REMARK  Name = *****
REMARK                            x       y       z     vdW  Elec       q    Type
REMARK                         _______ _______ _______ _____ _____    ______ ____
ROOT
ATOM      1  O   LIG    1       24.256 -23.836   6.064  0.00  0.00    -0.375 OA
ENDROOT
BRANCH   1   2
ATOM      2  C   LIG    1       24.925 -22.843   6.872  0.00  0.00    +0.135 C 
ATOM      3  C   LIG    1       25.803 -21.940   5.933  0.00  0.00    +0.086 C 
ATOM      4  C   LIG    1       24.847 -21.223   4.943  0.00  0.00    +0.021 C 
ATOM      5  C   LIG    1       23.757 -20.411   5.644  0.00  0.00    +0.002 C 
ATOM      6  C   LIG    1       22.989 -21.229   6.680  0.00  0.00    +0.003 C 
ATOM      7  C   LIG    1       23.922 -21.965   7.638  0.00  0.00    +0.033 C 
BRANCH   3   8
ATOM      8  N   LIG    1       26.663 -20.971   6.672  0.00  0.00    -0.294 NA
ATOM      9  C   LIG    1       27.721 -21.631   7.469  0.00  0.00    +0.116 C 
ATOM     10  C   LIG    1       28.824 -20.582   7.573  0.00  0.00    +0.130 C 
ATOM     11  C   LIG    1       28.809 -19.967   6.191  0.00  0.00    +0.048 C 
ATOM     12  C   LIG    1       27.334 -19.984   5.802  0.00  0.00    +0.087 C 
BRANCH  10  13
ATOM     13  O   LIG    1       28.505 -19.594   8.551  0.00  0.00    -0.391 OA
ATOM     14  H   LIG    1       28.099 -20.072   9.299  0.00  0.00    +0.210 HD
ENDBRANCH  10  13
ENDBRANCH   3   8
ENDBRANCH   1   2
BRANCH   1  15
ATOM     15  C   LIG    1       25.142 -24.741   5.398  0.00  0.00    +0.165 C 
BRANCH  15  16
ATOM     16  C   LIG    1       24.423 -26.061   5.137  0.00  0.00    +0.063 C 
BRANCH  16  20
ATOM     17  C   LIG    1       25.508 -29.065   8.047  0.00  0.00    +0.162 A 
ATOM     18  C   LIG    1       24.437 -29.317   7.157  0.00  0.00    +0.162 A 
ATOM     19  C   LIG    1       24.102 -28.336   6.210  0.00  0.00    +0.053 A 
ATOM     20  C   LIG    1       24.799 -27.119   6.144  0.00  0.00    -0.042 A 
ATOM     21  C   LIG    1       25.867 -26.901   7.022  0.00  0.00    +0.007 A 
ATOM     22  C   LIG    1       26.201 -27.855   7.962  0.00  0.00    +0.050 A 
BRANCH  17  24
ATOM     23  C   LIG    1       25.469 -29.601  10.356  0.00  0.00    +0.277 C 
ATOM     24  O   LIG    1       25.815 -29.980   9.025  0.00  0.00    -0.491 OA
ENDBRANCH  17  24
BRANCH  18  25
ATOM     25  O   LIG    1       23.661 -30.443   7.092  0.00  0.00    -0.491 OA
ATOM     26  C   LIG    1       24.123 -31.516   6.279  0.00  0.00    +0.277 C 
ENDBRANCH  18  25
ENDBRANCH  16  20
ENDBRANCH  15  16
ENDBRANCH   1  15
TORSDOF 8
ENDMDL
MODEL 6
REMARK VINA RESULT:      -8.3      3.822      8.512
REMARK  Name = *****
REMARK                            x       y       z     vdW  Elec       q    Type
REMARK                         _______ _______ _______ _____ _____    ______ ____
ROOT
ATOM      1  O   LIG    1       26.035 -23.654   7.067  0.00  0.00    -0.375 OA
ENDROOT
BRANCH   1   2
ATOM      2  C   LIG    1       25.966 -22.407   6.342  0.00  0.00    +0.135 C 
ATOM      3  C   LIG    1       24.564 -21.749   6.605  0.00  0.00    +0.086 C 
ATOM      4  C   LIG    1       24.460 -21.454   8.125  0.00  0.00    +0.021 C 
ATOM      5  C   LIG    1       25.598 -20.575   8.644  0.00  0.00    +0.002 C 
ATOM      6  C   LIG    1       26.976 -21.111   8.264  0.00  0.00    +0.003 C 
ATOM      7  C   LIG    1       27.077 -21.436   6.776  0.00  0.00    +0.033 C 
BRANCH   3   8
ATOM      8  N   LIG    1       24.314 -20.528   5.786  0.00  0.00    -0.294 NA
ATOM      9  C   LIG    1       24.454 -20.771   4.333  0.00  0.00    +0.116 C 
ATOM     10  C   LIG    1       23.564 -19.713   3.687  0.00  0.00    +0.130 C 
ATOM     11  C   LIG    1       22.370 -19.691   4.617  0.00  0.00    +0.048 C 
ATOM     12  C   LIG    1       22.980 -19.931   5.995  0.00  0.00    +0.087 C 
BRANCH  10  13
ATOM     13  O   LIG    1       24.201 -18.437   3.680  0.00  0.00    -0.391 OA
ATOM     14  H   LIG    1       24.479 -18.266   4.600  0.00  0.00    +0.210 HD
ENDBRANCH  10  13
ENDBRANCH   3   8
ENDBRANCH   1   2
BRANCH   1  15
ATOM     15  C   LIG    1       25.190 -24.682   6.543  0.00  0.00    +0.165 C 
BRANCH  15  16
ATOM     16  C   LIG    1       26.047 -25.834   6.025  0.00  0.00    +0.063 C 
BRANCH  16  20
ATOM     17  C   LIG    1       24.383 -29.695   7.023  0.00  0.00    +0.162 A 
ATOM     18  C   LIG    1       25.300 -29.085   7.912  0.00  0.00    +0.162 A 
ATOM     19  C   LIG    1       25.825 -27.825   7.579  0.00  0.00    +0.053 A 
ATOM     20  C   LIG    1       25.466 -27.178   6.387  0.00  0.00    -0.042 A 
ATOM     21  C   LIG    1       24.542 -27.793   5.534  0.00  0.00    +0.007 A 
ATOM     22  C   LIG    1       24.024 -29.034   5.847  0.00  0.00    +0.050 A 
BRANCH  17  24
ATOM     23  C   LIG    1       23.770 -31.818   6.167  0.00  0.00    +0.277 C 
ATOM     24  O   LIG    1       23.904 -30.954   7.294  0.00  0.00    -0.491 OA
ENDBRANCH  17  24
BRANCH  18  25
ATOM     25  O   LIG    1       25.752 -29.579   9.106  0.00  0.00    -0.491 OA
ATOM     26  C   LIG    1       26.670 -28.781   9.846  0.00  0.00    +0.277 C 
ENDBRANCH  18  25
ENDBRANCH  16  20
ENDBRANCH  15  16
ENDBRANCH   1  15
TORSDOF 8
ENDMDL
MODEL 7
REMARK VINA RESULT:      -8.2      4.755      8.580
REMARK  Name = *****
REMARK                            x       y       z     vdW  Elec       q    Type
REMARK                         _______ _______ _______ _____ _____    ______ ____
ROOT
ATOM      1  O   LIG    1       24.205 -24.431   6.517  0.00  0.00    -0.375 OA
ENDROOT
BRANCH   1   2
ATOM      2  C   LIG    1       24.722 -23.213   5.939  0.00  0.00    +0.135 C 
ATOM      3  C   LIG    1       23.647 -22.080   6.107  0.00  0.00    +0.086 C 
ATOM      4  C   LIG    1       23.429 -21.861   7.627  0.00  0.00    +0.021 C 
ATOM      5  C   LIG    1       24.720 -21.526   8.376  0.00  0.00    +0.002 C 
ATOM      6  C   LIG    1       25.836 -22.532   8.104  0.00  0.00    +0.003 C 
ATOM      7  C   LIG    1       26.035 -22.779   6.611  0.00  0.00    +0.033 C 
BRANCH   3   8
ATOM      8  N   LIG    1       24.005 -20.811   5.411  0.00  0.00    -0.294 NA
ATOM      9  C   LIG    1       24.213 -20.989   3.956  0.00  0.00    +0.116 C 
ATOM     10  C   LIG    1       23.902 -19.620   3.360  0.00  0.00    +0.130 C 
ATOM     11  C   LIG    1       22.711 -19.178   4.183  0.00  0.00    +0.048 C 
ATOM     12  C   LIG    1       23.003 -19.738   5.572  0.00  0.00    +0.087 C 
BRANCH  10  13
ATOM     13  O   LIG    1       24.988 -18.716   3.549  0.00  0.00    -0.391 OA
ATOM     14  H   LIG    1       25.803 -19.243   3.443  0.00  0.00    +0.210 HD
ENDBRANCH  10  13
ENDBRANCH   3   8
ENDBRANCH   1   2
BRANCH   1  15
ATOM     15  C   LIG    1       24.159 -25.535   5.609  0.00  0.00    +0.165 C 
BRANCH  15  16
ATOM     16  C   LIG    1       25.480 -26.298   5.664  0.00  0.00    +0.063 C 
BRANCH  16  20
ATOM     17  C   LIG    1       25.378 -29.502   8.560  0.00  0.00    +0.162 A 
ATOM     18  C   LIG    1       24.522 -29.558   7.434  0.00  0.00    +0.162 A 
ATOM     19  C   LIG    1       24.574 -28.514   6.495  0.00  0.00    +0.053 A 
ATOM     20  C   LIG    1       25.442 -27.425   6.665  0.00  0.00    -0.042 A 
ATOM     21  C   LIG    1       26.292 -27.402   7.777  0.00  0.00    +0.007 A 
ATOM     22  C   LIG    1       26.246 -28.419   8.709  0.00  0.00    +0.050 A 
BRANCH  17  24
ATOM     23  C   LIG    1       26.193 -31.579   9.361  0.00  0.00    +0.277 C 
ATOM     24  O   LIG    1       25.301 -30.477   9.525  0.00  0.00    -0.491 OA
ENDBRANCH  17  24
BRANCH  18  25
ATOM     25  O   LIG    1       23.622 -30.542   7.124  0.00  0.00    -0.491 OA
ATOM     26  C   LIG    1       24.016 -31.518   6.166  0.00  0.00    +0.277 C 
ENDBRANCH  18  25
ENDBRANCH  16  20
ENDBRANCH  15  16
ENDBRANCH   1  15
TORSDOF 8
ENDMDL
MODEL 8
REMARK VINA RESULT:      -8.2      1.688      2.419
REMARK  Name = *****
REMARK                            x       y       z     vdW  Elec       q    Type
REMARK                         _______ _______ _______ _____ _____    ______ ____
ROOT
ATOM      1  O   LIG    1       25.459 -20.501   7.441  0.00  0.00    -0.375 OA
ENDROOT
BRANCH   1   2
ATOM      2  C   LIG    1       25.469 -21.514   6.412  0.00  0.00    +0.135 C 
ATOM      3  C   LIG    1       24.629 -22.744   6.909  0.00  0.00    +0.086 C 
ATOM      4  C   LIG    1       23.170 -22.261   7.125  0.00  0.00    +0.021 C 
ATOM      5  C   LIG    1       22.555 -21.630   5.875  0.00  0.00    +0.002 C 
ATOM      6  C   LIG    1       23.433 -20.532   5.279  0.00  0.00    +0.003 C 
ATOM      7  C   LIG    1       24.877 -20.988   5.093  0.00  0.00    +0.033 C 
BRANCH   3   8
ATOM      8  N   LIG    1       24.692 -23.919   5.992  0.00  0.00    -0.294 NA
ATOM      9  C   LIG    1       25.994 -24.621   6.043  0.00  0.00    +0.116 C 
ATOM     10  C   LIG    1       25.667 -26.052   5.627  0.00  0.00    +0.130 C 
ATOM     11  C   LIG    1       24.343 -26.289   6.318  0.00  0.00    +0.048 C 
ATOM     12  C   LIG    1       23.649 -24.932   6.247  0.00  0.00    +0.087 C 
BRANCH  10  13
ATOM     13  O   LIG    1       25.507 -26.153   4.214  0.00  0.00    -0.391 OA
ATOM     14  H   LIG    1       25.067 -25.330   3.929  0.00  0.00    +0.210 HD
ENDBRANCH  10  13
ENDBRANCH   3   8
ENDBRANCH   1   2
BRANCH   1  15
ATOM     15  C   LIG    1       26.311 -20.791   8.553  0.00  0.00    +0.165 C 
BRANCH  15  16
ATOM     16  C   LIG    1       27.589 -21.462   8.057  0.00  0.00    +0.063 C 
BRANCH  16  20
ATOM     17  C   LIG    1       30.924 -18.720   7.880  0.00  0.00    +0.162 A 
ATOM     18  C   LIG    1       30.069 -18.846   6.759  0.00  0.00    +0.162 A 
ATOM     19  C   LIG    1       28.983 -19.733   6.834  0.00  0.00    +0.053 A 
ATOM     20  C   LIG    1       28.746 -20.496   7.988  0.00  0.00    -0.042 A 
ATOM     21  C   LIG    1       29.593 -20.340   9.091  0.00  0.00    +0.007 A 
ATOM     22  C   LIG    1       30.667 -19.476   9.026  0.00  0.00    +0.050 A 
BRANCH  17  24
ATOM     23  C   LIG    1       32.247 -17.062   8.938  0.00  0.00    +0.277 C 
ATOM     24  O   LIG    1       32.029 -17.907   7.809  0.00  0.00    -0.491 OA
ENDBRANCH  17  24
BRANCH  18  25
ATOM     25  O   LIG    1       30.163 -18.179   5.566  0.00  0.00    -0.491 OA
ATOM     26  C   LIG    1       28.950 -17.794   4.928  0.00  0.00    +0.277 C 
ENDBRANCH  18  25
ENDBRANCH  16  20
ENDBRANCH  15  16
ENDBRANCH   1  15
TORSDOF 8
ENDMDL
MODEL 9
REMARK VINA RESULT:      -8.0      3.139      8.469
REMARK  Name = *****
REMARK                            x       y       z     vdW  Elec       q    Type
REMARK                         _______ _______ _______ _____ _____    ______ ____
ROOT
ATOM      1  O   LIG    1       29.070 -21.227   8.163  0.00  0.00    -0.375 OA
ENDROOT
BRANCH   1   2
ATOM      2  C   LIG    1       29.152 -19.824   8.495  0.00  0.00    +0.135 C 
ATOM      3  C   LIG    1       30.512 -19.559   9.234  0.00  0.00    +0.086 C 
ATOM      4  C   LIG    1       31.658 -19.912   8.250  0.00  0.00    +0.021 C 
ATOM      5  C   LIG    1       31.577 -19.139   6.933  0.00  0.00    +0.002 C 
ATOM      6  C   LIG    1       30.206 -19.251   6.269  0.00  0.00    +0.003 C 
ATOM      7  C   LIG    1       29.070 -18.939   7.239  0.00  0.00    +0.033 C 
BRANCH   3   8
ATOM      8  N   LIG    1       30.644 -18.171   9.763  0.00  0.00    -0.294 NA
ATOM      9  C   LIG    1       30.533 -18.103  11.237  0.00  0.00    +0.116 C 
ATOM     10  C   LIG    1       31.317 -16.851  11.617  0.00  0.00    +0.130 C 
ATOM     11  C   LIG    1       32.500 -16.920  10.676  0.00  0.00    +0.048 C 
ATOM     12  C   LIG    1       31.913 -17.511   9.398  0.00  0.00    +0.087 C 
BRANCH  10  13
ATOM     13  O   LIG    1       30.559 -15.670  11.363  0.00  0.00    -0.391 OA
ATOM     14  H   LIG    1       31.145 -15.073  10.861  0.00  0.00    +0.210 HD
ENDBRANCH  10  13
ENDBRANCH   3   8
ENDBRANCH   1   2
BRANCH   1  15
ATOM     15  C   LIG    1       27.959 -21.565   7.327  0.00  0.00    +0.165 C 
BRANCH  15  16
ATOM     16  C   LIG    1       26.656 -21.240   8.051  0.00  0.00    +0.063 C 
BRANCH  16  20
ATOM     17  C   LIG    1       23.456 -20.230   5.329  0.00  0.00    +0.162 A 
ATOM     18  C   LIG    1       24.796 -20.171   4.876  0.00  0.00    +0.162 A 
ATOM     19  C   LIG    1       25.825 -20.512   5.769  0.00  0.00    +0.053 A 
ATOM     20  C   LIG    1       25.546 -20.893   7.091  0.00  0.00    -0.042 A 
ATOM     21  C   LIG    1       24.212 -20.962   7.509  0.00  0.00    +0.007 A 
ATOM     22  C   LIG    1       23.193 -20.623   6.642  0.00  0.00    +0.050 A 
BRANCH  17  24
ATOM     23  C   LIG    1       22.114 -18.451   4.522  0.00  0.00    +0.277 C 
ATOM     24  O   LIG    1       22.436 -19.841   4.495  0.00  0.00    -0.491 OA
ENDBRANCH  17  24
BRANCH  18  25
ATOM     25  O   LIG    1       25.235 -19.821   3.628  0.00  0.00    -0.491 OA
ATOM     26  C   LIG    1       25.554 -18.452   3.400  0.00  0.00    +0.277 C 
ENDBRANCH  18  25
ENDBRANCH  16  20
ENDBRANCH  15  16
ENDBRANCH   1  15
TORSDOF 8
ENDMDL
