MODEL 1
REMARK VINA RESULT:      -7.6      0.000      0.000
REMARK  Name = *****
REMARK                            x       y       z     vdW  Elec       q    Type
REMARK                         _______ _______ _______ _____ _____    ______ ____
ROOT
ATOM      1  C   LIG    1       28.045 -21.054   6.765  0.00  0.00    +0.119 C 
ATOM      2  N   LIG    1       29.245 -21.316   7.588  0.00  0.00    -0.330 N 
ATOM      3  H   LIG    1       29.263 -22.101   8.235  0.00  0.00    +0.147 HD
ATOM      4  C   LIG    1       30.087 -20.253   7.930  0.00  0.00    +0.133 C 
ATOM      5  C   LIG    1       30.029 -19.028   7.345  0.00  0.00    +0.149 C 
ATOM      6  N   LIG    1       30.874 -17.998   7.670  0.00  0.00    -0.199 NA
ATOM      7  C   LIG    1       31.770 -18.198   8.580  0.00  0.00    +0.195 C 
ATOM      8  N   LIG    1       31.923 -19.382   9.228  0.00  0.00    -0.294 N 
ATOM      9  H   LIG    1       32.584 -19.474   9.979  0.00  0.00    +0.172 HD
ATOM     10  N   LIG    1       29.056 -18.816   6.360  0.00  0.00    -0.326 N 
ATOM     11  H   LIG    1       29.337 -18.048   5.756  0.00  0.00    +0.148 HD
ATOM     12  C   LIG    1       31.099 -20.442   9.006  0.00  0.00    +0.276 C 
ATOM     13  O   LIG    1       31.165 -21.482   9.658  0.00  0.00    -0.266 OA
ATOM     14  C   LIG    1       28.411 -19.963   5.709  0.00  0.00    +0.128 C 
ENDROOT
BRANCH   7  15
ATOM     15  N   LIG    1       32.622 -17.203   8.930  0.00  0.00    -0.329 N 
ATOM     16  H   LIG    1       32.222 -16.418   9.426  0.00  0.00    +0.145 HD
ATOM     17  H   LIG    1       33.458 -17.567   9.379  0.00  0.00    +0.145 HD
ENDBRANCH   7  15
BRANCH   1  18
ATOM     18  C   LIG    1       26.865 -20.633   7.679  0.00  0.00    +0.164 C 
BRANCH  18  20
ATOM     19  C   LIG    1       25.244 -21.923   6.145  0.00  0.00    +0.040 C 
ATOM     20  C   LIG    1       25.472 -20.695   7.019  0.00  0.00    +0.142 C 
BRANCH  20  21
ATOM     21  O   LIG    1       24.482 -20.727   8.059  0.00  0.00    -0.389 OA
ATOM     22  H   LIG    1       24.965 -20.497   8.878  0.00  0.00    +0.210 HD
ENDBRANCH  20  21
ENDBRANCH  18  20
BRANCH  18  23
ATOM     23  O   LIG    1       26.829 -21.485   8.849  0.00  0.00    -0.387 OA
ATOM     24  H   LIG    1       26.112 -21.128   9.405  0.00  0.00    +0.210 HD
ENDBRANCH  18  23
ENDBRANCH   1  18
TORSDOF 5
ENDMDL
MODEL 2
REMARK VINA RESULT:      -7.0      2.663      4.003
REMARK  Name = *****
REMARK                            x       y       z     vdW  Elec       q    Type
REMARK                         _______ _______ _______ _____ _____    ______ ____
ROOT
ATOM      1  C   LIG    1       24.981 -21.528   6.837  0.00  0.00    +0.119 C 
ATOM      2  N   LIG    1       25.962 -20.548   6.322  0.00  0.00    -0.330 N 
ATOM      3  H   LIG    1       25.839 -20.133   5.402  0.00  0.00    +0.147 HD
ATOM      4  C   LIG    1       27.285 -20.605   6.770  0.00  0.00    +0.133 C 
ATOM      5  C   LIG    1       27.687 -21.333   7.845  0.00  0.00    +0.149 C 
ATOM      6  N   LIG    1       28.983 -21.364   8.291  0.00  0.00    -0.199 NA
ATOM      7  C   LIG    1       29.871 -20.669   7.658  0.00  0.00    +0.195 C 
ATOM      8  N   LIG    1       29.584 -19.902   6.575  0.00  0.00    -0.294 N 
ATOM      9  H   LIG    1       30.316 -19.435   6.069  0.00  0.00    +0.172 HD
ATOM     10  N   LIG    1       26.722 -22.084   8.527  0.00  0.00    -0.326 N 
ATOM     11  H   LIG    1       27.031 -22.264   9.477  0.00  0.00    +0.148 HD
ATOM     12  C   LIG    1       28.337 -19.849   6.033  0.00  0.00    +0.276 C 
ATOM     13  O   LIG    1       28.089 -19.239   4.995  0.00  0.00    -0.266 OA
ATOM     14  C   LIG    1       25.296 -21.783   8.344  0.00  0.00    +0.128 C 
ENDROOT
BRANCH   7  15
ATOM     15  N   LIG    1       31.164 -20.676   8.069  0.00  0.00    -0.329 N 
ATOM     16  H   LIG    1       31.817 -21.195   7.498  0.00  0.00    +0.145 HD
ATOM     17  H   LIG    1       31.491 -19.740   8.288  0.00  0.00    +0.145 HD
ENDBRANCH   7  15
BRANCH   1  18
ATOM     18  C   LIG    1       25.038 -22.822   5.984  0.00  0.00    +0.164 C 
BRANCH  18  20
ATOM     19  C   LIG    1       22.667 -23.533   6.706  0.00  0.00    +0.040 C 
ATOM     20  C   LIG    1       24.110 -23.960   6.459  0.00  0.00    +0.142 C 
BRANCH  20  21
ATOM     21  O   LIG    1       24.082 -24.973   5.442  0.00  0.00    -0.389 OA
ATOM     22  H   LIG    1       24.180 -25.819   5.923  0.00  0.00    +0.210 HD
ENDBRANCH  20  21
ENDBRANCH  18  20
BRANCH  18  23
ATOM     23  O   LIG    1       24.685 -22.518   4.614  0.00  0.00    -0.387 OA
ATOM     24  H   LIG    1       24.839 -23.344   4.119  0.00  0.00    +0.210 HD
ENDBRANCH  18  23
ENDBRANCH   1  18
TORSDOF 5
ENDMDL
MODEL 3
REMARK VINA RESULT:      -6.9      3.025      6.027
REMARK  Name = *****
REMARK                            x       y       z     vdW  Elec       q    Type
REMARK                         _______ _______ _______ _____ _____    ______ ____
ROOT
ATOM      1  C   LIG    1       29.299 -20.239   6.239  0.00  0.00    +0.119 C 
ATOM      2  N   LIG    1       28.084 -20.343   5.402  0.00  0.00    -0.330 N 
ATOM      3  H   LIG    1       28.054 -19.906   4.483  0.00  0.00    +0.147 HD
ATOM      4  C   LIG    1       26.840 -20.503   6.018  0.00  0.00    +0.133 C 
ATOM      5  C   LIG    1       26.684 -20.832   7.327  0.00  0.00    +0.149 C 
ATOM      6  N   LIG    1       25.460 -21.011   7.918  0.00  0.00    -0.199 NA
ATOM      7  C   LIG    1       24.398 -20.855   7.197  0.00  0.00    +0.195 C 
ATOM      8  N   LIG    1       24.432 -20.530   5.879  0.00  0.00    -0.294 N 
ATOM      9  H   LIG    1       23.584 -20.349   5.373  0.00  0.00    +0.172 HD
ATOM     10  N   LIG    1       27.837 -20.999   8.104  0.00  0.00    -0.326 N 
ATOM     11  H   LIG    1       27.631 -21.586   8.908  0.00  0.00    +0.148 HD
ATOM     12  C   LIG    1       25.599 -20.287   5.222  0.00  0.00    +0.276 C 
ATOM     13  O   LIG    1       25.636 -19.894   4.058  0.00  0.00    -0.266 OA
ATOM     14  C   LIG    1       29.136 -21.209   7.451  0.00  0.00    +0.128 C 
ENDROOT
BRANCH   7  15
ATOM     15  N   LIG    1       23.169 -21.021   7.747  0.00  0.00    -0.329 N 
ATOM     16  H   LIG    1       22.436 -20.411   7.410  0.00  0.00    +0.145 HD
ATOM     17  H   LIG    1       22.892 -21.998   7.756  0.00  0.00    +0.145 HD
ENDBRANCH   7  15
BRANCH   1  18
ATOM     18  C   LIG    1       29.511 -18.765   6.672  0.00  0.00    +0.164 C 
BRANCH  18  20
ATOM     19  C   LIG    1       30.620 -18.484   8.983  0.00  0.00    +0.040 C 
ATOM     20  C   LIG    1       30.805 -18.498   7.470  0.00  0.00    +0.142 C 
BRANCH  20  21
ATOM     21  O   LIG    1       31.744 -19.542   7.169  0.00  0.00    -0.389 OA
ATOM     22  H   LIG    1       31.235 -20.202   6.657  0.00  0.00    +0.210 HD
ENDBRANCH  20  21
ENDBRANCH  18  20
BRANCH  18  23
ATOM     23  O   LIG    1       29.540 -17.914   5.502  0.00  0.00    -0.387 OA
ATOM     24  H   LIG    1       30.455 -17.578   5.451  0.00  0.00    +0.210 HD
ENDBRANCH  18  23
ENDBRANCH   1  18
TORSDOF 5
ENDMDL
MODEL 4
REMARK VINA RESULT:      -6.8      2.499      5.643
REMARK  Name = *****
REMARK                            x       y       z     vdW  Elec       q    Type
REMARK                         _______ _______ _______ _____ _____    ______ ____
ROOT
ATOM      1  C   LIG    1       31.559 -19.556   8.474  0.00  0.00    +0.119 C 
ATOM      2  N   LIG    1       30.980 -19.171   7.169  0.00  0.00    -0.330 N 
ATOM      3  H   LIG    1       31.228 -18.282   6.739  0.00  0.00    +0.147 HD
ATOM      4  C   LIG    1       29.729 -19.675   6.799  0.00  0.00    +0.133 C 
ATOM      5  C   LIG    1       29.113 -20.704   7.437  0.00  0.00    +0.149 C 
ATOM      6  N   LIG    1       27.897 -21.208   7.053  0.00  0.00    -0.199 NA
ATOM      7  C   LIG    1       27.302 -20.676   6.036  0.00  0.00    +0.195 C 
ATOM      8  N   LIG    1       27.825 -19.647   5.320  0.00  0.00    -0.294 N 
ATOM      9  H   LIG    1       27.298 -19.216   4.581  0.00  0.00    +0.172 HD
ATOM     10  N   LIG    1       29.761 -21.276   8.539  0.00  0.00    -0.326 N 
ATOM     11  H   LIG    1       29.423 -22.222   8.687  0.00  0.00    +0.148 HD
ATOM     12  C   LIG    1       29.001 -19.053   5.658  0.00  0.00    +0.276 C 
ATOM     13  O   LIG    1       29.433 -18.057   5.079  0.00  0.00    -0.266 OA
ATOM     14  C   LIG    1       31.198 -21.051   8.742  0.00  0.00    +0.128 C 
ENDROOT
BRANCH   7  15
ATOM     15  N   LIG    1       26.097 -21.146   5.627  0.00  0.00    -0.329 N 
ATOM     16  H   LIG    1       25.646 -20.642   4.876  0.00  0.00    +0.145 HD
ATOM     17  H   LIG    1       26.121 -22.149   5.468  0.00  0.00    +0.145 HD
ENDBRANCH   7  15
BRANCH   1  18
ATOM     18  C   LIG    1       31.035 -18.604   9.581  0.00  0.00    +0.164 C 
BRANCH  18  20
ATOM     19  C   LIG    1       32.476 -16.802  10.730  0.00  0.00    +0.040 C 
ATOM     20  C   LIG    1       31.605 -17.171   9.535  0.00  0.00    +0.142 C 
BRANCH  20  21
ATOM     21  O   LIG    1       32.425 -17.050   8.362  0.00  0.00    -0.389 OA
ATOM     22  H   LIG    1       33.328 -17.288   8.656  0.00  0.00    +0.210 HD
ENDBRANCH  20  21
ENDBRANCH  18  20
BRANCH  18  23
ATOM     23  O   LIG    1       29.594 -18.500   9.489  0.00  0.00    -0.387 OA
ATOM     24  H   LIG    1       29.376 -17.624   9.860  0.00  0.00    +0.210 HD
ENDBRANCH  18  23
ENDBRANCH   1  18
TORSDOF 5
ENDMDL
MODEL 5
REMARK VINA RESULT:      -6.8      5.476      6.912
REMARK  Name = *****
REMARK                            x       y       z     vdW  Elec       q    Type
REMARK                         _______ _______ _______ _____ _____    ______ ____
ROOT
ATOM      1  C   LIG    1       24.415 -23.786   6.802  0.00  0.00    +0.119 C 
ATOM      2  N   LIG    1       23.497 -22.743   6.296  0.00  0.00    -0.330 N 
ATOM      3  H   LIG    1       22.525 -22.967   6.098  0.00  0.00    +0.147 HD
ATOM      4  C   LIG    1       24.016 -21.672   5.561  0.00  0.00    +0.133 C 
ATOM      5  C   LIG    1       25.340 -21.376   5.493  0.00  0.00    +0.149 C 
ATOM      6  N   LIG    1       25.838 -20.310   4.789  0.00  0.00    -0.199 NA
ATOM      7  C   LIG    1       25.008 -19.548   4.153  0.00  0.00    +0.195 C 
ATOM      8  N   LIG    1       23.665 -19.746   4.153  0.00  0.00    -0.294 N 
ATOM      9  H   LIG    1       23.062 -19.174   3.588  0.00  0.00    +0.172 HD
ATOM     10  N   LIG    1       26.234 -22.204   6.183  0.00  0.00    -0.326 N 
ATOM     11  H   LIG    1       27.095 -21.700   6.374  0.00  0.00    +0.148 HD
ATOM     12  C   LIG    1       23.087 -20.805   4.783  0.00  0.00    +0.276 C 
ATOM     13  O   LIG    1       21.885 -21.049   4.704  0.00  0.00    -0.266 OA
ATOM     14  C   LIG    1       25.741 -23.091   7.244  0.00  0.00    +0.128 C 
ENDROOT
BRANCH   7  15
ATOM     15  N   LIG    1       25.463 -18.485   3.444  0.00  0.00    -0.329 N 
ATOM     16  H   LIG    1       25.046 -18.335   2.536  0.00  0.00    +0.145 HD
ATOM     17  H   LIG    1       25.488 -17.642   4.009  0.00  0.00    +0.145 HD
ENDBRANCH   7  15
BRANCH   1  18
ATOM     18  C   LIG    1       24.638 -24.862   5.708  0.00  0.00    +0.164 C 
BRANCH  18  20
ATOM     19  C   LIG    1       25.778 -26.801   6.969  0.00  0.00    +0.040 C 
ATOM     20  C   LIG    1       25.901 -25.730   5.891  0.00  0.00    +0.142 C 
BRANCH  20  21
ATOM     21  O   LIG    1       26.167 -26.406   4.653  0.00  0.00    -0.389 OA
ATOM     22  H   LIG    1       27.142 -26.481   4.608  0.00  0.00    +0.210 HD
ENDBRANCH  20  21
ENDBRANCH  18  20
BRANCH  18  23
ATOM     23  O   LIG    1       23.500 -25.757   5.667  0.00  0.00    -0.387 OA
ATOM     24  H   LIG    1       23.854 -26.607   5.347  0.00  0.00    +0.210 HD
ENDBRANCH  18  23
ENDBRANCH   1  18
TORSDOF 5
ENDMDL
MODEL 6
REMARK VINA RESULT:      -6.8      2.419      5.542
REMARK  Name = *****
REMARK                            x       y       z     vdW  Elec       q    Type
REMARK                         _______ _______ _______ _____ _____    ______ ____
ROOT
ATOM      1  C   LIG    1       29.331 -19.320   7.382  0.00  0.00    +0.119 C 
ATOM      2  N   LIG    1       28.065 -19.571   8.103  0.00  0.00    -0.330 N 
ATOM      3  H   LIG    1       28.061 -19.668   9.116  0.00  0.00    +0.147 HD
ATOM      4  C   LIG    1       27.022 -20.230   7.446  0.00  0.00    +0.133 C 
ATOM      5  C   LIG    1       26.985 -20.431   6.102  0.00  0.00    +0.149 C 
ATOM      6  N   LIG    1       25.946 -21.057   5.463  0.00  0.00    -0.199 NA
ATOM      7  C   LIG    1       24.952 -21.483   6.171  0.00  0.00    +0.195 C 
ATOM      8  N   LIG    1       24.879 -21.334   7.519  0.00  0.00    -0.294 N 
ATOM      9  H   LIG    1       24.123 -21.742   8.040  0.00  0.00    +0.172 HD
ATOM     10  N   LIG    1       28.065 -19.969   5.340  0.00  0.00    -0.326 N 
ATOM     11  H   LIG    1       27.774 -19.830   4.376  0.00  0.00    +0.148 HD
ATOM     12  C   LIG    1       25.884 -20.770   8.242  0.00  0.00    +0.276 C 
ATOM     13  O   LIG    1       25.872 -20.722   9.471  0.00  0.00    -0.266 OA
ATOM     14  C   LIG    1       28.983 -18.970   5.901  0.00  0.00    +0.128 C 
ENDROOT
BRANCH   7  15
ATOM     15  N   LIG    1       23.907 -22.109   5.574  0.00  0.00    -0.329 N 
ATOM     16  H   LIG    1       23.346 -22.712   6.161  0.00  0.00    +0.145 HD
ATOM     17  H   LIG    1       23.347 -21.462   5.027  0.00  0.00    +0.145 HD
ENDBRANCH   7  15
BRANCH   1  18
ATOM     18  C   LIG    1       30.258 -20.557   7.504  0.00  0.00    +0.164 C 
BRANCH  18  20
ATOM     19  C   LIG    1       31.351 -22.196   9.168  0.00  0.00    +0.040 C 
ATOM     20  C   LIG    1       30.882 -20.771   8.900  0.00  0.00    +0.142 C 
BRANCH  20  21
ATOM     21  O   LIG    1       32.032 -19.919   9.015  0.00  0.00    -0.389 OA
ATOM     22  H   LIG    1       31.726 -19.037   8.722  0.00  0.00    +0.210 HD
ENDBRANCH  20  21
ENDBRANCH  18  20
BRANCH  18  23
ATOM     23  O   LIG    1       29.516 -21.755   7.174  0.00  0.00    -0.387 OA
ATOM     24  H   LIG    1       29.775 -22.412   7.846  0.00  0.00    +0.210 HD
ENDBRANCH  18  23
ENDBRANCH   1  18
TORSDOF 5
ENDMDL
MODEL 7
REMARK VINA RESULT:      -6.8      2.340      3.654
REMARK  Name = *****
REMARK                            x       y       z     vdW  Elec       q    Type
REMARK                         _______ _______ _______ _____ _____    ______ ____
ROOT
ATOM      1  C   LIG    1       24.623 -21.425   5.657  0.00  0.00    +0.119 C 
ATOM      2  N   LIG    1       25.708 -21.775   6.599  0.00  0.00    -0.330 N 
ATOM      3  H   LIG    1       25.494 -22.239   7.480  0.00  0.00    +0.147 HD
ATOM      4  C   LIG    1       26.882 -21.016   6.604  0.00  0.00    +0.133 C 
ATOM      5  C   LIG    1       27.213 -20.134   5.625  0.00  0.00    +0.149 C 
ATOM      6  N   LIG    1       28.378 -19.411   5.625  0.00  0.00    -0.199 NA
ATOM      7  C   LIG    1       29.204 -19.572   6.607  0.00  0.00    +0.195 C 
ATOM      8  N   LIG    1       28.981 -20.428   7.637  0.00  0.00    -0.294 N 
ATOM      9  H   LIG    1       29.614 -20.471   8.415  0.00  0.00    +0.172 HD
ATOM     10  N   LIG    1       26.314 -19.963   4.564  0.00  0.00    -0.326 N 
ATOM     11  H   LIG    1       26.804 -19.601   3.751  0.00  0.00    +0.148 HD
ATOM     12  C   LIG    1       27.831 -21.149   7.744  0.00  0.00    +0.276 C 
ATOM     13  O   LIG    1       27.576 -21.849   8.722  0.00  0.00    -0.266 OA
ATOM     14  C   LIG    1       25.276 -20.970   4.315  0.00  0.00    +0.128 C 
ENDROOT
BRANCH   7  15
ATOM     15  N   LIG    1       30.366 -18.873   6.643  0.00  0.00    -0.329 N 
ATOM     16  H   LIG    1       31.214 -19.395   6.467  0.00  0.00    +0.145 HD
ATOM     17  H   LIG    1       30.308 -18.022   6.092  0.00  0.00    +0.145 HD
ENDBRANCH   7  15
BRANCH   1  18
ATOM     18  C   LIG    1       23.717 -20.334   6.285  0.00  0.00    +0.164 C 
BRANCH  18  20
ATOM     19  C   LIG    1       22.381 -18.965   4.557  0.00  0.00    +0.040 C 
ATOM     20  C   LIG    1       22.371 -20.108   5.565  0.00  0.00    +0.142 C 
BRANCH  20  21
ATOM     21  O   LIG    1       22.039 -21.304   4.843  0.00  0.00    -0.389 OA
ATOM     22  H   LIG    1       21.099 -21.476   5.053  0.00  0.00    +0.210 HD
ENDBRANCH  20  21
ENDBRANCH  18  20
BRANCH  18  23
ATOM     23  O   LIG    1       23.421 -20.679   7.659  0.00  0.00    -0.387 OA
ATOM     24  H   LIG    1       23.397 -19.830   8.138  0.00  0.00    +0.210 HD
ENDBRANCH  18  23
ENDBRANCH   1  18
TORSDOF 5
ENDMDL
MODEL 8
REMARK VINA RESULT:      -6.7      5.032      6.564
REMARK  Name = *****
REMARK                            x       y       z     vdW  Elec       q    Type
REMARK                         _______ _______ _______ _____ _____    ______ ____
ROOT
ATOM      1  C   LIG    1       24.202 -22.738   7.257  0.00  0.00    +0.119 C 
ATOM      2  N   LIG    1       23.442 -21.630   6.639  0.00  0.00    -0.330 N 
ATOM      3  H   LIG    1       22.431 -21.696   6.535  0.00  0.00    +0.147 HD
ATOM      4  C   LIG    1       24.076 -20.799   5.710  0.00  0.00    +0.133 C 
ATOM      5  C   LIG    1       25.421 -20.769   5.522  0.00  0.00    +0.149 C 
ATOM      6  N   LIG    1       26.037 -19.933   4.626  0.00  0.00    -0.199 NA
ATOM      7  C   LIG    1       25.303 -19.136   3.920  0.00  0.00    +0.195 C 
ATOM      8  N   LIG    1       23.951 -19.077   4.027  0.00  0.00    -0.294 N 
ATOM      9  H   LIG    1       23.412 -18.495   3.410  0.00  0.00    +0.172 HD
ATOM     10  N   LIG    1       26.211 -21.635   6.288  0.00  0.00    -0.326 N 
ATOM     11  H   LIG    1       27.161 -21.278   6.345  0.00  0.00    +0.148 HD
ATOM     12  C   LIG    1       23.252 -19.902   4.853  0.00  0.00    +0.276 C 
ATOM     13  O   LIG    1       22.023 -19.926   4.883  0.00  0.00    -0.266 OA
ATOM     14  C   LIG    1       25.662 -22.243   7.506  0.00  0.00    +0.128 C 
ENDROOT
BRANCH   7  15
ATOM     15  N   LIG    1       25.876 -18.296   3.022  0.00  0.00    -0.329 N 
ATOM     16  H   LIG    1       25.338 -17.483   2.755  0.00  0.00    +0.145 HD
ATOM     17  H   LIG    1       26.831 -18.067   3.280  0.00  0.00    +0.145 HD
ENDBRANCH   7  15
BRANCH   1  18
ATOM     18  C   LIG    1       24.139 -23.990   6.344  0.00  0.00    +0.164 C 
BRANCH  18  20
ATOM     19  C   LIG    1       24.763 -26.490   6.438  0.00  0.00    +0.040 C 
ATOM     20  C   LIG    1       25.229 -25.048   6.610  0.00  0.00    +0.142 C 
BRANCH  20  21
ATOM     21  O   LIG    1       26.300 -24.837   5.676  0.00  0.00    -0.389 OA
ATOM     22  H   LIG    1       26.186 -23.918   5.362  0.00  0.00    +0.210 HD
ENDBRANCH  20  21
ENDBRANCH  18  20
BRANCH  18  23
ATOM     23  O   LIG    1       22.855 -24.641   6.501  0.00  0.00    -0.387 OA
ATOM     24  H   LIG    1       22.266 -24.205   5.857  0.00  0.00    +0.210 HD
ENDBRANCH  18  23
ENDBRANCH   1  18
TORSDOF 5
ENDMDL
MODEL 9
REMARK VINA RESULT:      -6.6      3.658      6.626
REMARK  Name = *****
REMARK                            x       y       z     vdW  Elec       q    Type
REMARK                         _______ _______ _______ _____ _____    ______ ____
ROOT
ATOM      1  C   LIG    1       27.364 -21.079   7.836  0.00  0.00    +0.119 C 
ATOM      2  N   LIG    1       26.951 -22.429   7.393  0.00  0.00    -0.330 N 
ATOM      3  H   LIG    1       27.601 -23.025   6.886  0.00  0.00    +0.147 HD
ATOM      4  C   LIG    1       25.600 -22.681   7.137  0.00  0.00    +0.133 C 
ATOM      5  C   LIG    1       24.593 -21.850   7.514  0.00  0.00    +0.149 C 
ATOM      6  N   LIG    1       23.269 -22.117   7.280  0.00  0.00    -0.199 NA
ATOM      7  C   LIG    1       22.959 -23.212   6.666  0.00  0.00    +0.195 C 
ATOM      8  N   LIG    1       23.879 -24.119   6.248  0.00  0.00    -0.294 N 
ATOM      9  H   LIG    1       23.602 -24.922   5.712  0.00  0.00    +0.172 HD
ATOM     10  N   LIG    1       24.934 -20.664   8.177  0.00  0.00    -0.326 N 
ATOM     11  H   LIG    1       24.143 -20.333   8.721  0.00  0.00    +0.148 HD
ATOM     12  C   LIG    1       25.217 -23.914   6.394  0.00  0.00    +0.276 C 
ATOM     13  O   LIG    1       26.060 -24.679   5.929  0.00  0.00    -0.266 OA
ATOM     14  C   LIG    1       26.261 -20.524   8.790  0.00  0.00    +0.128 C 
ENDROOT
BRANCH   7  15
ATOM     15  N   LIG    1       21.660 -23.510   6.415  0.00  0.00    -0.329 N 
ATOM     16  H   LIG    1       21.428 -24.491   6.333  0.00  0.00    +0.145 HD
ATOM     17  H   LIG    1       21.034 -23.009   7.039  0.00  0.00    +0.145 HD
ENDBRANCH   7  15
BRANCH   1  18
ATOM     18  C   LIG    1       27.601 -20.173   6.599  0.00  0.00    +0.164 C 
BRANCH  18  20
ATOM     19  C   LIG    1       29.643 -18.647   6.215  0.00  0.00    +0.040 C 
ATOM     20  C   LIG    1       29.071 -20.058   6.145  0.00  0.00    +0.142 C 
BRANCH  20  21
ATOM     21  O   LIG    1       29.875 -20.882   7.005  0.00  0.00    -0.389 OA
ATOM     22  H   LIG    1       30.554 -20.281   7.371  0.00  0.00    +0.210 HD
ENDBRANCH  20  21
ENDBRANCH  18  20
BRANCH  18  23
ATOM     23  O   LIG    1       26.839 -20.675   5.476  0.00  0.00    -0.387 OA
ATOM     24  H   LIG    1       27.417 -20.556   4.700  0.00  0.00    +0.210 HD
ENDBRANCH  18  23
ENDBRANCH   1  18
TORSDOF 5
ENDMDL
