MODEL 1
REMARK VINA RESULT:      -4.5      0.000      0.000
REMARK  Name = *****
REMARK                            x       y       z     vdW  Elec       q    Type
REMARK                         _______ _______ _______ _____ _____    ______ ____
ROOT
ATOM      1  C   LIG    1       25.052 -18.435   3.003  0.00  0.00    +0.027 C 
ATOM      2  C   LIG    1       26.121 -18.171   4.108  0.00  0.00    +0.086 C 
ENDROOT
BRANCH   2   3
ATOM      3  N   LIG    1       26.847 -19.454   4.368  0.00  0.00    -0.297 NA
ATOM      4  C   LIG    1       27.202 -19.764   5.752  0.00  0.00    +0.085 C 
ATOM      5  C   LIG    1       26.049 -20.113   6.691  0.00  0.00    +0.019 C 
ATOM      6  C   LIG    1       25.038 -21.123   6.139  0.00  0.00    -0.004 C 
ATOM      7  C   LIG    1       25.019 -21.210   4.588  0.00  0.00    +0.019 C 
ATOM      8  C   LIG    1       26.247 -20.682   3.833  0.00  0.00    +0.085 C 
BRANCH   6   9
ATOM      9  C   LIG    1       23.597 -20.807   6.636  0.00  0.00    +0.038 C 
BRANCH   9  10
ATOM     10  C   LIG    1       22.596 -20.130   5.718  0.00  0.00    -0.047 A 
ATOM     11  C   LIG    1       21.691 -20.859   4.935  0.00  0.00    +0.003 A 
ATOM     12  C   LIG    1       20.919 -20.218   3.955  0.00  0.00    +0.000 A 
ATOM     13  C   LIG    1       21.036 -18.843   3.748  0.00  0.00    +0.000 A 
ATOM     14  C   LIG    1       21.902 -18.100   4.543  0.00  0.00    +0.000 A 
ATOM     15  C   LIG    1       22.670 -18.738   5.521  0.00  0.00    +0.003 A 
ENDBRANCH   9  10
ENDBRANCH   6   9
ENDBRANCH   2   3
BRANCH   2  16
ATOM     16  C   LIG    1       26.970 -16.895   3.607  0.00  0.00    +0.161 C 
BRANCH  16  17
ATOM     17  C   LIG    1       26.216 -15.573   3.501  0.00  0.00    -0.017 A 
ATOM     18  C   LIG    1       24.956 -15.389   4.084  0.00  0.00    +0.010 A 
ATOM     19  C   LIG    1       24.135 -14.317   3.751  0.00  0.00    +0.046 A 
ATOM     20  C   LIG    1       24.657 -13.320   2.921  0.00  0.00    +0.117 A 
ATOM     21  C   LIG    1       25.957 -13.399   2.461  0.00  0.00    +0.046 A 
ATOM     22  C   LIG    1       26.746 -14.519   2.735  0.00  0.00    +0.010 A 
BRANCH  20  23
ATOM     23  O   LIG    1       23.821 -12.303   2.573  0.00  0.00    -0.507 OA
ATOM     24  H   LIG    1       22.901 -12.581   2.758  0.00  0.00    +0.292 HD
ENDBRANCH  20  23
ENDBRANCH  16  17
BRANCH  16  25
ATOM     25  O   LIG    1       28.162 -16.691   4.381  0.00  0.00    -0.386 OA
ATOM     26  H   LIG    1       27.931 -16.809   5.317  0.00  0.00    +0.210 HD
ENDBRANCH  16  25
ENDBRANCH   2  16
TORSDOF 7
ENDMDL
MODEL 2
REMARK VINA RESULT:      -3.7      1.945      4.482
REMARK  Name = *****
REMARK                            x       y       z     vdW  Elec       q    Type
REMARK                         _______ _______ _______ _____ _____    ______ ____
ROOT
ATOM      1  C   LIG    1       22.201 -16.523   5.811  0.00  0.00    +0.027 C 
ATOM      2  C   LIG    1       23.355 -16.574   4.763  0.00  0.00    +0.086 C 
ENDROOT
BRANCH   2   3
ATOM      3  N   LIG    1       23.042 -17.660   3.780  0.00  0.00    -0.297 NA
ATOM      4  C   LIG    1       24.168 -18.361   3.163  0.00  0.00    +0.085 C 
ATOM      5  C   LIG    1       24.980 -19.282   4.071  0.00  0.00    +0.019 C 
ATOM      6  C   LIG    1       24.155 -20.227   4.952  0.00  0.00    -0.004 C 
ATOM      7  C   LIG    1       22.698 -19.746   5.194  0.00  0.00    +0.019 C 
ATOM      8  C   LIG    1       22.119 -18.713   4.218  0.00  0.00    +0.085 C 
BRANCH   6   9
ATOM      9  C   LIG    1       24.839 -20.453   6.331  0.00  0.00    +0.038 C 
BRANCH   9  10
ATOM     10  C   LIG    1       26.350 -20.396   6.461  0.00  0.00    -0.047 A 
ATOM     11  C   LIG    1       27.111 -19.380   5.868  0.00  0.00    +0.003 A 
ATOM     12  C   LIG    1       28.511 -19.463   5.838  0.00  0.00    +0.000 A 
ATOM     13  C   LIG    1       29.167 -20.556   6.404  0.00  0.00    +0.000 A 
ATOM     14  C   LIG    1       28.427 -21.554   7.030  0.00  0.00    +0.000 A 
ATOM     15  C   LIG    1       27.032 -21.471   7.061  0.00  0.00    +0.003 A 
ENDBRANCH   9  10
ENDBRANCH   6   9
ENDBRANCH   2   3
BRANCH   2  16
ATOM     16  C   LIG    1       23.523 -15.067   4.215  0.00  0.00    +0.161 C 
BRANCH  16  17
ATOM     17  C   LIG    1       24.951 -14.559   4.045  0.00  0.00    -0.017 A 
ATOM     18  C   LIG    1       25.562 -13.728   4.994  0.00  0.00    +0.010 A 
ATOM     19  C   LIG    1       26.728 -13.023   4.720  0.00  0.00    +0.046 A 
ATOM     20  C   LIG    1       27.383 -13.276   3.510  0.00  0.00    +0.117 A 
ATOM     21  C   LIG    1       26.885 -14.212   2.625  0.00  0.00    +0.046 A 
ATOM     22  C   LIG    1       25.670 -14.856   2.873  0.00  0.00    +0.010 A 
BRANCH  20  23
ATOM     23  O   LIG    1       28.498 -12.542   3.244  0.00  0.00    -0.507 OA
ATOM     24  H   LIG    1       29.055 -13.043   2.613  0.00  0.00    +0.292 HD
ENDBRANCH  20  23
ENDBRANCH  16  17
BRANCH  16  25
ATOM     25  O   LIG    1       22.800 -14.842   2.995  0.00  0.00    -0.386 OA
ATOM     26  H   LIG    1       21.852 -14.863   3.205  0.00  0.00    +0.210 HD
ENDBRANCH  16  25
ENDBRANCH   2  16
TORSDOF 7
ENDMDL
MODEL 3
REMARK VINA RESULT:      -1.6      2.711      6.433
REMARK  Name = *****
REMARK                            x       y       z     vdW  Elec       q    Type
REMARK                         _______ _______ _______ _____ _____    ______ ____
ROOT
ATOM      1  C   LIG    1       24.229 -19.395   2.278  0.00  0.00    +0.027 C 
ATOM      2  C   LIG    1       23.891 -19.345   3.800  0.00  0.00    +0.086 C 
ENDROOT
BRANCH   2   3
ATOM      3  N   LIG    1       22.430 -19.052   3.942  0.00  0.00    -0.297 NA
ATOM      4  C   LIG    1       21.929 -18.732   5.278  0.00  0.00    +0.085 C 
ATOM      5  C   LIG    1       22.356 -17.388   5.864  0.00  0.00    +0.019 C 
ATOM      6  C   LIG    1       22.219 -16.189   4.920  0.00  0.00    -0.004 C 
ATOM      7  C   LIG    1       22.204 -16.573   3.415  0.00  0.00    +0.019 C 
ATOM      8  C   LIG    1       21.865 -18.027   3.057  0.00  0.00    +0.085 C 
BRANCH   6   9
ATOM      9  C   LIG    1       23.356 -15.152   5.156  0.00  0.00    +0.038 C 
BRANCH   9  10
ATOM     10  C   LIG    1       24.264 -14.730   4.015  0.00  0.00    -0.047 A 
ATOM     11  C   LIG    1       25.411 -15.456   3.669  0.00  0.00    +0.003 A 
ATOM     12  C   LIG    1       26.332 -14.936   2.748  0.00  0.00    +0.000 A 
ATOM     13  C   LIG    1       26.117 -13.690   2.158  0.00  0.00    +0.000 A 
ATOM     14  C   LIG    1       24.964 -12.975   2.463  0.00  0.00    +0.000 A 
ATOM     15  C   LIG    1       24.045 -13.494   3.380  0.00  0.00    +0.003 A 
ENDBRANCH   9  10
ENDBRANCH   6   9
ENDBRANCH   2   3
BRANCH   2  16
ATOM     16  C   LIG    1       24.464 -20.717   4.426  0.00  0.00    +0.161 C 
BRANCH  16  17
ATOM     17  C   LIG    1       25.728 -20.604   5.272  0.00  0.00    -0.017 A 
ATOM     18  C   LIG    1       26.748 -19.694   4.966  0.00  0.00    +0.010 A 
ATOM     19  C   LIG    1       28.014 -19.782   5.533  0.00  0.00    +0.046 A 
ATOM     20  C   LIG    1       28.217 -20.719   6.551  0.00  0.00    +0.117 A 
ATOM     21  C   LIG    1       27.179 -21.521   6.984  0.00  0.00    +0.046 A 
ATOM     22  C   LIG    1       25.934 -21.481   6.353  0.00  0.00    +0.010 A 
BRANCH  20  23
ATOM     23  O   LIG    1       29.475 -20.817   7.062  0.00  0.00    -0.507 OA
ATOM     24  H   LIG    1       29.653 -21.758   7.268  0.00  0.00    +0.292 HD
ENDBRANCH  20  23
ENDBRANCH  16  17
BRANCH  16  25
ATOM     25  O   LIG    1       23.469 -21.439   5.167  0.00  0.00    -0.386 OA
ATOM     26  H   LIG    1       23.152 -20.860   5.879  0.00  0.00    +0.210 HD
ENDBRANCH  16  25
ENDBRANCH   2  16
TORSDOF 7
ENDMDL
