MODEL 1
REMARK VINA RESULT:      -9.0      0.000      0.000
REMARK  Name = *****
REMARK                            x       y       z     vdW  Elec       q    Type
REMARK                         _______ _______ _______ _____ _____    ______ ____
ROOT
ATOM      1  C   LIG    1       25.355 -21.430   6.560  0.00  0.00    +0.179 C 
ENDROOT
BRANCH   1   2
ATOM      2  C   LIG    1       24.486 -20.602   5.610  0.00  0.00    -0.015 A 
ATOM      3  C   LIG    1       24.955 -20.184   4.351  0.00  0.00    +0.006 A 
ATOM      4  C   LIG    1       24.173 -19.367   3.529  0.00  0.00    +0.000 A 
ATOM      5  C   LIG    1       22.906 -18.969   3.941  0.00  0.00    +0.000 A 
ATOM      6  C   LIG    1       22.412 -19.393   5.175  0.00  0.00    +0.000 A 
ATOM      7  C   LIG    1       23.199 -20.199   6.004  0.00  0.00    +0.006 A 
ENDBRANCH   1   2
BRANCH   1   8
ATOM      8  C   LIG    1       26.797 -20.949   6.655  0.00  0.00    -0.015 A 
ATOM      9  C   LIG    1       27.672 -21.561   7.572  0.00  0.00    +0.006 A 
ATOM     10  C   LIG    1       29.025 -21.215   7.605  0.00  0.00    +0.000 A 
ATOM     11  C   LIG    1       29.517 -20.243   6.744  0.00  0.00    +0.000 A 
ATOM     12  C   LIG    1       28.661 -19.609   5.845  0.00  0.00    +0.000 A 
ATOM     13  C   LIG    1       27.312 -19.969   5.796  0.00  0.00    +0.006 A 
ENDBRANCH   1   8
BRANCH   1  14
ATOM     14  O   LIG    1       25.315 -22.809   6.160  0.00  0.00    -0.364 OA
BRANCH  14  19
ATOM     15  C   LIG    1       25.798 -26.792   4.348  0.00  0.00    +0.105 C 
ATOM     16  N   LIG    1       25.246 -26.226   5.586  0.00  0.00    -0.305 NA
ATOM     17  C   LIG    1       24.102 -25.365   5.251  0.00  0.00    +0.086 C 
ATOM     18  C   LIG    1       23.583 -24.577   6.451  0.00  0.00    +0.047 C 
ATOM     19  C   LIG    1       24.705 -23.741   7.069  0.00  0.00    +0.122 C 
ATOM     20  C   LIG    1       25.791 -24.722   7.511  0.00  0.00    +0.047 C 
ATOM     21  C   LIG    1       26.313 -25.509   6.307  0.00  0.00    +0.086 C 
ENDBRANCH  14  19
ENDBRANCH   1  14
TORSDOF 4
ENDMDL
MODEL 2
REMARK VINA RESULT:      -9.0      0.099      1.056
REMARK  Name = *****
REMARK                            x       y       z     vdW  Elec       q    Type
REMARK                         _______ _______ _______ _____ _____    ______ ____
ROOT
ATOM      1  C   LIG    1       25.403 -21.451   6.502  0.00  0.00    +0.179 C 
ENDROOT
BRANCH   1   2
ATOM      2  C   LIG    1       24.529 -20.593   5.583  0.00  0.00    -0.015 A 
ATOM      3  C   LIG    1       25.004 -20.106   4.351  0.00  0.00    +0.006 A 
ATOM      4  C   LIG    1       24.216 -19.265   3.561  0.00  0.00    +0.000 A 
ATOM      5  C   LIG    1       22.937 -18.910   3.977  0.00  0.00    +0.000 A 
ATOM      6  C   LIG    1       22.438 -19.402   5.183  0.00  0.00    +0.000 A 
ATOM      7  C   LIG    1       23.231 -20.233   5.981  0.00  0.00    +0.006 A 
ENDBRANCH   1   2
BRANCH   1   8
ATOM      8  C   LIG    1       26.864 -21.020   6.541  0.00  0.00    -0.015 A 
ATOM      9  C   LIG    1       27.299 -19.972   5.707  0.00  0.00    +0.006 A 
ATOM     10  C   LIG    1       28.604 -19.484   5.800  0.00  0.00    +0.000 A 
ATOM     11  C   LIG    1       29.497 -20.045   6.705  0.00  0.00    +0.000 A 
ATOM     12  C   LIG    1       29.090 -21.099   7.522  0.00  0.00    +0.000 A 
ATOM     13  C   LIG    1       27.779 -21.574   7.445  0.00  0.00    +0.006 A 
ENDBRANCH   1   8
BRANCH   1  14
ATOM     14  O   LIG    1       25.300 -22.827   6.107  0.00  0.00    -0.364 OA
BRANCH  14  19
ATOM     15  C   LIG    1       25.815 -26.859   4.415  0.00  0.00    +0.105 C 
ATOM     16  N   LIG    1       25.253 -26.261   5.632  0.00  0.00    -0.305 NA
ATOM     17  C   LIG    1       24.106 -25.415   5.265  0.00  0.00    +0.086 C 
ATOM     18  C   LIG    1       23.576 -24.595   6.440  0.00  0.00    +0.047 C 
ATOM     19  C   LIG    1       24.690 -23.736   7.039  0.00  0.00    +0.122 C 
ATOM     20  C   LIG    1       25.779 -24.697   7.515  0.00  0.00    +0.047 C 
ATOM     21  C   LIG    1       26.312 -25.517   6.338  0.00  0.00    +0.086 C 
ENDBRANCH  14  19
ENDBRANCH   1  14
TORSDOF 4
ENDMDL
MODEL 3
REMARK VINA RESULT:      -8.5      1.978      5.828
REMARK  Name = *****
REMARK                            x       y       z     vdW  Elec       q    Type
REMARK                         _______ _______ _______ _____ _____    ______ ____
ROOT
ATOM      1  C   LIG    1       25.360 -22.898   6.953  0.00  0.00    +0.179 C 
ENDROOT
BRANCH   1   2
ATOM      2  C   LIG    1       25.259 -24.367   6.532  0.00  0.00    -0.015 A 
ATOM      3  C   LIG    1       24.019 -24.984   6.285  0.00  0.00    +0.006 A 
ATOM      4  C   LIG    1       23.944 -26.344   5.972  0.00  0.00    +0.000 A 
ATOM      5  C   LIG    1       25.105 -27.106   5.882  0.00  0.00    +0.000 A 
ATOM      6  C   LIG    1       26.346 -26.508   6.099  0.00  0.00    +0.000 A 
ATOM      7  C   LIG    1       26.421 -25.150   6.426  0.00  0.00    +0.006 A 
ENDBRANCH   1   2
BRANCH   1   8
ATOM      8  C   LIG    1       24.509 -21.956   6.111  0.00  0.00    -0.015 A 
ATOM      9  C   LIG    1       23.497 -21.198   6.729  0.00  0.00    +0.006 A 
ATOM     10  C   LIG    1       22.776 -20.247   6.004  0.00  0.00    +0.000 A 
ATOM     11  C   LIG    1       23.036 -20.056   4.653  0.00  0.00    +0.000 A 
ATOM     12  C   LIG    1       24.018 -20.814   4.018  0.00  0.00    +0.000 A 
ATOM     13  C   LIG    1       24.755 -21.750   4.747  0.00  0.00    +0.006 A 
ENDBRANCH   1   8
BRANCH   1  14
ATOM     14  O   LIG    1       26.736 -22.489   6.924  0.00  0.00    -0.364 OA
BRANCH  14  19
ATOM     15  C   LIG    1       29.065 -19.034   5.505  0.00  0.00    +0.105 C 
ATOM     16  N   LIG    1       28.679 -19.622   6.793  0.00  0.00    -0.305 NA
ATOM     17  C   LIG    1       29.283 -20.958   6.910  0.00  0.00    +0.086 C 
ATOM     18  C   LIG    1       28.781 -21.730   8.129  0.00  0.00    +0.047 C 
ATOM     19  C   LIG    1       27.256 -21.844   8.099  0.00  0.00    +0.122 C 
ATOM     20  C   LIG    1       26.708 -20.417   8.115  0.00  0.00    +0.047 C 
ATOM     21  C   LIG    1       27.209 -19.645   6.893  0.00  0.00    +0.086 C 
ENDBRANCH  14  19
ENDBRANCH   1  14
TORSDOF 4
ENDMDL
MODEL 4
REMARK VINA RESULT:      -8.5      2.064      5.761
REMARK  Name = *****
REMARK                            x       y       z     vdW  Elec       q    Type
REMARK                         _______ _______ _______ _____ _____    ______ ____
ROOT
ATOM      1  C   LIG    1       25.356 -21.330   7.174  0.00  0.00    +0.179 C 
ENDROOT
BRANCH   1   2
ATOM      2  C   LIG    1       26.847 -21.009   7.045  0.00  0.00    -0.015 A 
ATOM      3  C   LIG    1       27.796 -21.517   7.951  0.00  0.00    +0.006 A 
ATOM      4  C   LIG    1       29.143 -21.153   7.858  0.00  0.00    +0.000 A 
ATOM      5  C   LIG    1       29.567 -20.292   6.852  0.00  0.00    +0.000 A 
ATOM      6  C   LIG    1       28.647 -19.797   5.928  0.00  0.00    +0.000 A 
ATOM      7  C   LIG    1       27.297 -20.150   6.028  0.00  0.00    +0.006 A 
ENDBRANCH   1   2
BRANCH   1   8
ATOM      8  C   LIG    1       25.014 -22.788   6.893  0.00  0.00    -0.015 A 
ATOM      9  C   LIG    1       23.677 -23.217   6.999  0.00  0.00    +0.006 A 
ATOM     10  C   LIG    1       23.317 -24.519   6.643  0.00  0.00    +0.000 A 
ATOM     11  C   LIG    1       24.283 -25.413   6.201  0.00  0.00    +0.000 A 
ATOM     12  C   LIG    1       25.615 -25.013   6.111  0.00  0.00    +0.000 A 
ATOM     13  C   LIG    1       25.973 -23.705   6.447  0.00  0.00    +0.006 A 
ENDBRANCH   1   8
BRANCH   1  14
ATOM     14  O   LIG    1       24.606 -20.466   6.306  0.00  0.00    -0.364 OA
BRANCH  14  19
ATOM     15  C   LIG    1       22.644 -17.187   4.120  0.00  0.00    +0.105 C 
ATOM     16  N   LIG    1       22.845 -18.632   3.951  0.00  0.00    -0.305 NA
ATOM     17  C   LIG    1       22.162 -19.342   5.044  0.00  0.00    +0.086 C 
ATOM     18  C   LIG    1       22.477 -20.836   5.067  0.00  0.00    +0.047 C 
ATOM     19  C   LIG    1       23.986 -21.064   5.156  0.00  0.00    +0.122 C 
ATOM     20  C   LIG    1       24.603 -20.413   3.917  0.00  0.00    +0.047 C 
ATOM     21  C   LIG    1       24.290 -18.916   3.897  0.00  0.00    +0.086 C 
ENDBRANCH  14  19
ENDBRANCH   1  14
TORSDOF 4
ENDMDL
MODEL 5
REMARK VINA RESULT:      -8.4      1.925      5.705
REMARK  Name = *****
REMARK                            x       y       z     vdW  Elec       q    Type
REMARK                         _______ _______ _______ _____ _____    ______ ____
ROOT
ATOM      1  C   LIG    1       25.166 -22.082   6.745  0.00  0.00    +0.179 C 
ENDROOT
BRANCH   1   2
ATOM      2  C   LIG    1       25.036 -23.588   6.505  0.00  0.00    -0.015 A 
ATOM      3  C   LIG    1       23.783 -24.204   6.326  0.00  0.00    +0.006 A 
ATOM      4  C   LIG    1       23.681 -25.590   6.180  0.00  0.00    +0.000 A 
ATOM      5  C   LIG    1       24.824 -26.382   6.194  0.00  0.00    +0.000 A 
ATOM      6  C   LIG    1       26.077 -25.789   6.346  0.00  0.00    +0.000 A 
ATOM      7  C   LIG    1       26.180 -24.403   6.505  0.00  0.00    +0.006 A 
ENDBRANCH   1   2
BRANCH   1   8
ATOM      8  C   LIG    1       24.339 -21.232   5.789  0.00  0.00    -0.015 A 
ATOM      9  C   LIG    1       23.237 -20.508   6.284  0.00  0.00    +0.006 A 
ATOM     10  C   LIG    1       22.528 -19.637   5.454  0.00  0.00    +0.000 A 
ATOM     11  C   LIG    1       22.890 -19.492   4.122  0.00  0.00    +0.000 A 
ATOM     12  C   LIG    1       23.964 -20.218   3.609  0.00  0.00    +0.000 A 
ATOM     13  C   LIG    1       24.688 -21.074   4.442  0.00  0.00    +0.006 A 
ENDBRANCH   1   8
BRANCH   1  14
ATOM     14  O   LIG    1       26.551 -21.707   6.675  0.00  0.00    -0.364 OA
BRANCH  14  19
ATOM     15  C   LIG    1       30.567 -21.616   8.475  0.00  0.00    +0.105 C 
ATOM     16  N   LIG    1       29.563 -20.646   8.021  0.00  0.00    -0.305 NA
ATOM     17  C   LIG    1       28.355 -20.784   8.848  0.00  0.00    +0.086 C 
ATOM     18  C   LIG    1       27.183 -19.954   8.328  0.00  0.00    +0.047 C 
ATOM     19  C   LIG    1       26.870 -20.321   6.877  0.00  0.00    +0.122 C 
ATOM     20  C   LIG    1       28.130 -20.021   6.066  0.00  0.00    +0.047 C 
ATOM     21  C   LIG    1       29.303 -20.855   6.586  0.00  0.00    +0.086 C 
ENDBRANCH  14  19
ENDBRANCH   1  14
TORSDOF 4
ENDMDL
MODEL 6
REMARK VINA RESULT:      -8.2      1.055      4.060
REMARK  Name = *****
REMARK                            x       y       z     vdW  Elec       q    Type
REMARK                         _______ _______ _______ _____ _____    ______ ____
ROOT
ATOM      1  C   LIG    1       25.383 -21.456   5.086  0.00  0.00    +0.179 C 
ENDROOT
BRANCH   1   2
ATOM      2  C   LIG    1       26.112 -20.982   6.347  0.00  0.00    -0.015 A 
ATOM      3  C   LIG    1       27.509 -20.817   6.377  0.00  0.00    +0.006 A 
ATOM      4  C   LIG    1       28.163 -20.453   7.557  0.00  0.00    +0.000 A 
ATOM      5  C   LIG    1       27.434 -20.231   8.721  0.00  0.00    +0.000 A 
ATOM      6  C   LIG    1       26.046 -20.365   8.706  0.00  0.00    +0.000 A 
ATOM      7  C   LIG    1       25.392 -20.742   7.529  0.00  0.00    +0.006 A 
ENDBRANCH   1   2
BRANCH   1   8
ATOM      8  C   LIG    1       24.197 -20.584   4.696  0.00  0.00    -0.015 A 
ATOM      9  C   LIG    1       22.904 -20.945   5.120  0.00  0.00    +0.006 A 
ATOM     10  C   LIG    1       21.813 -20.108   4.870  0.00  0.00    +0.000 A 
ATOM     11  C   LIG    1       21.992 -18.917   4.178  0.00  0.00    +0.000 A 
ATOM     12  C   LIG    1       23.261 -18.555   3.730  0.00  0.00    +0.000 A 
ATOM     13  C   LIG    1       24.356 -19.380   3.998  0.00  0.00    +0.006 A 
ENDBRANCH   1   8
BRANCH   1  14
ATOM     14  O   LIG    1       24.964 -22.818   5.264  0.00  0.00    -0.364 OA
BRANCH  14  19
ATOM     15  C   LIG    1       25.153 -27.215   5.179  0.00  0.00    +0.105 C 
ATOM     16  N   LIG    1       24.949 -26.161   6.180  0.00  0.00    -0.305 NA
ATOM     17  C   LIG    1       23.704 -25.440   5.869  0.00  0.00    +0.086 C 
ATOM     18  C   LIG    1       23.506 -24.200   6.738  0.00  0.00    +0.047 C 
ATOM     19  C   LIG    1       24.704 -23.258   6.607  0.00  0.00    +0.122 C 
ATOM     20  C   LIG    1       25.932 -24.040   7.075  0.00  0.00    +0.047 C 
ATOM     21  C   LIG    1       26.131 -25.281   6.203  0.00  0.00    +0.086 C 
ENDBRANCH  14  19
ENDBRANCH   1  14
TORSDOF 4
ENDMDL
MODEL 7
REMARK VINA RESULT:      -8.0      2.129      5.736
REMARK  Name = *****
REMARK                            x       y       z     vdW  Elec       q    Type
REMARK                         _______ _______ _______ _____ _____    ______ ____
ROOT
ATOM      1  C   LIG    1       25.114 -21.138   6.816  0.00  0.00    +0.179 C 
ENDROOT
BRANCH   1   2
ATOM      2  C   LIG    1       25.273 -22.629   6.505  0.00  0.00    -0.015 A 
ATOM      3  C   LIG    1       24.926 -23.166   5.252  0.00  0.00    +0.006 A 
ATOM      4  C   LIG    1       25.011 -24.540   5.012  0.00  0.00    +0.000 A 
ATOM      5  C   LIG    1       25.459 -25.398   6.011  0.00  0.00    +0.000 A 
ATOM      6  C   LIG    1       25.831 -24.883   7.252  0.00  0.00    +0.000 A 
ATOM      7  C   LIG    1       25.735 -23.510   7.498  0.00  0.00    +0.006 A 
ENDBRANCH   1   2
BRANCH   1   8
ATOM      8  C   LIG    1       24.381 -20.358   5.733  0.00  0.00    -0.015 A 
ATOM      9  C   LIG    1       23.017 -20.053   5.903  0.00  0.00    +0.006 A 
ATOM     10  C   LIG    1       22.347 -19.247   4.979  0.00  0.00    +0.000 A 
ATOM     11  C   LIG    1       23.017 -18.755   3.867  0.00  0.00    +0.000 A 
ATOM     12  C   LIG    1       24.362 -19.065   3.670  0.00  0.00    +0.000 A 
ATOM     13  C   LIG    1       25.039 -19.854   4.604  0.00  0.00    +0.006 A 
ENDBRANCH   1   8
BRANCH   1  14
ATOM     14  O   LIG    1       26.407 -20.562   7.057  0.00  0.00    -0.364 OA
BRANCH  14  19
ATOM     15  C   LIG    1       29.984 -18.412   8.458  0.00  0.00    +0.105 C 
ATOM     16  N   LIG    1       29.672 -19.493   7.515  0.00  0.00    -0.305 NA
ATOM     17  C   LIG    1       28.830 -18.958   6.434  0.00  0.00    +0.086 C 
ATOM     18  C   LIG    1       28.291 -20.047   5.509  0.00  0.00    +0.047 C 
ATOM     19  C   LIG    1       27.515 -21.093   6.310  0.00  0.00    +0.122 C 
ATOM     20  C   LIG    1       28.496 -21.693   7.317  0.00  0.00    +0.047 C 
ATOM     21  C   LIG    1       29.034 -20.602   8.245  0.00  0.00    +0.086 C 
ENDBRANCH  14  19
ENDBRANCH   1  14
TORSDOF 4
ENDMDL
MODEL 8
REMARK VINA RESULT:      -7.3      2.012      5.040
REMARK  Name = *****
REMARK                            x       y       z     vdW  Elec       q    Type
REMARK                         _______ _______ _______ _____ _____    ______ ____
ROOT
ATOM      1  C   LIG    1       25.819 -22.523   5.577  0.00  0.00    +0.179 C 
ENDROOT
BRANCH   1   2
ATOM      2  C   LIG    1       24.630 -21.582   5.363  0.00  0.00    -0.015 A 
ATOM      3  C   LIG    1       24.440 -20.893   4.151  0.00  0.00    +0.006 A 
ATOM      4  C   LIG    1       23.389 -19.983   4.001  0.00  0.00    +0.000 A 
ATOM      5  C   LIG    1       22.503 -19.758   5.050  0.00  0.00    +0.000 A 
ATOM      6  C   LIG    1       22.660 -20.450   6.251  0.00  0.00    +0.000 A 
ATOM      7  C   LIG    1       23.719 -21.351   6.407  0.00  0.00    +0.006 A 
ENDBRANCH   1   2
BRANCH   1   8
ATOM      8  C   LIG    1       25.419 -23.967   5.855  0.00  0.00    -0.015 A 
ATOM      9  C   LIG    1       24.592 -24.644   4.938  0.00  0.00    +0.006 A 
ATOM     10  C   LIG    1       24.299 -25.999   5.112  0.00  0.00    +0.000 A 
ATOM     11  C   LIG    1       24.803 -26.688   6.207  0.00  0.00    +0.000 A 
ATOM     12  C   LIG    1       25.604 -26.027   7.138  0.00  0.00    +0.000 A 
ATOM     13  C   LIG    1       25.915 -24.678   6.955  0.00  0.00    +0.006 A 
ENDBRANCH   1   8
BRANCH   1  14
ATOM     14  O   LIG    1       26.639 -22.019   6.642  0.00  0.00    -0.364 OA
BRANCH  14  19
ATOM     15  C   LIG    1       30.585 -21.049   8.335  0.00  0.00    +0.105 C 
ATOM     16  N   LIG    1       29.380 -20.323   7.918  0.00  0.00    -0.305 NA
ATOM     17  C   LIG    1       28.255 -20.728   8.776  0.00  0.00    +0.086 C 
ATOM     18  C   LIG    1       26.915 -20.175   8.295  0.00  0.00    +0.047 C 
ATOM     19  C   LIG    1       26.650 -20.597   6.849  0.00  0.00    +0.122 C 
ATOM     20  C   LIG    1       27.790 -20.024   6.007  0.00  0.00    +0.047 C 
ATOM     21  C   LIG    1       29.132 -20.580   6.488  0.00  0.00    +0.086 C 
ENDBRANCH  14  19
ENDBRANCH   1  14
TORSDOF 4
ENDMDL
MODEL 9
REMARK VINA RESULT:      -7.2      2.109      4.808
REMARK  Name = *****
REMARK                            x       y       z     vdW  Elec       q    Type
REMARK                         _______ _______ _______ _____ _____    ______ ____
ROOT
ATOM      1  C   LIG    1       25.272 -21.389   5.238  0.00  0.00    +0.179 C 
ENDROOT
BRANCH   1   2
ATOM      2  C   LIG    1       24.238 -20.336   4.829  0.00  0.00    -0.015 A 
ATOM      3  C   LIG    1       24.420 -19.520   3.698  0.00  0.00    +0.006 A 
ATOM      4  C   LIG    1       23.499 -18.516   3.383  0.00  0.00    +0.000 A 
ATOM      5  C   LIG    1       22.375 -18.323   4.179  0.00  0.00    +0.000 A 
ATOM      6  C   LIG    1       22.163 -19.138   5.290  0.00  0.00    +0.000 A 
ATOM      7  C   LIG    1       23.091 -20.134   5.614  0.00  0.00    +0.006 A 
ENDBRANCH   1   2
BRANCH   1   8
ATOM      8  C   LIG    1       24.667 -22.741   5.592  0.00  0.00    -0.015 A 
ATOM      9  C   LIG    1       25.276 -23.918   5.114  0.00  0.00    +0.006 A 
ATOM     10  C   LIG    1       24.809 -25.173   5.510  0.00  0.00    +0.000 A 
ATOM     11  C   LIG    1       23.720 -25.273   6.366  0.00  0.00    +0.000 A 
ATOM     12  C   LIG    1       23.090 -24.120   6.832  0.00  0.00    +0.000 A 
ATOM     13  C   LIG    1       23.569 -22.864   6.453  0.00  0.00    +0.006 A 
ENDBRANCH   1   8
BRANCH   1  14
ATOM     14  O   LIG    1       26.051 -20.888   6.336  0.00  0.00    -0.364 OA
BRANCH  14  19
ATOM     15  C   LIG    1       29.530 -18.959   8.221  0.00  0.00    +0.105 C 
ATOM     16  N   LIG    1       28.817 -20.239   8.320  0.00  0.00    -0.305 NA
ATOM     17  C   LIG    1       28.937 -20.954   7.040  0.00  0.00    +0.086 C 
ATOM     18  C   LIG    1       28.065 -22.207   6.979  0.00  0.00    +0.047 C 
ATOM     19  C   LIG    1       26.602 -21.854   7.247  0.00  0.00    +0.122 C 
ATOM     20  C   LIG    1       26.547 -21.240   8.647  0.00  0.00    +0.047 C 
ATOM     21  C   LIG    1       27.418 -19.984   8.707  0.00  0.00    +0.086 C 
ENDBRANCH  14  19
ENDBRANCH   1  14
TORSDOF 4
ENDMDL
