MODEL 1
REMARK VINA RESULT:       3.4      0.000      0.000
REMARK  Name = *****
REMARK                            x       y       z     vdW  Elec       q    Type
REMARK                         _______ _______ _______ _____ _____    ______ ____
ROOT
ATOM      1  C   LIG    1       27.140 -17.785   3.846  0.00  0.00    +0.250 C 
ATOM      2  N   LIG    1       27.557 -16.604   4.418  0.00  0.00    -0.298 N 
ATOM      3  H   LIG    1       27.945 -16.656   5.357  0.00  0.00    +0.150 HD
ATOM      4  O   LIG    1       26.798 -17.894   2.677  0.00  0.00    -0.270 OA
ENDROOT
BRANCH   2   5
ATOM      5  CA  LIG    1       27.707 -15.317   3.695  0.00  0.00    +0.190 C 
ATOM      6  C   LIG    1       26.442 -14.904   2.875  0.00  0.00    +0.165 C 
ATOM      7  S   LIG    1       24.878 -15.782   3.347  0.00  0.00    -0.127 S 
ATOM      8  C   LIG    1       24.276 -14.417   4.449  0.00  0.00    +0.042 C 
ATOM      9  CA  LIG    1       25.124 -13.170   4.096  0.00  0.00    +0.201 C 
ATOM     10  C   LIG    1       24.501 -14.849   5.909  0.00  0.00    +0.025 C 
ATOM     11  C   LIG    1       22.766 -14.245   4.234  0.00  0.00    +0.025 C 
ATOM     12  N   LIG    1       26.420 -13.640   3.617  0.00  0.00    -0.271 N 
ATOM     13  C   LIG    1       27.396 -14.023   4.502  0.00  0.00    +0.240 C 
ATOM     14  O   LIG    1       27.662 -13.555   5.578  0.00  0.00    -0.273 OA
BRANCH   9  15
ATOM     15  C   LIG    1       24.496 -12.305   2.996  0.00  0.00    +0.327 C 
ATOM     16  O   LIG    1       24.802 -12.349   1.813  0.00  0.00    -0.249 OA
BRANCH  15  17
ATOM     17  OXT LIG    1       23.510 -11.487   3.441  0.00  0.00    -0.479 OA
ATOM     18  HXT LIG    1       23.423 -11.410   4.411  0.00  0.00    +0.295 HD
ENDBRANCH  15  17
ENDBRANCH   9  15
ENDBRANCH   2   5
BRANCH   1  21
ATOM     19  C   LIG    1       29.385 -18.425   6.126  0.00  0.00    +0.090 C 
ATOM     20  C   LIG    1       28.162 -19.135   5.701  0.00  0.00    +0.147 A 
ATOM     21  C   LIG    1       27.154 -18.887   4.787  0.00  0.00    +0.106 A 
ATOM     22  C   LIG    1       26.188 -19.910   5.055  0.00  0.00    +0.130 A 
ATOM     23  N   LIG    1       26.709 -20.803   5.918  0.00  0.00    -0.077 NA
ATOM     24  O   LIG    1       27.908 -20.296   6.346  0.00  0.00    -0.359 OA
BRANCH  22  25
ATOM     25  C   LIG    1       24.843 -20.121   4.515  0.00  0.00    +0.058 A 
ATOM     26  C   LIG    1       23.702 -20.210   5.340  0.00  0.00    +0.053 A 
ATOM     27 CL   LIG    1       23.743 -19.991   7.062  0.00  0.00    -0.083 Cl
ATOM     28  C   LIG    1       22.433 -20.450   4.792  0.00  0.00    +0.021 A 
ATOM     29  C   LIG    1       22.269 -20.573   3.416  0.00  0.00    +0.004 A 
ATOM     30  C   LIG    1       23.380 -20.473   2.586  0.00  0.00    +0.039 A 
ATOM     31  C   LIG    1       24.649 -20.269   3.136  0.00  0.00    +0.134 A 
ATOM     32  F   LIG    1       25.694 -20.255   2.295  0.00  0.00    -0.205 F 
ENDBRANCH  22  25
ENDBRANCH   1  21
TORSDOF 5
ENDMDL
MODEL 2
REMARK VINA RESULT:       3.5      2.317      2.891
REMARK  Name = *****
REMARK                            x       y       z     vdW  Elec       q    Type
REMARK                         _______ _______ _______ _____ _____    ______ ____
ROOT
ATOM      1  C   LIG    1       25.281 -19.204   3.950  0.00  0.00    +0.250 C 
ATOM      2  N   LIG    1       25.695 -17.906   4.146  0.00  0.00    -0.298 N 
ATOM      3  H   LIG    1       25.585 -17.521   5.081  0.00  0.00    +0.150 HD
ATOM      4  O   LIG    1       25.490 -19.841   2.928  0.00  0.00    -0.270 OA
ENDROOT
BRANCH   2   5
ATOM      5  CA  LIG    1       26.497 -17.116   3.179  0.00  0.00    +0.190 C 
ATOM      6  C   LIG    1       25.762 -15.846   2.640  0.00  0.00    +0.165 C 
ATOM      7  S   LIG    1       24.305 -15.294   3.647  0.00  0.00    -0.127 S 
ATOM      8  C   LIG    1       25.261 -14.011   4.587  0.00  0.00    +0.042 C 
ATOM      9  CA  LIG    1       26.578 -13.793   3.803  0.00  0.00    +0.201 C 
ATOM     10  C   LIG    1       25.536 -14.561   5.998  0.00  0.00    +0.025 C 
ATOM     11  C   LIG    1       24.386 -12.758   4.730  0.00  0.00    +0.025 C 
ATOM     12  N   LIG    1       26.892 -15.038   3.112  0.00  0.00    -0.271 N 
ATOM     13  C   LIG    1       27.489 -16.078   3.779  0.00  0.00    +0.240 C 
ATOM     14  O   LIG    1       28.323 -16.036   4.645  0.00  0.00    -0.273 OA
BRANCH   9  15
ATOM     15  C   LIG    1       26.479 -12.679   2.753  0.00  0.00    +0.327 C 
ATOM     16  O   LIG    1       25.449 -12.348   2.182  0.00  0.00    -0.249 OA
BRANCH  15  17
ATOM     17  OXT LIG    1       27.651 -12.033   2.529  0.00  0.00    -0.479 OA
ATOM     18  HXT LIG    1       27.985 -11.485   3.264  0.00  0.00    +0.295 HD
ENDBRANCH  15  17
ENDBRANCH   9  15
ENDBRANCH   2   5
BRANCH   1  21
ATOM     19  C   LIG    1       26.554 -20.300   6.748  0.00  0.00    +0.090 C 
ATOM     20  C   LIG    1       25.169 -20.230   6.240  0.00  0.00    +0.147 A 
ATOM     21  C   LIG    1       24.570 -19.733   5.097  0.00  0.00    +0.106 A 
ATOM     22  C   LIG    1       23.168 -19.831   5.374  0.00  0.00    +0.130 A 
ATOM     23  N   LIG    1       22.983 -20.531   6.510  0.00  0.00    -0.077 NA
ATOM     24  O   LIG    1       24.221 -20.736   7.061  0.00  0.00    -0.359 OA
BRANCH  22  25
ATOM     25  C   LIG    1       22.007 -19.355   4.617  0.00  0.00    +0.058 A 
ATOM     26  C   LIG    1       21.787 -17.987   4.353  0.00  0.00    +0.053 A 
ATOM     27 CL   LIG    1       22.895 -16.730   4.805  0.00  0.00    -0.083 Cl
ATOM     28  C   LIG    1       20.645 -17.562   3.656  0.00  0.00    +0.021 A 
ATOM     29  C   LIG    1       19.720 -18.489   3.183  0.00  0.00    +0.004 A 
ATOM     30  C   LIG    1       19.930 -19.843   3.422  0.00  0.00    +0.039 A 
ATOM     31  C   LIG    1       21.050 -20.262   4.146  0.00  0.00    +0.134 A 
ATOM     32  F   LIG    1       21.162 -21.572   4.412  0.00  0.00    -0.205 F 
ENDBRANCH  22  25
ENDBRANCH   1  21
TORSDOF 5
ENDMDL
MODEL 3
REMARK VINA RESULT:       4.8      2.499      4.531
REMARK  Name = *****
REMARK                            x       y       z     vdW  Elec       q    Type
REMARK                         _______ _______ _______ _____ _____    ______ ____
ROOT
ATOM      1  C   LIG    1       22.438 -16.652   4.886  0.00  0.00    +0.250 C 
ATOM      2  N   LIG    1       22.917 -15.800   3.917  0.00  0.00    -0.298 N 
ATOM      3  H   LIG    1       22.862 -16.117   2.952  0.00  0.00    +0.150 HD
ATOM      4  O   LIG    1       22.303 -16.343   6.062  0.00  0.00    -0.270 OA
ENDROOT
BRANCH   2   5
ATOM      5  CA  LIG    1       23.283 -14.379   4.142  0.00  0.00    +0.190 C 
ATOM      6  C   LIG    1       24.601 -14.189   4.961  0.00  0.00    +0.165 C 
ATOM      7  S   LIG    1       25.693 -15.685   5.050  0.00  0.00    -0.127 S 
ATOM      8  C   LIG    1       26.797 -15.137   3.663  0.00  0.00    +0.042 C 
ATOM      9  CA  LIG    1       26.508 -13.631   3.450  0.00  0.00    +0.201 C 
ATOM     10  C   LIG    1       26.432 -15.957   2.412  0.00  0.00    +0.025 C 
ATOM     11  C   LIG    1       28.249 -15.464   4.036  0.00  0.00    +0.025 C 
ATOM     12  N   LIG    1       25.128 -13.384   3.854  0.00  0.00    -0.271 N 
ATOM     13  C   LIG    1       24.088 -13.678   3.009  0.00  0.00    +0.240 C 
ATOM     14  O   LIG    1       24.038 -13.572   1.812  0.00  0.00    -0.273 OA
BRANCH   9  15
ATOM     15  C   LIG    1       27.417 -12.718   4.283  0.00  0.00    +0.327 C 
ATOM     16  O   LIG    1       27.321 -12.551   5.491  0.00  0.00    -0.249 OA
BRANCH  15  17
ATOM     17  OXT LIG    1       28.400 -12.122   3.563  0.00  0.00    -0.479 OA
ATOM     18  HXT LIG    1       29.276 -12.553   3.596  0.00  0.00    +0.295 HD
ENDBRANCH  15  17
ENDBRANCH   9  15
ENDBRANCH   2   5
BRANCH   1  21
ATOM     19  C   LIG    1       19.819 -17.478   3.125  0.00  0.00    +0.090 C 
ATOM     20  C   LIG    1       20.954 -18.260   3.654  0.00  0.00    +0.147 A 
ATOM     21  C   LIG    1       22.107 -17.959   4.355  0.00  0.00    +0.106 A 
ATOM     22  C   LIG    1       22.842 -19.189   4.352  0.00  0.00    +0.130 A 
ATOM     23  N   LIG    1       22.064 -20.174   3.867  0.00  0.00    -0.077 NA
ATOM     24  O   LIG    1       20.918 -19.588   3.399  0.00  0.00    -0.359 OA
BRANCH  22  25
ATOM     25  C   LIG    1       24.196 -19.496   4.820  0.00  0.00    +0.058 A 
ATOM     26  C   LIG    1       24.441 -20.169   6.035  0.00  0.00    +0.053 A 
ATOM     27 CL   LIG    1       23.186 -20.789   7.061  0.00  0.00    -0.083 Cl
ATOM     28  C   LIG    1       25.753 -20.414   6.472  0.00  0.00    +0.021 A 
ATOM     29  C   LIG    1       26.840 -20.024   5.695  0.00  0.00    +0.004 A 
ATOM     30  C   LIG    1       26.616 -19.373   4.487  0.00  0.00    +0.039 A 
ATOM     31  C   LIG    1       25.310 -19.098   4.071  0.00  0.00    +0.134 A 
ATOM     32  F   LIG    1       25.155 -18.402   2.935  0.00  0.00    -0.205 F 
ENDBRANCH  22  25
ENDBRANCH   1  21
TORSDOF 5
ENDMDL
