MODEL 1
REMARK VINA RESULT:      -8.0      0.000      0.000
REMARK  Name = *****
REMARK                            x       y       z     vdW  Elec       q    Type
REMARK                         _______ _______ _______ _____ _____    ______ ____
ROOT
ATOM      1  C   LIG    1       28.832 -19.409   7.406  0.00  0.00    +0.125 C 
ATOM      2  C   LIG    1       28.108 -20.809   7.298  0.00  0.00    +0.104 C 
ATOM      3  N   LIG    1       27.866 -20.460   5.869  0.00  0.00    -0.260 N 
ATOM      4  C   LIG    1       26.500 -20.438   5.626  0.00  0.00    +0.131 C 
ATOM      5  C   LIG    1       25.808 -20.967   6.656  0.00  0.00    +0.019 C 
ATOM      6  C   LIG    1       26.722 -21.192   7.849  0.00  0.00    +0.046 C 
ATOM      7  C   LIG    1       26.379 -20.351   9.074  0.00  0.00    +0.015 C 
ATOM      8  C   LIG    1       28.647 -19.349   5.884  0.00  0.00    +0.228 C 
ATOM      9  O   LIG    1       28.873 -18.562   4.993  0.00  0.00    -0.275 OA
ENDROOT
BRANCH   1  11
ATOM     10  C   LIG    1       30.731 -20.729   8.411  0.00  0.00    +0.038 C 
ATOM     11  C   LIG    1       30.271 -19.369   7.891  0.00  0.00    +0.125 C 
BRANCH  11  12
ATOM     12  O   LIG    1       31.094 -18.975   6.795  0.00  0.00    -0.391 OA
ATOM     13  H   LIG    1       30.682 -18.210   6.354  0.00  0.00    +0.210 HD
ENDBRANCH  11  12
ENDBRANCH   1  11
BRANCH   4  14
ATOM     14  C   LIG    1       25.896 -19.838   4.391  0.00  0.00    +0.352 C 
ATOM     15  O   LIG    1       25.034 -20.388   3.723  0.00  0.00    -0.244 OA
BRANCH  14  16
ATOM     16  O   LIG    1       26.347 -18.614   4.044  0.00  0.00    -0.476 OA
ATOM     17  H   LIG    1       27.317 -18.451   4.059  0.00  0.00    +0.295 HD
ENDBRANCH  14  16
ENDBRANCH   4  14
BRANCH   5  18
ATOM     18  S   LIG    1       24.098 -21.203   6.802  0.00  0.00    -0.122 S 
BRANCH  18  19
ATOM     19  C   LIG    1       23.790 -22.722   5.809  0.00  0.00    +0.066 C 
ATOM     20  C   LIG    1       25.056 -23.536   5.591  0.00  0.00    +0.036 C 
ATOM     21  C   LIG    1       24.600 -24.996   5.557  0.00  0.00    +0.070 C 
ATOM     22  N   LIG    1       23.511 -25.033   6.542  0.00  0.00    -0.311 NA
ATOM     23  H   LIG    1       22.843 -25.770   6.310  0.00  0.00    +0.122 HD
ATOM     24  C   LIG    1       22.850 -23.714   6.516  0.00  0.00    +0.095 C 
BRANCH  21  25
ATOM     25  C   LIG    1       25.740 -25.975   5.922  0.00  0.00    +0.125 C 
BRANCH  25  26
ATOM     26  N   LIG    1       25.727 -27.231   5.124  0.00  0.00    -0.179 NA
ATOM     27  H   LIG    1       26.623 -27.424   4.671  0.00  0.00    +0.149 HD
BRANCH  26  28
ATOM     28  S   LIG    1       25.131 -28.618   5.826  0.00  0.00    +0.092 S 
ATOM     29  O   LIG    1       24.898 -28.409   7.241  0.00  0.00    -0.141 OA
ATOM     30  O   LIG    1       25.859 -29.733   5.302  0.00  0.00    -0.141 OA
BRANCH  28  31
ATOM     31  N   LIG    1       23.652 -28.627   5.085  0.00  0.00    -0.193 NA
ATOM     32  H   LIG    1       23.581 -29.399   4.428  0.00  0.00    +0.145 HD
ATOM     33  H   LIG    1       23.462 -27.710   4.684  0.00  0.00    +0.145 HD
ENDBRANCH  28  31
ENDBRANCH  26  28
ENDBRANCH  25  26
ENDBRANCH  21  25
ENDBRANCH  18  19
ENDBRANCH   5  18
TORSDOF 10
ENDMDL
MODEL 2
REMARK VINA RESULT:      -7.0      2.062      3.889
REMARK  Name = *****
REMARK                            x       y       z     vdW  Elec       q    Type
REMARK                         _______ _______ _______ _____ _____    ______ ____
ROOT
ATOM      1  C   LIG    1       25.627 -20.016   4.069  0.00  0.00    +0.125 C 
ATOM      2  C   LIG    1       24.857 -20.543   5.344  0.00  0.00    +0.104 C 
ATOM      3  N   LIG    1       26.095 -20.210   6.105  0.00  0.00    -0.260 N 
ATOM      4  C   LIG    1       26.591 -21.360   6.702  0.00  0.00    +0.131 C 
ATOM      5  C   LIG    1       25.703 -22.373   6.633  0.00  0.00    +0.019 C 
ATOM      6  C   LIG    1       24.549 -22.005   5.714  0.00  0.00    +0.046 C 
ATOM      7  C   LIG    1       24.442 -22.867   4.460  0.00  0.00    +0.015 C 
ATOM      8  C   LIG    1       26.703 -19.574   5.070  0.00  0.00    +0.228 C 
ATOM      9  O   LIG    1       27.797 -19.059   5.027  0.00  0.00    -0.275 OA
ENDROOT
BRANCH   1  11
ATOM     10  C   LIG    1       23.687 -18.418   3.860  0.00  0.00    +0.038 C 
ATOM     11  C   LIG    1       25.001 -18.901   3.249  0.00  0.00    +0.125 C 
BRANCH  11  12
ATOM     12  O   LIG    1       25.928 -17.818   3.198  0.00  0.00    -0.391 OA
ATOM     13  H   LIG    1       25.696 -17.175   3.892  0.00  0.00    +0.210 HD
ENDBRANCH  11  12
ENDBRANCH   1  11
BRANCH   4  14
ATOM     14  C   LIG    1       27.969 -21.451   7.285  0.00  0.00    +0.352 C 
ATOM     15  O   LIG    1       28.194 -21.525   8.484  0.00  0.00    -0.244 OA
BRANCH  14  16
ATOM     16  O   LIG    1       28.989 -21.466   6.401  0.00  0.00    -0.476 OA
ATOM     17  H   LIG    1       29.276 -20.614   6.003  0.00  0.00    +0.295 HD
ENDBRANCH  14  16
ENDBRANCH   4  14
BRANCH   5  18
ATOM     18  S   LIG    1       25.841 -23.977   7.271  0.00  0.00    -0.122 S 
BRANCH  18  19
ATOM     19  C   LIG    1       25.343 -25.044   5.856  0.00  0.00    +0.066 C 
ATOM     20  C   LIG    1       26.219 -26.280   5.728  0.00  0.00    +0.036 C 
ATOM     21  C   LIG    1       25.299 -27.377   5.189  0.00  0.00    +0.070 C 
ATOM     22  N   LIG    1       24.014 -27.091   5.841  0.00  0.00    -0.311 NA
ATOM     23  H   LIG    1       23.239 -27.423   5.264  0.00  0.00    +0.122 HD
ATOM     24  C   LIG    1       23.929 -25.629   6.022  0.00  0.00    +0.095 C 
BRANCH  21  25
ATOM     25  C   LIG    1       25.814 -28.795   5.531  0.00  0.00    +0.125 C 
BRANCH  25  26
ATOM     26  N   LIG    1       25.347 -29.298   6.851  0.00  0.00    -0.179 NA
ATOM     27  H   LIG    1       24.972 -28.558   7.449  0.00  0.00    +0.149 HD
BRANCH  26  28
ATOM     28  S   LIG    1       24.346 -30.628   6.892  0.00  0.00    +0.092 S 
ATOM     29  O   LIG    1       23.583 -30.649   8.124  0.00  0.00    -0.141 OA
ATOM     30  O   LIG    1       25.076 -31.753   6.395  0.00  0.00    -0.141 OA
BRANCH  28  31
ATOM     31  N   LIG    1       23.310 -30.166   5.687  0.00  0.00    -0.193 NA
ATOM     32  H   LIG    1       22.449 -30.704   5.724  0.00  0.00    +0.145 HD
ATOM     33  H   LIG    1       23.790 -30.196   4.789  0.00  0.00    +0.145 HD
ENDBRANCH  28  31
ENDBRANCH  26  28
ENDBRANCH  25  26
ENDBRANCH  21  25
ENDBRANCH  18  19
ENDBRANCH   5  18
TORSDOF 10
ENDMDL
MODEL 3
REMARK VINA RESULT:      -7.0      4.249      9.590
REMARK  Name = *****
REMARK                            x       y       z     vdW  Elec       q    Type
REMARK                         _______ _______ _______ _____ _____    ______ ____
ROOT
ATOM      1  C   LIG    1       25.310 -31.610   9.562  0.00  0.00    +0.125 C 
ATOM      2  C   LIG    1       24.822 -30.108   9.605  0.00  0.00    +0.104 C 
ATOM      3  N   LIG    1       24.169 -30.389   8.294  0.00  0.00    -0.260 N 
ATOM      4  C   LIG    1       24.687 -29.537   7.330  0.00  0.00    +0.131 C 
ATOM      5  C   LIG    1       25.431 -28.559   7.886  0.00  0.00    +0.019 C 
ATOM      6  C   LIG    1       25.663 -28.842   9.361  0.00  0.00    +0.046 C 
ATOM      7  C   LIG    1       27.122 -29.085   9.734  0.00  0.00    +0.015 C 
ATOM      8  C   LIG    1       24.407 -31.726   8.327  0.00  0.00    +0.228 C 
ATOM      9  O   LIG    1       24.128 -32.572   7.508  0.00  0.00    -0.275 OA
ENDROOT
BRANCH   1  11
ATOM     10  C   LIG    1       24.893 -31.766  12.044  0.00  0.00    +0.038 C 
ATOM     11  C   LIG    1       24.953 -32.525  10.721  0.00  0.00    +0.125 C 
BRANCH  11  12
ATOM     12  O   LIG    1       23.680 -33.106  10.447  0.00  0.00    -0.391 OA
ATOM     13  H   LIG    1       22.994 -32.583  10.901  0.00  0.00    +0.210 HD
ENDBRANCH  11  12
ENDBRANCH   1  11
BRANCH   4  14
ATOM     14  C   LIG    1       24.481 -29.742   5.859  0.00  0.00    +0.352 C 
ATOM     15  O   LIG    1       25.338 -30.186   5.110  0.00  0.00    -0.244 OA
BRANCH  14  16
ATOM     16  O   LIG    1       23.261 -29.419   5.380  0.00  0.00    -0.476 OA
ATOM     17  H   LIG    1       23.164 -29.256   4.415  0.00  0.00    +0.295 HD
ENDBRANCH  14  16
ENDBRANCH   4  14
BRANCH   5  18
ATOM     18  S   LIG    1       26.239 -27.239   7.107  0.00  0.00    -0.122 S 
BRANCH  18  19
ATOM     19  C   LIG    1       24.855 -26.197   6.487  0.00  0.00    +0.066 C 
ATOM     20  C   LIG    1       25.014 -24.735   6.873  0.00  0.00    +0.036 C 
ATOM     21  C   LIG    1       24.404 -23.939   5.718  0.00  0.00    +0.070 C 
ATOM     22  N   LIG    1       24.758 -24.735   4.535  0.00  0.00    -0.311 NA
ATOM     23  H   LIG    1       24.070 -24.597   3.792  0.00  0.00    +0.122 HD
ATOM     24  C   LIG    1       24.787 -26.150   4.950  0.00  0.00    +0.095 C 
BRANCH  21  25
ATOM     25  C   LIG    1       24.966 -22.501   5.634  0.00  0.00    +0.125 C 
BRANCH  25  26
ATOM     26  N   LIG    1       24.231 -21.627   4.679  0.00  0.00    -0.179 NA
ATOM     27  H   LIG    1       23.871 -22.137   3.869  0.00  0.00    +0.149 HD
BRANCH  26  28
ATOM     28  S   LIG    1       23.064 -20.599   5.272  0.00  0.00    +0.092 S 
ATOM     29  O   LIG    1       22.989 -19.398   4.464  0.00  0.00    -0.141 OA
ATOM     30  O   LIG    1       23.162 -20.586   6.700  0.00  0.00    -0.141 OA
BRANCH  28  31
ATOM     31  N   LIG    1       21.741 -21.520   4.897  0.00  0.00    -0.193 NA
ATOM     32  H   LIG    1       21.641 -22.293   5.549  0.00  0.00    +0.145 HD
ATOM     33  H   LIG    1       21.780 -21.796   3.917  0.00  0.00    +0.145 HD
ENDBRANCH  28  31
ENDBRANCH  26  28
ENDBRANCH  25  26
ENDBRANCH  21  25
ENDBRANCH  18  19
ENDBRANCH   5  18
TORSDOF 10
ENDMDL
MODEL 4
REMARK VINA RESULT:      -6.9      4.307      9.621
REMARK  Name = *****
REMARK                            x       y       z     vdW  Elec       q    Type
REMARK                         _______ _______ _______ _____ _____    ______ ____
ROOT
ATOM      1  C   LIG    1       25.200 -31.604   9.664  0.00  0.00    +0.125 C 
ATOM      2  C   LIG    1       24.743 -30.092   9.662  0.00  0.00    +0.104 C 
ATOM      3  N   LIG    1       24.089 -30.397   8.358  0.00  0.00    -0.260 N 
ATOM      4  C   LIG    1       24.630 -29.584   7.372  0.00  0.00    +0.131 C 
ATOM      5  C   LIG    1       25.392 -28.605   7.903  0.00  0.00    +0.019 C 
ATOM      6  C   LIG    1       25.612 -28.851   9.387  0.00  0.00    +0.046 C 
ATOM      7  C   LIG    1       27.064 -29.114   9.773  0.00  0.00    +0.015 C 
ATOM      8  C   LIG    1       24.300 -31.737   8.429  0.00  0.00    +0.228 C 
ATOM      9  O   LIG    1       24.006 -32.600   7.633  0.00  0.00    -0.275 OA
ENDROOT
BRANCH   1  11
ATOM     10  C   LIG    1       23.698 -31.856  11.674  0.00  0.00    +0.038 C 
ATOM     11  C   LIG    1       24.820 -32.479  10.847  0.00  0.00    +0.125 C 
BRANCH  11  12
ATOM     12  O   LIG    1       24.393 -33.742  10.341  0.00  0.00    -0.391 OA
ATOM     13  H   LIG    1       23.545 -33.977  10.760  0.00  0.00    +0.210 HD
ENDBRANCH  11  12
ENDBRANCH   1  11
BRANCH   4  14
ATOM     14  C   LIG    1       24.425 -29.825   5.906  0.00  0.00    +0.352 C 
ATOM     15  O   LIG    1       25.279 -30.297   5.171  0.00  0.00    -0.244 OA
BRANCH  14  16
ATOM     16  O   LIG    1       23.208 -29.504   5.416  0.00  0.00    -0.476 OA
ATOM     17  H   LIG    1       22.726 -30.176   4.884  0.00  0.00    +0.295 HD
ENDBRANCH  14  16
ENDBRANCH   4  14
BRANCH   5  18
ATOM     18  S   LIG    1       26.230 -27.326   7.091  0.00  0.00    -0.122 S 
BRANCH  18  19
ATOM     19  C   LIG    1       24.873 -26.225   6.512  0.00  0.00    +0.066 C 
ATOM     20  C   LIG    1       25.106 -24.771   6.891  0.00  0.00    +0.036 C 
ATOM     21  C   LIG    1       24.494 -23.951   5.753  0.00  0.00    +0.070 C 
ATOM     22  N   LIG    1       24.778 -24.762   4.562  0.00  0.00    -0.311 NA
ATOM     23  H   LIG    1       24.075 -24.594   3.840  0.00  0.00    +0.122 HD
ATOM     24  C   LIG    1       24.760 -26.176   4.978  0.00  0.00    +0.095 C 
BRANCH  21  25
ATOM     25  C   LIG    1       25.114 -22.538   5.650  0.00  0.00    +0.125 C 
BRANCH  25  26
ATOM     26  N   LIG    1       26.113 -22.245   6.714  0.00  0.00    -0.179 NA
ATOM     27  H   LIG    1       27.066 -22.158   6.352  0.00  0.00    +0.149 HD
BRANCH  26  28
ATOM     28  S   LIG    1       25.796 -21.017   7.792  0.00  0.00    +0.092 S 
ATOM     29  O   LIG    1       24.410 -20.604   7.696  0.00  0.00    -0.141 OA
ATOM     30  O   LIG    1       26.896 -20.102   7.764  0.00  0.00    -0.141 OA
BRANCH  28  31
ATOM     31  N   LIG    1       25.947 -21.896   9.185  0.00  0.00    -0.193 NA
ATOM     32  H   LIG    1       25.034 -22.123   9.571  0.00  0.00    +0.145 HD
ATOM     33  H   LIG    1       26.571 -21.415   9.831  0.00  0.00    +0.145 HD
ENDBRANCH  28  31
ENDBRANCH  26  28
ENDBRANCH  25  26
ENDBRANCH  21  25
ENDBRANCH  18  19
ENDBRANCH   5  18
TORSDOF 10
ENDMDL
MODEL 5
REMARK VINA RESULT:      -6.8      6.498      9.632
REMARK  Name = *****
REMARK                            x       y       z     vdW  Elec       q    Type
REMARK                         _______ _______ _______ _____ _____    ______ ____
ROOT
ATOM      1  C   LIG    1       23.705 -28.525  12.438  0.00  0.00    +0.125 C 
ATOM      2  C   LIG    1       24.030 -30.065  12.309  0.00  0.00    +0.104 C 
ATOM      3  N   LIG    1       25.457 -29.651  12.192  0.00  0.00    -0.260 N 
ATOM      4  C   LIG    1       25.962 -30.081  10.974  0.00  0.00    +0.131 C 
ATOM      5  C   LIG    1       25.119 -30.942  10.367  0.00  0.00    +0.019 C 
ATOM      6  C   LIG    1       23.784 -30.976  11.092  0.00  0.00    +0.046 C 
ATOM      7  C   LIG    1       22.605 -30.466  10.268  0.00  0.00    +0.015 C 
ATOM      8  C   LIG    1       25.227 -28.347  12.495  0.00  0.00    +0.228 C 
ATOM      9  O   LIG    1       26.012 -27.428  12.558  0.00  0.00    -0.275 OA
ENDROOT
BRANCH   1  11
ATOM     10  C   LIG    1       22.393 -26.631  13.464  0.00  0.00    +0.038 C 
ATOM     11  C   LIG    1       22.944 -28.041  13.661  0.00  0.00    +0.125 C 
BRANCH  11  12
ATOM     12  O   LIG    1       21.866 -28.945  13.895  0.00  0.00    -0.391 OA
ATOM     13  H   LIG    1       22.226 -29.774  14.258  0.00  0.00    +0.210 HD
ENDBRANCH  11  12
ENDBRANCH   1  11
BRANCH   4  14
ATOM     14  C   LIG    1       27.257 -29.586  10.401  0.00  0.00    +0.352 C 
ATOM     15  O   LIG    1       28.354 -29.880  10.851  0.00  0.00    -0.244 OA
BRANCH  14  16
ATOM     16  O   LIG    1       27.159 -28.784   9.319  0.00  0.00    -0.476 OA
ATOM     17  H   LIG    1       27.897 -28.163   9.129  0.00  0.00    +0.295 HD
ENDBRANCH  14  16
ENDBRANCH   4  14
BRANCH   5  18
ATOM     18  S   LIG    1       25.325 -31.781   8.866  0.00  0.00    -0.122 S 
BRANCH  18  19
ATOM     19  C   LIG    1       24.162 -30.916   7.730  0.00  0.00    +0.066 C 
ATOM     20  C   LIG    1       24.525 -29.452   7.537  0.00  0.00    +0.036 C 
ATOM     21  C   LIG    1       24.119 -29.119   6.100  0.00  0.00    +0.070 C 
ATOM     22  N   LIG    1       24.417 -30.357   5.369  0.00  0.00    -0.311 NA
ATOM     23  H   LIG    1       23.808 -30.447   4.554  0.00  0.00    +0.122 HD
ATOM     24  C   LIG    1       24.198 -31.481   6.299  0.00  0.00    +0.095 C 
BRANCH  21  25
ATOM     25  C   LIG    1       24.904 -27.912   5.534  0.00  0.00    +0.125 C 
BRANCH  25  26
ATOM     26  N   LIG    1       24.067 -26.698   5.333  0.00  0.00    -0.179 NA
ATOM     27  H   LIG    1       23.068 -26.880   5.445  0.00  0.00    +0.149 HD
BRANCH  26  28
ATOM     28  S   LIG    1       24.485 -25.298   6.132  0.00  0.00    +0.092 S 
ATOM     29  O   LIG    1       25.680 -25.506   6.926  0.00  0.00    -0.141 OA
ATOM     30  O   LIG    1       23.290 -24.701   6.645  0.00  0.00    -0.141 OA
BRANCH  28  31
ATOM     31  N   LIG    1       24.929 -24.408   4.809  0.00  0.00    -0.193 NA
ATOM     32  H   LIG    1       24.143 -23.870   4.455  0.00  0.00    +0.145 HD
ATOM     33  H   LIG    1       25.373 -25.014   4.120  0.00  0.00    +0.145 HD
ENDBRANCH  28  31
ENDBRANCH  26  28
ENDBRANCH  25  26
ENDBRANCH  21  25
ENDBRANCH  18  19
ENDBRANCH   5  18
TORSDOF 10
ENDMDL
MODEL 6
REMARK VINA RESULT:      -6.7      3.789      8.505
REMARK  Name = *****
REMARK                            x       y       z     vdW  Elec       q    Type
REMARK                         _______ _______ _______ _____ _____    ______ ____
ROOT
ATOM      1  C   LIG    1       24.569 -22.751   6.109  0.00  0.00    +0.125 C 
ATOM      2  C   LIG    1       25.202 -21.540   6.901  0.00  0.00    +0.104 C 
ATOM      3  N   LIG    1       24.738 -20.688   5.769  0.00  0.00    -0.260 N 
ATOM      4  C   LIG    1       25.831 -20.065   5.185  0.00  0.00    +0.131 C 
ATOM      5  C   LIG    1       26.940 -20.205   5.939  0.00  0.00    +0.019 C 
ATOM      6  C   LIG    1       26.696 -21.203   7.060  0.00  0.00    +0.046 C 
ATOM      7  C   LIG    1       27.546 -22.467   6.974  0.00  0.00    +0.015 C 
ATOM      8  C   LIG    1       24.020 -21.672   5.167  0.00  0.00    +0.228 C 
ATOM      9  O   LIG    1       23.379 -21.632   4.141  0.00  0.00    -0.275 OA
ENDROOT
BRANCH   1  11
ATOM     10  C   LIG    1       22.153 -22.934   6.809  0.00  0.00    +0.038 C 
ATOM     11  C   LIG    1       23.523 -23.608   6.802  0.00  0.00    +0.125 C 
BRANCH  11  12
ATOM     12  O   LIG    1       23.440 -24.850   6.106  0.00  0.00    -0.391 OA
ATOM     13  H   LIG    1       22.594 -25.278   6.331  0.00  0.00    +0.210 HD
ENDBRANCH  11  12
ENDBRANCH   1  11
BRANCH   4  14
ATOM     14  C   LIG    1       25.769 -19.382   3.851  0.00  0.00    +0.352 C 
ATOM     15  O   LIG    1       25.850 -18.172   3.704  0.00  0.00    -0.244 OA
BRANCH  14  16
ATOM     16  O   LIG    1       25.631 -20.189   2.777  0.00  0.00    -0.476 OA
ATOM     17  H   LIG    1       25.916 -19.852   1.898  0.00  0.00    +0.295 HD
ENDBRANCH  14  16
ENDBRANCH   4  14
BRANCH   5  18
ATOM     18  S   LIG    1       28.526 -19.568   5.659  0.00  0.00    -0.122 S 
BRANCH  18  19
ATOM     19  C   LIG    1       29.414 -19.926   7.231  0.00  0.00    +0.066 C 
ATOM     20  C   LIG    1       30.769 -19.239   7.300  0.00  0.00    +0.036 C 
ATOM     21  C   LIG    1       30.981 -18.904   8.777  0.00  0.00    +0.070 C 
ATOM     22  N   LIG    1       29.631 -18.564   9.244  0.00  0.00    -0.311 NA
ATOM     23  H   LIG    1       29.537 -18.761  10.242  0.00  0.00    +0.122 HD
ATOM     24  C   LIG    1       28.679 -19.380   8.468  0.00  0.00    +0.095 C 
BRANCH  21  25
ATOM     25  C   LIG    1       31.972 -17.733   8.976  0.00  0.00    +0.125 C 
BRANCH  25  26
ATOM     26  N   LIG    1       32.530 -17.651  10.353  0.00  0.00    -0.179 NA
ATOM     27  H   LIG    1       33.511 -17.364  10.369  0.00  0.00    +0.149 HD
BRANCH  26  28
ATOM     28  S   LIG    1       31.673 -16.820  11.514  0.00  0.00    +0.092 S 
ATOM     29  O   LIG    1       31.629 -17.576  12.750  0.00  0.00    -0.141 OA
ATOM     30  O   LIG    1       30.516 -16.250  10.895  0.00  0.00    -0.141 OA
BRANCH  28  31
ATOM     31  N   LIG    1       32.747 -15.581  11.741  0.00  0.00    -0.193 NA
ATOM     32  H   LIG    1       32.283 -14.768  12.140  0.00  0.00    +0.145 HD
ATOM     33  H   LIG    1       33.250 -15.398  10.875  0.00  0.00    +0.145 HD
ENDBRANCH  28  31
ENDBRANCH  26  28
ENDBRANCH  25  26
ENDBRANCH  21  25
ENDBRANCH  18  19
ENDBRANCH   5  18
TORSDOF 10
ENDMDL
MODEL 7
REMARK VINA RESULT:      -6.5      5.543      9.547
REMARK  Name = *****
REMARK                            x       y       z     vdW  Elec       q    Type
REMARK                         _______ _______ _______ _____ _____    ______ ____
ROOT
ATOM      1  C   LIG    1       25.931 -29.329  13.305  0.00  0.00    +0.125 C 
ATOM      2  C   LIG    1       25.748 -28.555  11.941  0.00  0.00    +0.104 C 
ATOM      3  N   LIG    1       24.374 -29.132  11.913  0.00  0.00    -0.260 N 
ATOM      4  C   LIG    1       24.224 -29.907  10.772  0.00  0.00    +0.131 C 
ATOM      5  C   LIG    1       25.247 -29.721   9.912  0.00  0.00    +0.019 C 
ATOM      6  C   LIG    1       26.353 -28.914  10.571  0.00  0.00    +0.046 C 
ATOM      7  C   LIG    1       27.668 -29.669  10.745  0.00  0.00    +0.015 C 
ATOM      8  C   LIG    1       24.436 -29.644  13.170  0.00  0.00    +0.228 C 
ATOM      9  O   LIG    1       23.604 -30.280  13.777  0.00  0.00    -0.275 OA
ENDROOT
BRANCH   1  11
ATOM     10  C   LIG    1       27.151 -27.307  14.191  0.00  0.00    +0.038 C 
ATOM     11  C   LIG    1       26.323 -28.541  14.543  0.00  0.00    +0.125 C 
BRANCH  11  12
ATOM     12  O   LIG    1       25.126 -28.137  15.206  0.00  0.00    -0.391 OA
ATOM     13  H   LIG    1       25.340 -27.420  15.830  0.00  0.00    +0.210 HD
ENDBRANCH  11  12
ENDBRANCH   1  11
BRANCH   4  14
ATOM     14  C   LIG    1       23.089 -30.867  10.576  0.00  0.00    +0.352 C 
ATOM     15  O   LIG    1       22.146 -30.658   9.828  0.00  0.00    -0.244 OA
BRANCH  14  16
ATOM     16  O   LIG    1       23.161 -32.021  11.273  0.00  0.00    -0.476 OA
ATOM     17  H   LIG    1       22.528 -32.741  11.053  0.00  0.00    +0.295 HD
ENDBRANCH  14  16
ENDBRANCH   4  14
BRANCH   5  18
ATOM     18  S   LIG    1       25.483 -30.421   8.346  0.00  0.00    -0.122 S 
BRANCH  18  19
ATOM     19  C   LIG    1       24.405 -29.402   7.256  0.00  0.00    +0.066 C 
ATOM     20  C   LIG    1       24.976 -28.014   7.012  0.00  0.00    +0.036 C 
ATOM     21  C   LIG    1       24.547 -27.641   5.592  0.00  0.00    +0.070 C 
ATOM     22  N   LIG    1       24.610 -28.920   4.873  0.00  0.00    -0.311 NA
ATOM     23  H   LIG    1       23.949 -28.925   4.094  0.00  0.00    +0.122 HD
ATOM     24  C   LIG    1       24.274 -29.984   5.837  0.00  0.00    +0.095 C 
BRANCH  21  25
ATOM     25  C   LIG    1       25.474 -26.577   4.959  0.00  0.00    +0.125 C 
BRANCH  25  26
ATOM     26  N   LIG    1       24.804 -25.272   4.712  0.00  0.00    -0.179 NA
ATOM     27  H   LIG    1       23.865 -25.374   4.321  0.00  0.00    +0.149 HD
BRANCH  26  28
ATOM     28  S   LIG    1       24.795 -24.135   5.929  0.00  0.00    +0.092 S 
ATOM     29  O   LIG    1       24.803 -22.797   5.372  0.00  0.00    -0.141 OA
ATOM     30  O   LIG    1       25.694 -24.569   6.954  0.00  0.00    -0.141 OA
BRANCH  28  31
ATOM     31  N   LIG    1       23.264 -24.419   6.490  0.00  0.00    -0.193 NA
ATOM     32  H   LIG    1       22.851 -25.222   6.023  0.00  0.00    +0.145 HD
ATOM     33  H   LIG    1       22.712 -23.565   6.431  0.00  0.00    +0.145 HD
ENDBRANCH  28  31
ENDBRANCH  26  28
ENDBRANCH  25  26
ENDBRANCH  21  25
ENDBRANCH  18  19
ENDBRANCH   5  18
TORSDOF 10
ENDMDL
MODEL 8
REMARK VINA RESULT:      -6.4      6.239      9.348
REMARK  Name = *****
REMARK                            x       y       z     vdW  Elec       q    Type
REMARK                         _______ _______ _______ _____ _____    ______ ____
ROOT
ATOM      1  C   LIG    1       26.238 -28.181  13.381  0.00  0.00    +0.125 C 
ATOM      2  C   LIG    1       26.254 -27.991  11.813  0.00  0.00    +0.104 C 
ATOM      3  N   LIG    1       24.898 -28.611  11.826  0.00  0.00    -0.260 N 
ATOM      4  C   LIG    1       24.914 -29.767  11.058  0.00  0.00    +0.131 C 
ATOM      5  C   LIG    1       26.050 -29.864  10.337  0.00  0.00    +0.019 C 
ATOM      6  C   LIG    1       27.050 -28.807  10.778  0.00  0.00    +0.046 C 
ATOM      7  C   LIG    1       28.326 -29.366  11.400  0.00  0.00    +0.015 C 
ATOM      8  C   LIG    1       24.778 -28.606  13.179  0.00  0.00    +0.228 C 
ATOM      9  O   LIG    1       23.868 -29.011  13.867  0.00  0.00    -0.275 OA
ENDROOT
BRANCH   1  11
ATOM     10  C   LIG    1       26.904 -25.749  13.457  0.00  0.00    +0.038 C 
ATOM     11  C   LIG    1       26.448 -26.962  14.264  0.00  0.00    +0.125 C 
BRANCH  11  12
ATOM     12  O   LIG    1       25.209 -26.667  14.907  0.00  0.00    -0.391 OA
ATOM     13  H   LIG    1       25.106 -27.259  15.675  0.00  0.00    +0.210 HD
ENDBRANCH  11  12
ENDBRANCH   1  11
BRANCH   4  14
ATOM     14  C   LIG    1       23.820 -30.791  11.095  0.00  0.00    +0.352 C 
ATOM     15  O   LIG    1       23.825 -31.763  11.836  0.00  0.00    -0.244 OA
BRANCH  14  16
ATOM     16  O   LIG    1       22.782 -30.581  10.257  0.00  0.00    -0.476 OA
ATOM     17  H   LIG    1       21.898 -30.395  10.645  0.00  0.00    +0.295 HD
ENDBRANCH  14  16
ENDBRANCH   4  14
BRANCH   5  18
ATOM     18  S   LIG    1       26.510 -31.089   9.203  0.00  0.00    -0.122 S 
BRANCH  18  19
ATOM     19  C   LIG    1       25.321 -30.856   7.817  0.00  0.00    +0.066 C 
ATOM     20  C   LIG    1       25.045 -29.388   7.532  0.00  0.00    +0.036 C 
ATOM     21  C   LIG    1       24.810 -29.304   6.023  0.00  0.00    +0.070 C 
ATOM     22  N   LIG    1       25.743 -30.299   5.479  0.00  0.00    -0.311 NA
ATOM     23  H   LIG    1       25.395 -30.668   4.593  0.00  0.00    +0.122 HD
ATOM     24  C   LIG    1       25.862 -31.380   6.475  0.00  0.00    +0.095 C 
BRANCH  21  25
ATOM     25  C   LIG    1       25.087 -27.888   5.465  0.00  0.00    +0.125 C 
BRANCH  25  26
ATOM     26  N   LIG    1       24.008 -26.907   5.763  0.00  0.00    -0.179 NA
ATOM     27  H   LIG    1       23.312 -27.268   6.418  0.00  0.00    +0.149 HD
BRANCH  26  28
ATOM     28  S   LIG    1       24.433 -25.353   6.180  0.00  0.00    +0.092 S 
ATOM     29  O   LIG    1       25.689 -25.349   6.905  0.00  0.00    -0.141 OA
ATOM     30  O   LIG    1       23.258 -24.673   6.632  0.00  0.00    -0.141 OA
BRANCH  28  31
ATOM     31  N   LIG    1       24.750 -24.790   4.657  0.00  0.00    -0.193 NA
ATOM     32  H   LIG    1       25.095 -23.834   4.688  0.00  0.00    +0.145 HD
ATOM     33  H   LIG    1       23.933 -24.925   4.063  0.00  0.00    +0.145 HD
ENDBRANCH  28  31
ENDBRANCH  26  28
ENDBRANCH  25  26
ENDBRANCH  21  25
ENDBRANCH  18  19
ENDBRANCH   5  18
TORSDOF 10
ENDMDL
MODEL 9
REMARK VINA RESULT:      -6.0      6.421     10.458
REMARK  Name = *****
REMARK                            x       y       z     vdW  Elec       q    Type
REMARK                         _______ _______ _______ _____ _____    ______ ____
ROOT
ATOM      1  C   LIG    1       22.633 -28.941  13.773  0.00  0.00    +0.125 C 
ATOM      2  C   LIG    1       23.309 -28.669  12.371  0.00  0.00    +0.104 C 
ATOM      3  N   LIG    1       22.059 -29.220  11.774  0.00  0.00    -0.260 N 
ATOM      4  C   LIG    1       22.368 -30.333  11.005  0.00  0.00    +0.131 C 
ATOM      5  C   LIG    1       23.699 -30.448  10.819  0.00  0.00    +0.019 C 
ATOM      6  C   LIG    1       24.446 -29.469  11.709  0.00  0.00    +0.046 C 
ATOM      7  C   LIG    1       25.330 -30.124  12.765  0.00  0.00    +0.015 C 
ATOM      8  C   LIG    1       21.382 -29.281  12.951  0.00  0.00    +0.228 C 
ATOM      9  O   LIG    1       20.258 -29.674  13.167  0.00  0.00    -0.275 OA
ENDROOT
BRANCH   1  11
ATOM     10  C   LIG    1       22.978 -26.470  14.144  0.00  0.00    +0.038 C 
ATOM     11  C   LIG    1       22.481 -27.783  14.745  0.00  0.00    +0.125 C 
BRANCH  11  12
ATOM     12  O   LIG    1       21.098 -27.663  15.073  0.00  0.00    -0.391 OA
ATOM     13  H   LIG    1       20.605 -28.366  14.612  0.00  0.00    +0.210 HD
ENDBRANCH  11  12
ENDBRANCH   1  11
BRANCH   4  14
ATOM     14  C   LIG    1       21.335 -31.301  10.511  0.00  0.00    +0.352 C 
ATOM     15  O   LIG    1       21.514 -32.508  10.443  0.00  0.00    -0.244 OA
BRANCH  14  16
ATOM     16  O   LIG    1       20.149 -30.769  10.147  0.00  0.00    -0.476 OA
ATOM     17  H   LIG    1       19.936 -29.855  10.439  0.00  0.00    +0.295 HD
ENDBRANCH  14  16
ENDBRANCH   4  14
BRANCH   5  18
ATOM     18  S   LIG    1       24.563 -31.634   9.898  0.00  0.00    -0.122 S 
BRANCH  18  19
ATOM     19  C   LIG    1       24.213 -31.159   8.154  0.00  0.00    +0.066 C 
ATOM     20  C   LIG    1       24.114 -29.652   7.975  0.00  0.00    +0.036 C 
ATOM     21  C   LIG    1       24.654 -29.373   6.571  0.00  0.00    +0.070 C 
ATOM     22  N   LIG    1       25.734 -30.358   6.422  0.00  0.00    -0.311 NA
ATOM     23  H   LIG    1       25.869 -30.595   5.438  0.00  0.00    +0.122 HD
ATOM     24  C   LIG    1       25.346 -31.555   7.191  0.00  0.00    +0.095 C 
BRANCH  21  25
ATOM     25  C   LIG    1       25.171 -27.923   6.419  0.00  0.00    +0.125 C 
BRANCH  25  26
ATOM     26  N   LIG    1       24.112 -26.949   6.040  0.00  0.00    -0.179 NA
ATOM     27  H   LIG    1       23.197 -27.183   6.431  0.00  0.00    +0.149 HD
BRANCH  26  28
ATOM     28  S   LIG    1       24.416 -25.323   6.231  0.00  0.00    +0.092 S 
ATOM     29  O   LIG    1       25.681 -25.121   6.911  0.00  0.00    -0.141 OA
ATOM     30  O   LIG    1       23.198 -24.683   6.622  0.00  0.00    -0.141 OA
BRANCH  28  31
ATOM     31  N   LIG    1       24.657 -24.950   4.637  0.00  0.00    -0.193 NA
ATOM     32  H   LIG    1       24.688 -23.943   4.501  0.00  0.00    +0.145 HD
ATOM     33  H   LIG    1       23.968 -25.434   4.062  0.00  0.00    +0.145 HD
ENDBRANCH  28  31
ENDBRANCH  26  28
ENDBRANCH  25  26
ENDBRANCH  21  25
ENDBRANCH  18  19
ENDBRANCH   5  18
TORSDOF 10
ENDMDL
