MODEL 1
REMARK VINA RESULT:      -5.5      0.000      0.000
REMARK  Name = *****
REMARK                            x       y       z     vdW  Elec       q    Type
REMARK                         _______ _______ _______ _____ _____    ______ ____
ROOT
ATOM      1  C   LIG    1       25.485 -31.312   8.149  0.00  0.00    +0.178 C 
ATOM      2  C   LIG    1       25.232 -30.199   9.236  0.00  0.00    +0.022 C 
ATOM      3  C   LIG    1       26.062 -28.914   8.886  0.00  0.00    +0.016 C 
ATOM      4  C   LIG    1       25.842 -30.806  10.545  0.00  0.00    +0.003 C 
ATOM      5  C   LIG    1       24.841 -31.380  11.581  0.00  0.00    -0.003 C 
ATOM      6  C   LIG    1       23.602 -30.486  11.754  0.00  0.00    -0.000 C 
ATOM      7  C   LIG    1       22.893 -30.388  10.396  0.00  0.00    +0.005 C 
ATOM      8  C   LIG    1       23.976 -29.098  12.356  0.00  0.00    +0.018 C 
ATOM      9  C   LIG    1       24.950 -29.146  13.515  0.00  0.00    -0.067 C 
ATOM     10  C   LIG    1       25.123 -28.042  14.270  0.00  0.00    +0.016 C 
ATOM     11  C   LIG    1       24.373 -26.756  14.065  0.00  0.00    +0.199 C 
ATOM     12  C   LIG    1       22.972 -26.964  13.468  0.00  0.00    +0.049 C 
ATOM     13  C   LIG    1       25.908 -30.303  13.651  0.00  0.00    +0.031 C 
ATOM     14  C   LIG    1       22.722 -28.276  12.704  0.00  0.00    +0.012 C 
ATOM     15  C   LIG    1       25.474 -31.600  12.967  0.00  0.00    +0.008 C 
ATOM     16  C   LIG    1       26.847 -31.885  10.072  0.00  0.00    +0.009 C 
ATOM     17  C   LIG    1       23.754 -29.723   9.324  0.00  0.00    +0.012 C 
ATOM     18  C   LIG    1       26.876 -31.826   8.549  0.00  0.00    +0.062 C 
ENDROOT
BRANCH   1  20
ATOM     19  C   LIG    1       23.692 -33.298   8.281  0.00  0.00    +0.008 C 
ATOM     20  C   LIG    1       24.480 -32.402   8.208  0.00  0.00    -0.058 C 
ENDBRANCH   1  20
BRANCH   1  21
ATOM     21  O   LIG    1       25.493 -30.701   6.843  0.00  0.00    -0.445 OA
BRANCH  21  22
ATOM     22  C   LIG    1       24.557 -31.062   5.925  0.00  0.00    +0.305 C 
ATOM     23  O   LIG    1       23.395 -30.686   5.881  0.00  0.00    -0.251 OA
ATOM     24  C   LIG    1       25.140 -32.056   4.967  0.00  0.00    +0.136 C 
ENDBRANCH  21  22
ENDBRANCH   1  21
BRANCH  11  25
ATOM     25  O   LIG    1       25.164 -25.945  13.165  0.00  0.00    -0.457 OA
BRANCH  25  26
ATOM     26  C   LIG    1       26.016 -25.049  13.741  0.00  0.00    +0.304 C 
ATOM     27  O   LIG    1       27.169 -24.829  13.394  0.00  0.00    -0.251 OA
ATOM     28  C   LIG    1       25.330 -24.318  14.860  0.00  0.00    +0.136 C 
ENDBRANCH  25  26
ENDBRANCH  11  25
TORSDOF 5
ENDMDL
MODEL 2
REMARK VINA RESULT:      -5.3      2.070      3.029
REMARK  Name = *****
REMARK                            x       y       z     vdW  Elec       q    Type
REMARK                         _______ _______ _______ _____ _____    ______ ____
ROOT
ATOM      1  C   LIG    1       25.105 -31.218   8.464  0.00  0.00    +0.178 C 
ATOM      2  C   LIG    1       24.513 -30.730   9.841  0.00  0.00    +0.022 C 
ATOM      3  C   LIG    1       23.044 -30.219   9.638  0.00  0.00    +0.016 C 
ATOM      4  C   LIG    1       25.393 -29.487  10.209  0.00  0.00    +0.003 C 
ATOM      5  C   LIG    1       26.483 -29.699  11.291  0.00  0.00    -0.003 C 
ATOM      6  C   LIG    1       25.982 -30.555  12.466  0.00  0.00    -0.000 C 
ATOM      7  C   LIG    1       25.572 -31.928  11.913  0.00  0.00    +0.005 C 
ATOM      8  C   LIG    1       24.841 -29.841  13.251  0.00  0.00    +0.018 C 
ATOM      9  C   LIG    1       25.081 -28.372  13.531  0.00  0.00    -0.067 C 
ATOM     10  C   LIG    1       24.294 -27.739  14.424  0.00  0.00    +0.016 C 
ATOM     11  C   LIG    1       23.202 -28.411  15.209  0.00  0.00    +0.199 C 
ATOM     12  C   LIG    1       23.478 -29.900  15.474  0.00  0.00    +0.049 C 
ATOM     13  C   LIG    1       25.988 -27.568  12.632  0.00  0.00    +0.031 C 
ATOM     14  C   LIG    1       24.469 -30.608  14.533  0.00  0.00    +0.012 C 
ATOM     15  C   LIG    1       27.030 -28.377  11.858  0.00  0.00    +0.008 C 
ATOM     16  C   LIG    1       26.008 -29.005   8.874  0.00  0.00    +0.009 C 
ATOM     17  C   LIG    1       24.415 -31.846  10.920  0.00  0.00    +0.012 C 
ATOM     18  C   LIG    1       25.424 -29.884   7.773  0.00  0.00    +0.062 C 
ENDROOT
BRANCH   1  20
ATOM     19  C   LIG    1       27.321 -32.700   8.729  0.00  0.00    +0.008 C 
ATOM     20  C   LIG    1       26.333 -32.035   8.632  0.00  0.00    -0.058 C 
ENDBRANCH   1  20
BRANCH   1  21
ATOM     21  O   LIG    1       24.094 -31.963   7.755  0.00  0.00    -0.445 OA
BRANCH  21  22
ATOM     22  C   LIG    1       23.932 -31.775   6.419  0.00  0.00    +0.305 C 
ATOM     23  O   LIG    1       23.274 -30.897   5.880  0.00  0.00    -0.251 OA
ATOM     24  C   LIG    1       24.649 -32.851   5.661  0.00  0.00    +0.136 C 
ENDBRANCH  21  22
ENDBRANCH   1  21
BRANCH  11  25
ATOM     25  O   LIG    1       21.985 -28.277  14.438  0.00  0.00    -0.457 OA
BRANCH  25  26
ATOM     26  C   LIG    1       21.372 -27.060  14.474  0.00  0.00    +0.304 C 
ATOM     27  O   LIG    1       21.240 -26.351  15.464  0.00  0.00    -0.251 OA
ATOM     28  C   LIG    1       20.902 -26.667  13.103  0.00  0.00    +0.136 C 
ENDBRANCH  25  26
ENDBRANCH  11  25
TORSDOF 5
ENDMDL
MODEL 3
REMARK VINA RESULT:      -5.2      3.405      6.186
REMARK  Name = *****
REMARK                            x       y       z     vdW  Elec       q    Type
REMARK                         _______ _______ _______ _____ _____    ______ ____
ROOT
ATOM      1  C   LIG    1       22.961 -31.995  11.422  0.00  0.00    +0.178 C 
ATOM      2  C   LIG    1       23.364 -30.821  10.449  0.00  0.00    +0.022 C 
ATOM      3  C   LIG    1       22.171 -29.811  10.311  0.00  0.00    +0.016 C 
ATOM      4  C   LIG    1       23.540 -31.527   9.062  0.00  0.00    +0.003 C 
ATOM      5  C   LIG    1       24.995 -31.786   8.591  0.00  0.00    -0.003 C 
ATOM      6  C   LIG    1       25.923 -30.593   8.875  0.00  0.00    -0.000 C 
ATOM      7  C   LIG    1       25.938 -30.354  10.392  0.00  0.00    +0.005 C 
ATOM      8  C   LIG    1       25.506 -29.334   8.057  0.00  0.00    +0.018 C 
ATOM      9  C   LIG    1       25.161 -29.599   6.606  0.00  0.00    -0.067 C 
ATOM     10  C   LIG    1       25.054 -28.557   5.758  0.00  0.00    +0.016 C 
ATOM     11  C   LIG    1       25.299 -27.126   6.147  0.00  0.00    +0.199 C 
ATOM     12  C   LIG    1       26.316 -26.977   7.289  0.00  0.00    +0.049 C 
ATOM     13  C   LIG    1       24.675 -30.963   6.181  0.00  0.00    +0.031 C 
ATOM     14  C   LIG    1       26.538 -28.200   8.195  0.00  0.00    +0.012 C 
ATOM     15  C   LIG    1       25.088 -32.121   7.091  0.00  0.00    +0.008 C 
ATOM     16  C   LIG    1       22.736 -32.845   9.162  0.00  0.00    +0.009 C 
ATOM     17  C   LIG    1       24.568 -29.971  10.946  0.00  0.00    +0.012 C 
ATOM     18  C   LIG    1       22.049 -32.843  10.523  0.00  0.00    +0.062 C 
ENDROOT
BRANCH   1  20
ATOM     19  C   LIG    1       25.056 -33.443  12.254  0.00  0.00    +0.008 C 
ATOM     20  C   LIG    1       24.134 -32.780  11.880  0.00  0.00    -0.058 C 
ENDBRANCH   1  20
BRANCH   1  21
ATOM     21  O   LIG    1       22.247 -31.447  12.549  0.00  0.00    -0.445 OA
BRANCH  21  22
ATOM     22  C   LIG    1       21.224 -32.150  13.104  0.00  0.00    +0.305 C 
ATOM     23  O   LIG    1       21.307 -33.218  13.692  0.00  0.00    -0.251 OA
ATOM     24  C   LIG    1       19.925 -31.446  12.849  0.00  0.00    +0.136 C 
ENDBRANCH  21  22
ENDBRANCH   1  21
BRANCH  11  25
ATOM     25  O   LIG    1       24.025 -26.579   6.563  0.00  0.00    -0.457 OA
BRANCH  25  26
ATOM     26  C   LIG    1       23.819 -25.255   6.311  0.00  0.00    +0.304 C 
ATOM     27  O   LIG    1       22.960 -24.551   6.826  0.00  0.00    -0.251 OA
ATOM     28  C   LIG    1       24.832 -24.745   5.327  0.00  0.00    +0.136 C 
ENDBRANCH  25  26
ENDBRANCH  11  25
TORSDOF 5
ENDMDL
MODEL 4
REMARK VINA RESULT:      -5.1      3.128      5.077
REMARK  Name = *****
REMARK                            x       y       z     vdW  Elec       q    Type
REMARK                         _______ _______ _______ _____ _____    ______ ____
ROOT
ATOM      1  C   LIG    1       20.826 -30.713  12.324  0.00  0.00    +0.178 C 
ATOM      2  C   LIG    1       21.984 -29.702  12.679  0.00  0.00    +0.022 C 
ATOM      3  C   LIG    1       21.427 -28.236  12.687  0.00  0.00    +0.016 C 
ATOM      4  C   LIG    1       22.970 -29.820  11.467  0.00  0.00    +0.003 C 
ATOM      5  C   LIG    1       24.262 -30.647  11.696  0.00  0.00    -0.003 C 
ATOM      6  C   LIG    1       24.895 -30.374  13.071  0.00  0.00    -0.000 C 
ATOM      7  C   LIG    1       23.873 -30.759  14.150  0.00  0.00    +0.005 C 
ATOM      8  C   LIG    1       25.393 -28.902  13.190  0.00  0.00    +0.018 C 
ATOM      9  C   LIG    1       26.138 -28.379  11.980  0.00  0.00    -0.067 C 
ATOM     10  C   LIG    1       26.835 -27.229  12.086  0.00  0.00    +0.016 C 
ATOM     11  C   LIG    1       26.962 -26.438  13.357  0.00  0.00    +0.199 C 
ATOM     12  C   LIG    1       26.880 -27.308  14.622  0.00  0.00    +0.049 C 
ATOM     13  C   LIG    1       25.879 -28.973  10.617  0.00  0.00    +0.031 C 
ATOM     14  C   LIG    1       26.192 -28.677  14.487  0.00  0.00    +0.012 C 
ATOM     15  C   LIG    1       25.331 -30.401  10.617  0.00  0.00    +0.008 C 
ATOM     16  C   LIG    1       22.129 -30.397  10.303  0.00  0.00    +0.009 C 
ATOM     17  C   LIG    1       22.601 -29.917  14.091  0.00  0.00    +0.012 C 
ATOM     18  C   LIG    1       20.695 -30.513  10.807  0.00  0.00    +0.062 C 
ENDROOT
BRANCH   1  20
ATOM     19  C   LIG    1       21.439 -33.261  12.881  0.00  0.00    +0.008 C 
ATOM     20  C   LIG    1       21.181 -32.118  12.645  0.00  0.00    -0.058 C 
ENDBRANCH   1  20
BRANCH   1  21
ATOM     21  O   LIG    1       19.629 -30.320  13.024  0.00  0.00    -0.445 OA
BRANCH  21  22
ATOM     22  C   LIG    1       18.546 -31.142  13.018  0.00  0.00    +0.305 C 
ATOM     23  O   LIG    1       17.865 -31.444  12.049  0.00  0.00    -0.251 OA
ATOM     24  C   LIG    1       18.251 -31.608  14.412  0.00  0.00    +0.136 C 
ENDBRANCH  21  22
ENDBRANCH   1  21
BRANCH  11  25
ATOM     25  O   LIG    1       25.882 -25.475  13.364  0.00  0.00    -0.457 OA
BRANCH  25  26
ATOM     26  C   LIG    1       25.892 -24.554  14.370  0.00  0.00    +0.304 C 
ATOM     27  O   LIG    1       26.714 -23.657  14.514  0.00  0.00    -0.251 OA
ATOM     28  C   LIG    1       24.716 -24.758  15.280  0.00  0.00    +0.136 C 
ENDBRANCH  25  26
ENDBRANCH  11  25
TORSDOF 5
ENDMDL
MODEL 5
REMARK VINA RESULT:      -4.9      1.636      2.070
REMARK  Name = *****
REMARK                            x       y       z     vdW  Elec       q    Type
REMARK                         _______ _______ _______ _____ _____    ______ ____
ROOT
ATOM      1  C   LIG    1       25.575 -32.391   8.091  0.00  0.00    +0.178 C 
ATOM      2  C   LIG    1       25.560 -31.367   9.291  0.00  0.00    +0.022 C 
ATOM      3  C   LIG    1       26.977 -30.715   9.453  0.00  0.00    +0.016 C 
ATOM      4  C   LIG    1       25.314 -32.268  10.549  0.00  0.00    +0.003 C 
ATOM      5  C   LIG    1       23.881 -32.262  11.143  0.00  0.00    -0.003 C 
ATOM      6  C   LIG    1       23.269 -30.851  11.180  0.00  0.00    -0.000 C 
ATOM      7  C   LIG    1       23.201 -30.325   9.739  0.00  0.00    +0.005 C 
ATOM      8  C   LIG    1       24.054 -29.911  12.143  0.00  0.00    +0.018 C 
ATOM      9  C   LIG    1       24.428 -30.528  13.475  0.00  0.00    -0.067 C 
ATOM     10  C   LIG    1       24.861 -29.726  14.469  0.00  0.00    +0.016 C 
ATOM     11  C   LIG    1       24.961 -28.230  14.361  0.00  0.00    +0.199 C 
ATOM     12  C   LIG    1       23.932 -27.625  13.393  0.00  0.00    +0.049 C 
ATOM     13  C   LIG    1       24.581 -32.024  13.600  0.00  0.00    +0.031 C 
ATOM     14  C   LIG    1       23.338 -28.561  12.326  0.00  0.00    +0.012 C 
ATOM     15  C   LIG    1       23.819 -32.851  12.564  0.00  0.00    +0.008 C 
ATOM     16  C   LIG    1       25.745 -33.693  10.130  0.00  0.00    +0.009 C 
ATOM     17  C   LIG    1       24.578 -30.177   9.096  0.00  0.00    +0.012 C 
ATOM     18  C   LIG    1       26.305 -33.589   8.716  0.00  0.00    +0.062 C 
ENDROOT
BRANCH   1  20
ATOM     19  C   LIG    1       23.119 -33.115   7.305  0.00  0.00    +0.008 C 
ATOM     20  C   LIG    1       24.209 -32.772   7.652  0.00  0.00    -0.058 C 
ENDBRANCH   1  20
BRANCH   1  21
ATOM     21  O   LIG    1       26.318 -31.819   6.995  0.00  0.00    -0.445 OA
BRANCH  21  22
ATOM     22  C   LIG    1       27.072 -32.624   6.201  0.00  0.00    +0.305 C 
ATOM     23  O   LIG    1       28.215 -32.999   6.418  0.00  0.00    -0.251 OA
ATOM     24  C   LIG    1       26.314 -32.966   4.955  0.00  0.00    +0.136 C 
ENDBRANCH  21  22
ENDBRANCH   1  21
BRANCH  11  25
ATOM     25  O   LIG    1       26.297 -27.930  13.893  0.00  0.00    -0.457 OA
BRANCH  25  26
ATOM     26  C   LIG    1       26.406 -26.959  12.942  0.00  0.00    +0.304 C 
ATOM     27  O   LIG    1       26.193 -25.765  13.107  0.00  0.00    -0.251 OA
ATOM     28  C   LIG    1       26.872 -27.548  11.642  0.00  0.00    +0.136 C 
ENDBRANCH  25  26
ENDBRANCH  11  25
TORSDOF 5
ENDMDL
MODEL 6
REMARK VINA RESULT:      -4.7      3.433      6.985
REMARK  Name = *****
REMARK                            x       y       z     vdW  Elec       q    Type
REMARK                         _______ _______ _______ _____ _____    ______ ____
ROOT
ATOM      1  C   LIG    1       20.116 -30.913  13.216  0.00  0.00    +0.178 C 
ATOM      2  C   LIG    1       21.137 -30.778  12.023  0.00  0.00    +0.022 C 
ATOM      3  C   LIG    1       20.395 -31.001  10.659  0.00  0.00    +0.016 C 
ATOM      4  C   LIG    1       22.114 -31.986  12.226  0.00  0.00    +0.003 C 
ATOM      5  C   LIG    1       23.505 -31.665  12.832  0.00  0.00    -0.003 C 
ATOM      6  C   LIG    1       24.116 -30.382  12.246  0.00  0.00    -0.000 C 
ATOM      7  C   LIG    1       23.168 -29.216  12.562  0.00  0.00    +0.005 C 
ATOM      8  C   LIG    1       24.420 -30.533  10.725  0.00  0.00    +0.018 C 
ATOM      9  C   LIG    1       25.075 -31.842  10.332  0.00  0.00    -0.067 C 
ATOM     10  C   LIG    1       25.619 -31.958   9.103  0.00  0.00    +0.016 C 
ATOM     11  C   LIG    1       25.660 -30.847   8.092  0.00  0.00    +0.199 C 
ATOM     12  C   LIG    1       25.709 -29.450   8.732  0.00  0.00    +0.049 C 
ATOM     13  C   LIG    1       24.877 -33.072  11.182  0.00  0.00    +0.031 C 
ATOM     14  C   LIG    1       25.201 -29.324  10.180  0.00  0.00    +0.012 C 
ATOM     15  C   LIG    1       24.518 -32.809  12.645  0.00  0.00    +0.008 C 
ATOM     16  C   LIG    1       21.339 -33.004  13.097  0.00  0.00    +0.009 C 
ATOM     17  C   LIG    1       21.797 -29.373  11.909  0.00  0.00    +0.012 C 
ATOM     18  C   LIG    1       19.939 -32.436  13.302  0.00  0.00    +0.062 C 
ENDROOT
BRANCH   1  20
ATOM     19  C   LIG    1       21.114 -29.912  15.493  0.00  0.00    +0.008 C 
ATOM     20  C   LIG    1       20.654 -30.369  14.488  0.00  0.00    -0.058 C 
ENDBRANCH   1  20
BRANCH   1  21
ATOM     21  O   LIG    1       18.887 -30.247  12.861  0.00  0.00    -0.445 OA
BRANCH  21  22
ATOM     22  C   LIG    1       17.701 -30.744  13.301  0.00  0.00    +0.305 C 
ATOM     23  O   LIG    1       17.337 -30.841  14.464  0.00  0.00    -0.251 OA
ATOM     24  C   LIG    1       16.885 -31.222  12.138  0.00  0.00    +0.136 C 
ENDBRANCH  21  22
ENDBRANCH   1  21
BRANCH  11  25
ATOM     25  O   LIG    1       24.464 -30.966   7.286  0.00  0.00    -0.457 OA
BRANCH  25  26
ATOM     26  C   LIG    1       24.430 -30.236   6.135  0.00  0.00    +0.304 C 
ATOM     27  O   LIG    1       23.650 -29.327   5.883  0.00  0.00    -0.251 OA
ATOM     28  C   LIG    1       25.526 -30.673   5.205  0.00  0.00    +0.136 C 
ENDBRANCH  25  26
ENDBRANCH  11  25
TORSDOF 5
ENDMDL
MODEL 7
REMARK VINA RESULT:      -4.7      1.413      6.946
REMARK  Name = *****
REMARK                            x       y       z     vdW  Elec       q    Type
REMARK                         _______ _______ _______ _____ _____    ______ ____
ROOT
ATOM      1  C   LIG    1       25.948 -27.929  13.448  0.00  0.00    +0.178 C 
ATOM      2  C   LIG    1       25.910 -28.675  12.060  0.00  0.00    +0.022 C 
ATOM      3  C   LIG    1       26.364 -27.700  10.919  0.00  0.00    +0.016 C 
ATOM      4  C   LIG    1       24.389 -28.978  11.838  0.00  0.00    +0.003 C 
ATOM      5  C   LIG    1       23.921 -30.433  12.099  0.00  0.00    -0.003 C 
ATOM      6  C   LIG    1       24.913 -31.474  11.553  0.00  0.00    -0.000 C 
ATOM      7  C   LIG    1       26.261 -31.262  12.259  0.00  0.00    +0.005 C 
ATOM      8  C   LIG    1       25.015 -31.409   9.999  0.00  0.00    +0.018 C 
ATOM      9  C   LIG    1       23.689 -31.286   9.277  0.00  0.00    -0.067 C 
ATOM     10  C   LIG    1       23.647 -31.495   7.945  0.00  0.00    +0.016 C 
ATOM     11  C   LIG    1       24.838 -31.890   7.118  0.00  0.00    +0.199 C 
ATOM     12  C   LIG    1       25.878 -32.703   7.905  0.00  0.00    +0.049 C 
ATOM     13  C   LIG    1       22.501 -30.673   9.976  0.00  0.00    +0.031 C 
ATOM     14  C   LIG    1       25.859 -32.567   9.438  0.00  0.00    +0.012 C 
ATOM     15  C   LIG    1       22.534 -30.733  11.503  0.00  0.00    +0.008 C 
ATOM     16  C   LIG    1       23.630 -27.971  12.735  0.00  0.00    +0.009 C 
ATOM     17  C   LIG    1       26.873 -29.894  11.969  0.00  0.00    +0.012 C 
ATOM     18  C   LIG    1       24.680 -27.066  13.371  0.00  0.00    +0.062 C 
ENDROOT
BRANCH   1  20
ATOM     19  C   LIG    1       25.826 -29.648  15.500  0.00  0.00    +0.008 C 
ATOM     20  C   LIG    1       25.883 -28.866  14.598  0.00  0.00    -0.058 C 
ENDBRANCH   1  20
BRANCH   1  21
ATOM     21  O   LIG    1       27.143 -27.125  13.518  0.00  0.00    -0.445 OA
BRANCH  21  22
ATOM     22  C   LIG    1       27.067 -25.844  13.964  0.00  0.00    +0.305 C 
ATOM     23  O   LIG    1       26.917 -24.841  13.282  0.00  0.00    -0.251 OA
ATOM     24  C   LIG    1       27.246 -25.810  15.452  0.00  0.00    +0.136 C 
ENDBRANCH  21  22
ENDBRANCH   1  21
BRANCH  11  25
ATOM     25  O   LIG    1       25.445 -30.665   6.641  0.00  0.00    -0.457 OA
BRANCH  25  26
ATOM     26  C   LIG    1       24.600 -29.630   6.375  0.00  0.00    +0.304 C 
ATOM     27  O   LIG    1       23.549 -29.703   5.751  0.00  0.00    -0.251 OA
ATOM     28  C   LIG    1       25.112 -28.361   6.994  0.00  0.00    +0.136 C 
ENDBRANCH  25  26
ENDBRANCH  11  25
TORSDOF 5
ENDMDL
MODEL 8
REMARK VINA RESULT:      -4.5      3.237      5.065
REMARK  Name = *****
REMARK                            x       y       z     vdW  Elec       q    Type
REMARK                         _______ _______ _______ _____ _____    ______ ____
ROOT
ATOM      1  C   LIG    1       20.438 -31.399  11.698  0.00  0.00    +0.178 C 
ATOM      2  C   LIG    1       21.785 -30.578  11.716  0.00  0.00    +0.022 C 
ATOM      3  C   LIG    1       22.525 -30.739  10.343  0.00  0.00    +0.016 C 
ATOM      4  C   LIG    1       22.651 -31.303  12.801  0.00  0.00    +0.003 C 
ATOM      5  C   LIG    1       22.761 -30.610  14.185  0.00  0.00    -0.003 C 
ATOM      6  C   LIG    1       22.947 -29.089  14.064  0.00  0.00    -0.000 C 
ATOM      7  C   LIG    1       21.726 -28.517  13.329  0.00  0.00    +0.005 C 
ATOM      8  C   LIG    1       24.301 -28.729  13.381  0.00  0.00    +0.018 C 
ATOM      9  C   LIG    1       25.493 -29.525  13.868  0.00  0.00    -0.067 C 
ATOM     10  C   LIG    1       26.735 -29.110  13.544  0.00  0.00    +0.016 C 
ATOM     11  C   LIG    1       27.026 -27.865  12.754  0.00  0.00    +0.199 C 
ATOM     12  C   LIG    1       25.964 -26.769  12.942  0.00  0.00    +0.049 C 
ATOM     13  C   LIG    1       25.295 -30.899  14.460  0.00  0.00    +0.031 C 
ATOM     14  C   LIG    1       24.574 -27.215  13.428  0.00  0.00    +0.012 C 
ATOM     15  C   LIG    1       23.908 -31.169  15.045  0.00  0.00    +0.008 C 
ATOM     16  C   LIG    1       22.054 -32.725  12.927  0.00  0.00    +0.009 C 
ATOM     17  C   LIG    1       21.590 -29.046  11.903  0.00  0.00    +0.012 C 
ATOM     18  C   LIG    1       20.949 -32.835  11.883  0.00  0.00    +0.062 C 
ENDROOT
BRANCH   1  20
ATOM     19  C   LIG    1       18.813 -30.716  13.716  0.00  0.00    +0.008 C 
ATOM     20  C   LIG    1       19.524 -31.014  12.802  0.00  0.00    -0.058 C 
ENDBRANCH   1  20
BRANCH   1  21
ATOM     21  O   LIG    1       19.794 -31.217  10.420  0.00  0.00    -0.445 OA
BRANCH  21  22
ATOM     22  C   LIG    1       18.635 -31.873  10.152  0.00  0.00    +0.305 C 
ATOM     23  O   LIG    1       18.395 -33.051  10.373  0.00  0.00    -0.251 OA
ATOM     24  C   LIG    1       17.668 -30.946   9.480  0.00  0.00    +0.136 C 
ENDBRANCH  21  22
ENDBRANCH   1  21
BRANCH  11  25
ATOM     25  O   LIG    1       27.076 -28.252  11.360  0.00  0.00    -0.457 OA
BRANCH  25  26
ATOM     26  C   LIG    1       27.825 -29.351  11.060  0.00  0.00    +0.304 C 
ATOM     27  O   LIG    1       28.958 -29.580  11.463  0.00  0.00    -0.251 OA
ATOM     28  C   LIG    1       27.050 -30.291  10.182  0.00  0.00    +0.136 C 
ENDBRANCH  25  26
ENDBRANCH  11  25
TORSDOF 5
ENDMDL
MODEL 9
REMARK VINA RESULT:      -4.5      3.616      6.608
REMARK  Name = *****
REMARK                            x       y       z     vdW  Elec       q    Type
REMARK                         _______ _______ _______ _____ _____    ______ ____
ROOT
ATOM      1  C   LIG    1       27.370 -28.777  13.119  0.00  0.00    +0.178 C 
ATOM      2  C   LIG    1       25.888 -29.317  13.118  0.00  0.00    +0.022 C 
ATOM      3  C   LIG    1       25.677 -30.292  11.908  0.00  0.00    +0.016 C 
ATOM      4  C   LIG    1       25.023 -28.039  12.846  0.00  0.00    +0.003 C 
ATOM      5  C   LIG    1       24.295 -27.415  14.065  0.00  0.00    -0.003 C 
ATOM      6  C   LIG    1       23.672 -28.480  14.982  0.00  0.00    -0.000 C 
ATOM      7  C   LIG    1       24.803 -29.382  15.500  0.00  0.00    +0.005 C 
ATOM      8  C   LIG    1       22.539 -29.268  14.259  0.00  0.00    +0.018 C 
ATOM      9  C   LIG    1       21.579 -28.414  13.456  0.00  0.00    -0.067 C 
ATOM     10  C   LIG    1       20.423 -28.958  13.024  0.00  0.00    +0.016 C 
ATOM     11  C   LIG    1       19.992 -30.366  13.324  0.00  0.00    +0.199 C 
ATOM     12  C   LIG    1       20.538 -30.893  14.661  0.00  0.00    +0.049 C 
ATOM     13  C   LIG    1       22.027 -27.079  12.914  0.00  0.00    +0.031 C 
ATOM     14  C   LIG    1       21.790 -30.201  15.228  0.00  0.00    +0.012 C 
ATOM     15  C   LIG    1       23.190 -26.424  13.659  0.00  0.00    +0.008 C 
ATOM     16  C   LIG    1       25.982 -27.024  12.180  0.00  0.00    +0.009 C 
ATOM     17  C   LIG    1       25.514 -30.142  14.383  0.00  0.00    +0.012 C 
ATOM     18  C   LIG    1       27.319 -27.732  11.994  0.00  0.00    +0.062 C 
ENDROOT
BRANCH   1  20
ATOM     19  C   LIG    1       28.009 -27.639  15.458  0.00  0.00    +0.008 C 
ATOM     20  C   LIG    1       27.744 -28.148  14.411  0.00  0.00    -0.058 C 
ENDBRANCH   1  20
BRANCH   1  21
ATOM     21  O   LIG    1       28.266 -29.863  12.806  0.00  0.00    -0.445 OA
BRANCH  21  22
ATOM     22  C   LIG    1       29.589 -29.612  12.627  0.00  0.00    +0.305 C 
ATOM     23  O   LIG    1       30.137 -29.293  11.582  0.00  0.00    -0.251 OA
ATOM     24  C   LIG    1       30.329 -29.835  13.911  0.00  0.00    +0.136 C 
ENDBRANCH  21  22
ENDBRANCH   1  21
BRANCH  11  25
ATOM     25  O   LIG    1       20.481 -31.196  12.244  0.00  0.00    -0.457 OA
BRANCH  25  26
ATOM     26  C   LIG    1       19.732 -31.217  11.105  0.00  0.00    +0.304 C 
ATOM     27  O   LIG    1       20.128 -30.946   9.979  0.00  0.00    -0.251 OA
ATOM     28  C   LIG    1       18.331 -31.667  11.407  0.00  0.00    +0.136 C 
ENDBRANCH  25  26
ENDBRANCH  11  25
TORSDOF 5
ENDMDL
