MODEL 1
REMARK VINA RESULT:      -8.1      0.000      0.000
REMARK  Name = *****
REMARK                            x       y       z     vdW  Elec       q    Type
REMARK                         _______ _______ _______ _____ _____    ______ ____
ROOT
ATOM      1  O   LIG    1       28.155 -20.757   7.386  0.00  0.00    -0.459 OA
ENDROOT
BRANCH   1   6
ATOM      2  C   LIG    1       23.460 -20.414   6.954  0.00  0.00    +0.192 C 
ATOM      3  N   LIG    1       24.241 -21.726   7.035  0.00  0.00    +0.243 N 
ATOM      4  C   LIG    1       25.094 -21.899   8.304  0.00  0.00    +0.070 C 
ATOM      5  C   LIG    1       25.980 -20.664   8.520  0.00  0.00    +0.099 C 
ATOM      6  C   LIG    1       26.806 -20.235   7.289  0.00  0.00    +0.187 C 
ATOM      7  C   LIG    1       26.231 -20.662   5.924  0.00  0.00    +0.099 C 
ATOM      8  C   LIG    1       25.952 -23.130   7.983  0.00  0.00    +0.060 C 
ATOM      9  C   LIG    1       26.115 -23.130   6.464  0.00  0.00    +0.060 C 
ATOM     10  C   LIG    1       25.333 -21.906   5.966  0.00  0.00    +0.070 C 
ATOM     11  C   LIG    1       23.168 -22.831   6.924  0.00  0.00    +0.192 C 
ENDBRANCH   1   6
BRANCH   1  12
ATOM     12  C   LIG    1       29.158 -19.836   7.202  0.00  0.00    +0.341 C 
ATOM     13  O   LIG    1       29.125 -18.955   6.341  0.00  0.00    -0.247 OA
BRANCH  12  14
ATOM     14  C   LIG    1       30.305 -20.022   8.215  0.00  0.00    +0.253 C 
BRANCH  14  15
ATOM     15  C   LIG    1       30.738 -18.739   8.906  0.00  0.00    -0.008 A 
ATOM     16  C   LIG    1       30.006 -18.249  10.003  0.00  0.00    +0.007 A 
ATOM     17  C   LIG    1       30.399 -17.079  10.663  0.00  0.00    +0.000 A 
ATOM     18  C   LIG    1       31.536 -16.392  10.248  0.00  0.00    +0.000 A 
ATOM     19  C   LIG    1       32.293 -16.885   9.190  0.00  0.00    +0.000 A 
ATOM     20  C   LIG    1       31.903 -18.052   8.529  0.00  0.00    +0.007 A 
ENDBRANCH  14  15
BRANCH  14  21
ATOM     21  O   LIG    1       31.450 -20.587   7.578  0.00  0.00    -0.376 OA
ATOM     22  H   LIG    1       31.561 -21.485   7.937  0.00  0.00    +0.211 HD
ENDBRANCH  14  21
ENDBRANCH  12  14
ENDBRANCH   1  12
TORSDOF 5
ENDMDL
MODEL 2
REMARK VINA RESULT:      -7.8      0.785      1.614
REMARK  Name = *****
REMARK                            x       y       z     vdW  Elec       q    Type
REMARK                         _______ _______ _______ _____ _____    ______ ____
ROOT
ATOM      1  O   LIG    1       28.002 -20.003   7.412  0.00  0.00    -0.459 OA
ENDROOT
BRANCH   1   6
ATOM      2  C   LIG    1       25.118 -23.116   5.329  0.00  0.00    +0.192 C 
ATOM      3  N   LIG    1       24.819 -22.378   6.635  0.00  0.00    +0.243 N 
ATOM      4  C   LIG    1       24.833 -20.843   6.534  0.00  0.00    +0.070 C 
ATOM      5  C   LIG    1       26.132 -20.367   5.866  0.00  0.00    +0.099 C 
ATOM      6  C   LIG    1       27.425 -20.947   6.475  0.00  0.00    +0.187 C 
ATOM      7  C   LIG    1       27.267 -22.296   7.203  0.00  0.00    +0.099 C 
ATOM      8  C   LIG    1       24.786 -20.396   8.001  0.00  0.00    +0.060 C 
ATOM      9  C   LIG    1       25.462 -21.516   8.791  0.00  0.00    +0.060 C 
ATOM     10  C   LIG    1       25.860 -22.571   7.750  0.00  0.00    +0.070 C 
ATOM     11  C   LIG    1       23.433 -22.899   7.072  0.00  0.00    +0.192 C 
ENDBRANCH   1   6
BRANCH   1  12
ATOM     12  C   LIG    1       29.196 -19.444   7.026  0.00  0.00    +0.341 C 
ATOM     13  O   LIG    1       29.331 -18.758   6.010  0.00  0.00    -0.247 OA
BRANCH  12  14
ATOM     14  C   LIG    1       30.328 -19.751   8.027  0.00  0.00    +0.253 C 
BRANCH  14  15
ATOM     15  C   LIG    1       30.780 -18.551   8.843  0.00  0.00    -0.008 A 
ATOM     16  C   LIG    1       30.011 -18.117   9.940  0.00  0.00    +0.007 A 
ATOM     17  C   LIG    1       30.419 -17.024  10.713  0.00  0.00    +0.000 A 
ATOM     18  C   LIG    1       31.606 -16.362  10.416  0.00  0.00    +0.000 A 
ATOM     19  C   LIG    1       32.397 -16.804   9.359  0.00  0.00    +0.000 A 
ATOM     20  C   LIG    1       31.993 -17.894   8.585  0.00  0.00    +0.007 A 
ENDBRANCH  14  15
BRANCH  14  21
ATOM     21  O   LIG    1       31.468 -20.276   7.348  0.00  0.00    -0.376 OA
ATOM     22  H   LIG    1       31.345 -21.240   7.288  0.00  0.00    +0.211 HD
ENDBRANCH  14  21
ENDBRANCH  12  14
ENDBRANCH   1  12
TORSDOF 5
ENDMDL
MODEL 3
REMARK VINA RESULT:      -7.8      0.781      1.925
REMARK  Name = *****
REMARK                            x       y       z     vdW  Elec       q    Type
REMARK                         _______ _______ _______ _____ _____    ______ ____
ROOT
ATOM      1  O   LIG    1       28.014 -19.987   7.410  0.00  0.00    -0.459 OA
ENDROOT
BRANCH   1   6
ATOM      2  C   LIG    1       25.152 -23.113   5.315  0.00  0.00    +0.192 C 
ATOM      3  N   LIG    1       24.847 -22.381   6.622  0.00  0.00    +0.243 N 
ATOM      4  C   LIG    1       24.852 -20.845   6.525  0.00  0.00    +0.070 C 
ATOM      5  C   LIG    1       26.148 -20.360   5.860  0.00  0.00    +0.099 C 
ATOM      6  C   LIG    1       27.444 -20.933   6.470  0.00  0.00    +0.187 C 
ATOM      7  C   LIG    1       27.294 -22.285   7.194  0.00  0.00    +0.099 C 
ATOM      8  C   LIG    1       24.799 -20.402   7.993  0.00  0.00    +0.060 C 
ATOM      9  C   LIG    1       25.481 -21.520   8.782  0.00  0.00    +0.060 C 
ATOM     10  C   LIG    1       25.888 -22.570   7.739  0.00  0.00    +0.070 C 
ATOM     11  C   LIG    1       23.463 -22.912   7.056  0.00  0.00    +0.192 C 
ENDBRANCH   1   6
BRANCH   1  12
ATOM     12  C   LIG    1       29.242 -19.479   7.064  0.00  0.00    +0.341 C 
ATOM     13  O   LIG    1       29.444 -18.821   6.041  0.00  0.00    -0.247 OA
BRANCH  12  14
ATOM     14  C   LIG    1       30.320 -19.804   8.117  0.00  0.00    +0.253 C 
BRANCH  14  15
ATOM     15  C   LIG    1       30.781 -18.603   8.926  0.00  0.00    -0.008 A 
ATOM     16  C   LIG    1       31.939 -17.899   8.544  0.00  0.00    +0.007 A 
ATOM     17  C   LIG    1       32.370 -16.780   9.266  0.00  0.00    +0.000 A 
ATOM     18  C   LIG    1       31.643 -16.338  10.367  0.00  0.00    +0.000 A 
ATOM     19  C   LIG    1       30.475 -16.999  10.734  0.00  0.00    +0.000 A 
ATOM     20  C   LIG    1       30.043 -18.116  10.016  0.00  0.00    +0.007 A 
ENDBRANCH  14  15
BRANCH  14  21
ATOM     21  O   LIG    1       31.467 -20.384   7.498  0.00  0.00    -0.376 OA
ATOM     22  H   LIG    1       31.218 -20.596   6.580  0.00  0.00    +0.211 HD
ENDBRANCH  14  21
ENDBRANCH  12  14
ENDBRANCH   1  12
TORSDOF 5
ENDMDL
MODEL 4
REMARK VINA RESULT:      -7.3      5.385      7.071
REMARK  Name = *****
REMARK                            x       y       z     vdW  Elec       q    Type
REMARK                         _______ _______ _______ _____ _____    ______ ____
ROOT
ATOM      1  O   LIG    1       25.529 -24.130   5.901  0.00  0.00    -0.459 OA
ENDROOT
BRANCH   1   6
ATOM      2  C   LIG    1       24.206 -28.468   7.235  0.00  0.00    +0.192 C 
ATOM      3  N   LIG    1       25.104 -28.152   6.038  0.00  0.00    +0.243 N 
ATOM      4  C   LIG    1       26.391 -27.378   6.375  0.00  0.00    +0.070 C 
ATOM      5  C   LIG    1       26.057 -26.135   7.213  0.00  0.00    +0.099 C 
ATOM      6  C   LIG    1       24.946 -25.238   6.631  0.00  0.00    +0.187 C 
ATOM      7  C   LIG    1       23.947 -25.946   5.693  0.00  0.00    +0.099 C 
ATOM      8  C   LIG    1       26.926 -26.971   4.996  0.00  0.00    +0.060 C 
ATOM      9  C   LIG    1       25.693 -26.845   4.101  0.00  0.00    +0.060 C 
ATOM     10  C   LIG    1       24.497 -27.198   4.996  0.00  0.00    +0.070 C 
ATOM     11  C   LIG    1       25.424 -29.527   5.413  0.00  0.00    +0.192 C 
ENDBRANCH   1   6
BRANCH   1  12
ATOM     12  C   LIG    1       25.576 -22.936   6.580  0.00  0.00    +0.341 C 
ATOM     13  O   LIG    1       26.617 -22.440   7.016  0.00  0.00    -0.247 OA
BRANCH  12  14
ATOM     14  C   LIG    1       24.183 -22.286   6.702  0.00  0.00    +0.253 C 
BRANCH  14  15
ATOM     15  C   LIG    1       23.921 -21.183   5.689  0.00  0.00    -0.008 A 
ATOM     16  C   LIG    1       22.840 -20.301   5.873  0.00  0.00    +0.007 A 
ATOM     17  C   LIG    1       22.592 -19.270   4.961  0.00  0.00    +0.000 A 
ATOM     18  C   LIG    1       23.429 -19.092   3.863  0.00  0.00    +0.000 A 
ATOM     19  C   LIG    1       24.526 -19.931   3.689  0.00  0.00    +0.000 A 
ATOM     20  C   LIG    1       24.775 -20.962   4.597  0.00  0.00    +0.007 A 
ENDBRANCH  14  15
BRANCH  14  21
ATOM     21  O   LIG    1       23.998 -21.738   8.006  0.00  0.00    -0.376 OA
ATOM     22  H   LIG    1       23.822 -22.485   8.607  0.00  0.00    +0.211 HD
ENDBRANCH  14  21
ENDBRANCH  12  14
ENDBRANCH   1  12
TORSDOF 5
ENDMDL
MODEL 5
REMARK VINA RESULT:      -7.2      2.259      7.166
REMARK  Name = *****
REMARK                            x       y       z     vdW  Elec       q    Type
REMARK                         _______ _______ _______ _____ _____    ______ ____
ROOT
ATOM      1  O   LIG    1       28.415 -21.310   7.051  0.00  0.00    -0.459 OA
ENDROOT
BRANCH   1   6
ATOM      2  C   LIG    1       30.883 -18.877  10.267  0.00  0.00    +0.192 C 
ATOM      3  N   LIG    1       30.938 -18.645   8.756  0.00  0.00    +0.243 N 
ATOM      4  C   LIG    1       29.589 -18.303   8.100  0.00  0.00    +0.070 C 
ATOM      5  C   LIG    1       28.526 -19.336   8.504  0.00  0.00    +0.099 C 
ATOM      6  C   LIG    1       28.942 -20.808   8.305  0.00  0.00    +0.187 C 
ATOM      7  C   LIG    1       30.460 -21.075   8.318  0.00  0.00    +0.099 C 
ATOM      8  C   LIG    1       29.895 -18.404   6.599  0.00  0.00    +0.060 C 
ATOM      9  C   LIG    1       31.020 -19.432   6.479  0.00  0.00    +0.060 C 
ATOM     10  C   LIG    1       31.328 -19.874   7.917  0.00  0.00    +0.070 C 
ATOM     11  C   LIG    1       31.958 -17.500   8.571  0.00  0.00    +0.192 C 
ENDBRANCH   1   6
BRANCH   1  12
ATOM     12  C   LIG    1       27.077 -21.080   6.839  0.00  0.00    +0.341 C 
ATOM     13  O   LIG    1       26.640 -20.421   5.893  0.00  0.00    -0.247 OA
BRANCH  12  14
ATOM     14  C   LIG    1       26.197 -21.766   7.903  0.00  0.00    +0.253 C 
BRANCH  14  15
ATOM     15  C   LIG    1       25.359 -22.916   7.369  0.00  0.00    -0.008 A 
ATOM     16  C   LIG    1       23.973 -22.752   7.186  0.00  0.00    +0.007 A 
ATOM     17  C   LIG    1       23.188 -23.794   6.680  0.00  0.00    +0.000 A 
ATOM     18  C   LIG    1       23.776 -25.006   6.333  0.00  0.00    +0.000 A 
ATOM     19  C   LIG    1       25.152 -25.171   6.470  0.00  0.00    +0.000 A 
ATOM     20  C   LIG    1       25.938 -24.133   6.976  0.00  0.00    +0.007 A 
ENDBRANCH  14  15
BRANCH  14  21
ATOM     21  O   LIG    1       25.314 -20.822   8.507  0.00  0.00    -0.376 OA
ATOM     22  H   LIG    1       24.487 -20.835   7.991  0.00  0.00    +0.211 HD
ENDBRANCH  14  21
ENDBRANCH  12  14
ENDBRANCH   1  12
TORSDOF 5
ENDMDL
MODEL 6
REMARK VINA RESULT:      -7.1      4.925      8.509
REMARK  Name = *****
REMARK                            x       y       z     vdW  Elec       q    Type
REMARK                         _______ _______ _______ _____ _____    ______ ____
ROOT
ATOM      1  O   LIG    1       25.501 -24.429   7.149  0.00  0.00    -0.459 OA
ENDROOT
BRANCH   1   6
ATOM      2  C   LIG    1       25.246 -20.209   5.032  0.00  0.00    +0.192 C 
ATOM      3  N   LIG    1       24.109 -20.872   5.811  0.00  0.00    +0.243 N 
ATOM      4  C   LIG    1       24.433 -21.209   7.276  0.00  0.00    +0.070 C 
ATOM      5  C   LIG    1       25.749 -21.996   7.360  0.00  0.00    +0.099 C 
ATOM      6  C   LIG    1       25.836 -23.219   6.424  0.00  0.00    +0.187 C 
ATOM      7  C   LIG    1       24.940 -23.158   5.170  0.00  0.00    +0.099 C 
ATOM      8  C   LIG    1       23.250 -22.089   7.702  0.00  0.00    +0.060 C 
ATOM      9  C   LIG    1       22.778 -22.784   6.426  0.00  0.00    +0.060 C 
ATOM     10  C   LIG    1       23.698 -22.268   5.311  0.00  0.00    +0.070 C 
ATOM     11  C   LIG    1       22.932 -19.877   5.711  0.00  0.00    +0.192 C 
ENDBRANCH   1   6
BRANCH   1  12
ATOM     12  C   LIG    1       25.705 -25.602   6.464  0.00  0.00    +0.341 C 
ATOM     13  O   LIG    1       26.780 -25.911   5.946  0.00  0.00    -0.247 OA
BRANCH  12  14
ATOM     14  C   LIG    1       24.444 -26.490   6.451  0.00  0.00    +0.253 C 
BRANCH  14  15
ATOM     15  C   LIG    1       24.735 -27.982   6.470  0.00  0.00    -0.008 A 
ATOM     16  C   LIG    1       24.833 -28.695   5.261  0.00  0.00    +0.007 A 
ATOM     17  C   LIG    1       25.116 -30.065   5.257  0.00  0.00    +0.000 A 
ATOM     18  C   LIG    1       25.323 -30.739   6.457  0.00  0.00    +0.000 A 
ATOM     19  C   LIG    1       25.268 -30.040   7.659  0.00  0.00    +0.000 A 
ATOM     20  C   LIG    1       24.985 -28.672   7.666  0.00  0.00    +0.007 A 
ENDBRANCH  14  15
BRANCH  14  21
ATOM     21  O   LIG    1       23.648 -26.211   5.301  0.00  0.00    -0.376 OA
ATOM     22  H   LIG    1       22.797 -25.862   5.622  0.00  0.00    +0.211 HD
ENDBRANCH  14  21
ENDBRANCH  12  14
ENDBRANCH   1  12
TORSDOF 5
ENDMDL
MODEL 7
REMARK VINA RESULT:      -7.1      6.842      9.739
REMARK  Name = *****
REMARK                            x       y       z     vdW  Elec       q    Type
REMARK                         _______ _______ _______ _____ _____    ______ ____
ROOT
ATOM      1  O   LIG    1       25.126 -28.597   7.490  0.00  0.00    -0.459 OA
ENDROOT
BRANCH   1   6
ATOM      2  C   LIG    1       23.933 -33.032   8.610  0.00  0.00    +0.192 C 
ATOM      3  N   LIG    1       24.998 -32.200   9.327  0.00  0.00    +0.243 N 
ATOM      4  C   LIG    1       24.495 -30.875   9.926  0.00  0.00    +0.070 C 
ATOM      5  C   LIG    1       23.727 -30.072   8.865  0.00  0.00    +0.099 C 
ATOM      6  C   LIG    1       24.470 -29.889   7.526  0.00  0.00    +0.187 C 
ATOM      7  C   LIG    1       25.528 -30.963   7.203  0.00  0.00    +0.099 C 
ATOM      8  C   LIG    1       25.792 -30.153  10.315  0.00  0.00    +0.060 C 
ATOM      9  C   LIG    1       26.851 -30.660   9.337  0.00  0.00    +0.060 C 
ATOM     10  C   LIG    1       26.126 -31.665   8.430  0.00  0.00    +0.070 C 
ATOM     11  C   LIG    1       25.555 -33.136  10.423  0.00  0.00    +0.192 C 
ENDBRANCH   1   6
BRANCH   1  12
ATOM     12  C   LIG    1       25.041 -27.925   6.295  0.00  0.00    +0.341 C 
ATOM     13  O   LIG    1       24.301 -28.268   5.371  0.00  0.00    -0.247 OA
BRANCH  12  14
ATOM     14  C   LIG    1       25.955 -26.683   6.264  0.00  0.00    +0.253 C 
BRANCH  14  15
ATOM     15  C   LIG    1       25.237 -25.375   6.554  0.00  0.00    -0.008 A 
ATOM     16  C   LIG    1       25.971 -24.242   6.950  0.00  0.00    +0.007 A 
ATOM     17  C   LIG    1       25.330 -23.024   7.205  0.00  0.00    +0.000 A 
ATOM     18  C   LIG    1       23.951 -22.916   7.051  0.00  0.00    +0.000 A 
ATOM     19  C   LIG    1       23.215 -24.017   6.621  0.00  0.00    +0.000 A 
ATOM     20  C   LIG    1       23.853 -25.234   6.367  0.00  0.00    +0.007 A 
ENDBRANCH  14  15
BRANCH  14  21
ATOM     21  O   LIG    1       26.594 -26.563   4.995  0.00  0.00    -0.376 OA
ATOM     22  H   LIG    1       26.179 -27.217   4.404  0.00  0.00    +0.211 HD
ENDBRANCH  14  21
ENDBRANCH  12  14
ENDBRANCH   1  12
TORSDOF 5
ENDMDL
MODEL 8
REMARK VINA RESULT:      -7.1      1.429      2.794
REMARK  Name = *****
REMARK                            x       y       z     vdW  Elec       q    Type
REMARK                         _______ _______ _______ _____ _____    ______ ____
ROOT
ATOM      1  O   LIG    1       26.645 -20.655   7.135  0.00  0.00    -0.459 OA
ENDROOT
BRANCH   1   6
ATOM      2  C   LIG    1       22.601 -23.089   6.869  0.00  0.00    +0.192 C 
ATOM      3  N   LIG    1       23.008 -21.955   5.927  0.00  0.00    +0.243 N 
ATOM      4  C   LIG    1       24.331 -22.178   5.174  0.00  0.00    +0.070 C 
ATOM      5  C   LIG    1       25.445 -22.560   6.159  0.00  0.00    +0.099 C 
ATOM      6  C   LIG    1       25.589 -21.619   7.373  0.00  0.00    +0.187 C 
ATOM      7  C   LIG    1       24.318 -20.839   7.761  0.00  0.00    +0.099 C 
ATOM      8  C   LIG    1       24.612 -20.805   4.548  0.00  0.00    +0.060 C 
ATOM      9  C   LIG    1       23.965 -19.788   5.488  0.00  0.00    +0.060 C 
ATOM     10  C   LIG    1       23.325 -20.615   6.612  0.00  0.00    +0.070 C 
ATOM     11  C   LIG    1       21.822 -21.813   4.949  0.00  0.00    +0.192 C 
ENDBRANCH   1   6
BRANCH   1  12
ATOM     12  C   LIG    1       27.868 -20.975   7.673  0.00  0.00    +0.341 C 
ATOM     13  O   LIG    1       28.009 -21.687   8.669  0.00  0.00    -0.247 OA
BRANCH  12  14
ATOM     14  C   LIG    1       29.032 -20.364   6.866  0.00  0.00    +0.253 C 
BRANCH  14  15
ATOM     15  C   LIG    1       29.894 -19.394   7.657  0.00  0.00    -0.008 A 
ATOM     16  C   LIG    1       31.267 -19.278   7.370  0.00  0.00    +0.007 A 
ATOM     17  C   LIG    1       32.075 -18.379   8.076  0.00  0.00    +0.000 A 
ATOM     18  C   LIG    1       31.521 -17.570   9.064  0.00  0.00    +0.000 A 
ATOM     19  C   LIG    1       30.157 -17.644   9.332  0.00  0.00    +0.000 A 
ATOM     20  C   LIG    1       29.349 -18.541   8.630  0.00  0.00    +0.007 A 
ENDBRANCH  14  15
BRANCH  14  21
ATOM     21  O   LIG    1       28.538 -19.677   5.717  0.00  0.00    -0.376 OA
ATOM     22  H   LIG    1       29.138 -19.890   4.979  0.00  0.00    +0.211 HD
ENDBRANCH  14  21
ENDBRANCH  12  14
ENDBRANCH   1  12
TORSDOF 5
ENDMDL
MODEL 9
REMARK VINA RESULT:      -6.7      6.558      9.486
REMARK  Name = *****
REMARK                            x       y       z     vdW  Elec       q    Type
REMARK                         _______ _______ _______ _____ _____    ______ ____
ROOT
ATOM      1  O   LIG    1       25.498 -29.132   6.911  0.00  0.00    -0.459 OA
ENDROOT
BRANCH   1   6
ATOM      2  C   LIG    1       24.371 -29.910  11.435  0.00  0.00    +0.192 C 
ATOM      3  N   LIG    1       25.105 -30.900  10.529  0.00  0.00    +0.243 N 
ATOM      4  C   LIG    1       26.422 -30.380   9.929  0.00  0.00    +0.070 C 
ATOM      5  C   LIG    1       26.198 -29.016   9.260  0.00  0.00    +0.099 C 
ATOM      6  C   LIG    1       25.018 -28.965   8.268  0.00  0.00    +0.187 C 
ATOM      7  C   LIG    1       23.907 -30.008   8.506  0.00  0.00    +0.099 C 
ATOM      8  C   LIG    1       26.773 -31.444   8.879  0.00  0.00    +0.060 C 
ATOM      9  C   LIG    1       25.434 -32.023   8.422  0.00  0.00    +0.060 C 
ATOM     10  C   LIG    1       24.365 -31.279   9.235  0.00  0.00    +0.070 C 
ATOM     11  C   LIG    1       25.345 -32.142  11.416  0.00  0.00    +0.192 C 
ENDBRANCH   1   6
BRANCH   1  12
ATOM     12  C   LIG    1       25.233 -28.087   6.059  0.00  0.00    +0.341 C 
ATOM     13  O   LIG    1       24.359 -28.121   5.190  0.00  0.00    -0.247 OA
BRANCH  12  14
ATOM     14  C   LIG    1       26.134 -26.868   6.341  0.00  0.00    +0.253 C 
BRANCH  14  15
ATOM     15  C   LIG    1       25.376 -25.562   6.516  0.00  0.00    -0.008 A 
ATOM     16  C   LIG    1       23.982 -25.528   6.332  0.00  0.00    +0.007 A 
ATOM     17  C   LIG    1       23.264 -24.339   6.505  0.00  0.00    +0.000 A 
ATOM     18  C   LIG    1       23.924 -23.173   6.880  0.00  0.00    +0.000 A 
ATOM     19  C   LIG    1       25.298 -23.200   7.105  0.00  0.00    +0.000 A 
ATOM     20  C   LIG    1       26.017 -24.385   6.933  0.00  0.00    +0.007 A 
ENDBRANCH  14  15
BRANCH  14  21
ATOM     21  O   LIG    1       27.080 -26.691   5.288  0.00  0.00    -0.376 OA
ATOM     22  H   LIG    1       27.057 -25.749   5.040  0.00  0.00    +0.211 HD
ENDBRANCH  14  21
ENDBRANCH  12  14
ENDBRANCH   1  12
TORSDOF 5
ENDMDL
