MODEL 1
REMARK VINA RESULT:      -5.6      0.000      0.000
REMARK  Name = *****
REMARK                            x       y       z     vdW  Elec       q    Type
REMARK                         _______ _______ _______ _____ _____    ______ ____
ROOT
ATOM      1  O   LIG    1       27.112 -19.278   4.442  0.00  0.00    -0.291 OA
ATOM      2  C   LIG    1       25.894 -19.247   4.428  0.00  0.00    +0.179 C 
ATOM      3  C   LIG    1       24.985 -18.431   3.518  0.00  0.00    +0.161 C 
ATOM      4  C   LIG    1       23.592 -18.853   3.970  0.00  0.00    +0.179 C 
ATOM      5  O   LIG    1       22.517 -18.509   3.508  0.00  0.00    -0.291 OA
ATOM      6  C   LIG    1       23.723 -19.810   5.066  0.00  0.00    +0.029 A 
ATOM      7  C   LIG    1       22.721 -20.440   5.781  0.00  0.00    +0.012 A 
ATOM      8  C   LIG    1       23.108 -21.328   6.789  0.00  0.00    +0.001 A 
ATOM      9  C   LIG    1       24.470 -21.565   7.058  0.00  0.00    +0.001 A 
ATOM     10  C   LIG    1       25.468 -20.918   6.322  0.00  0.00    +0.012 A 
ATOM     11  C   LIG    1       25.064 -20.042   5.330  0.00  0.00    +0.029 A 
ENDROOT
BRANCH   3  12
ATOM     12  C   LIG    1       25.181 -16.929   3.557  0.00  0.00    -0.029 A 
ATOM     13  C   LIG    1       24.098 -16.117   3.936  0.00  0.00    +0.005 A 
ATOM     14  C   LIG    1       24.230 -14.729   4.004  0.00  0.00    +0.000 A 
ATOM     15  C   LIG    1       25.447 -14.129   3.697  0.00  0.00    +0.000 A 
ATOM     16  C   LIG    1       26.532 -14.918   3.324  0.00  0.00    +0.000 A 
ATOM     17  C   LIG    1       26.403 -16.307   3.257  0.00  0.00    +0.005 A 
ENDBRANCH   3  12
TORSDOF 1
ENDMDL
MODEL 2
REMARK VINA RESULT:      -5.5      0.909      5.711
REMARK  Name = *****
REMARK                            x       y       z     vdW  Elec       q    Type
REMARK                         _______ _______ _______ _____ _____    ______ ____
ROOT
ATOM      1  O   LIG    1       21.923 -17.157   4.626  0.00  0.00    -0.291 OA
ATOM      2  C   LIG    1       23.071 -17.211   4.222  0.00  0.00    +0.179 C 
ATOM      3  C   LIG    1       23.855 -18.439   3.781  0.00  0.00    +0.161 C 
ATOM      4  C   LIG    1       25.196 -17.849   3.363  0.00  0.00    +0.179 C 
ATOM      5  O   LIG    1       26.157 -18.429   2.886  0.00  0.00    -0.291 OA
ATOM      6  C   LIG    1       25.163 -16.405   3.583  0.00  0.00    +0.029 A 
ATOM      7  C   LIG    1       26.163 -15.476   3.354  0.00  0.00    +0.012 A 
ATOM      8  C   LIG    1       25.880 -14.138   3.643  0.00  0.00    +0.001 A 
ATOM      9  C   LIG    1       24.620 -13.760   4.147  0.00  0.00    +0.001 A 
ATOM     10  C   LIG    1       23.623 -14.714   4.371  0.00  0.00    +0.012 A 
ATOM     11  C   LIG    1       23.924 -16.033   4.080  0.00  0.00    +0.029 A 
ENDROOT
BRANCH   3  12
ATOM     12  C   LIG    1       23.999 -19.541   4.810  0.00  0.00    -0.029 A 
ATOM     13  C   LIG    1       25.272 -20.094   5.034  0.00  0.00    +0.005 A 
ATOM     14  C   LIG    1       25.462 -21.100   5.983  0.00  0.00    +0.000 A 
ATOM     15  C   LIG    1       24.384 -21.569   6.726  0.00  0.00    +0.000 A 
ATOM     16  C   LIG    1       23.116 -21.032   6.521  0.00  0.00    +0.000 A 
ATOM     17  C   LIG    1       22.924 -20.023   5.573  0.00  0.00    +0.005 A 
ENDBRANCH   3  12
TORSDOF 1
ENDMDL
MODEL 3
REMARK VINA RESULT:      -4.6      0.911      1.586
REMARK  Name = *****
REMARK                            x       y       z     vdW  Elec       q    Type
REMARK                         _______ _______ _______ _____ _____    ______ ____
ROOT
ATOM      1  O   LIG    1       27.989 -18.235   4.440  0.00  0.00    -0.291 OA
ATOM      2  C   LIG    1       26.817 -18.556   4.347  0.00  0.00    +0.179 C 
ATOM      3  C   LIG    1       25.748 -17.958   3.444  0.00  0.00    +0.161 C 
ATOM      4  C   LIG    1       24.523 -18.805   3.769  0.00  0.00    +0.179 C 
ATOM      5  O   LIG    1       23.414 -18.746   3.265  0.00  0.00    -0.291 OA
ATOM      6  C   LIG    1       24.884 -19.780   4.796  0.00  0.00    +0.029 A 
ATOM      7  C   LIG    1       24.083 -20.736   5.393  0.00  0.00    +0.012 A 
ATOM      8  C   LIG    1       24.673 -21.564   6.354  0.00  0.00    +0.001 A 
ATOM      9  C   LIG    1       26.032 -21.420   6.693  0.00  0.00    +0.001 A 
ATOM     10  C   LIG    1       26.824 -20.446   6.076  0.00  0.00    +0.012 A 
ATOM     11  C   LIG    1       26.222 -19.638   5.129  0.00  0.00    +0.029 A 
ENDROOT
BRANCH   3  12
ATOM     12  C   LIG    1       25.492 -16.474   3.610  0.00  0.00    -0.029 A 
ATOM     13  C   LIG    1       26.530 -15.573   3.314  0.00  0.00    +0.005 A 
ATOM     14  C   LIG    1       26.342 -14.195   3.433  0.00  0.00    +0.000 A 
ATOM     15  C   LIG    1       25.113 -13.694   3.848  0.00  0.00    +0.000 A 
ATOM     16  C   LIG    1       24.071 -14.570   4.142  0.00  0.00    +0.000 A 
ATOM     17  C   LIG    1       24.257 -15.950   4.021  0.00  0.00    +0.005 A 
ENDBRANCH   3  12
TORSDOF 1
ENDMDL
MODEL 4
REMARK VINA RESULT:      -4.2      2.245      3.760
REMARK  Name = *****
REMARK                            x       y       z     vdW  Elec       q    Type
REMARK                         _______ _______ _______ _____ _____    ______ ____
ROOT
ATOM      1  O   LIG    1       26.669 -17.189   2.865  0.00  0.00    -0.291 OA
ATOM      2  C   LIG    1       25.698 -16.546   3.225  0.00  0.00    +0.179 C 
ATOM      3  C   LIG    1       25.506 -15.036   3.189  0.00  0.00    +0.161 C 
ATOM      4  C   LIG    1       24.093 -14.865   3.736  0.00  0.00    +0.179 C 
ATOM      5  O   LIG    1       23.455 -13.833   3.859  0.00  0.00    -0.291 OA
ATOM      6  C   LIG    1       23.557 -16.182   4.073  0.00  0.00    +0.029 A 
ATOM      7  C   LIG    1       22.321 -16.496   4.607  0.00  0.00    +0.012 A 
ATOM      8  C   LIG    1       22.040 -17.846   4.836  0.00  0.00    +0.001 A 
ATOM      9  C   LIG    1       22.988 -18.842   4.529  0.00  0.00    +0.001 A 
ATOM     10  C   LIG    1       24.233 -18.502   3.989  0.00  0.00    +0.012 A 
ATOM     11  C   LIG    1       24.491 -17.161   3.772  0.00  0.00    +0.029 A 
ENDROOT
BRANCH   3  12
ATOM     12  C   LIG    1       26.528 -14.217   3.950  0.00  0.00    -0.029 A 
ATOM     13  C   LIG    1       27.671 -13.763   3.268  0.00  0.00    +0.005 A 
ATOM     14  C   LIG    1       28.636 -12.991   3.918  0.00  0.00    +0.000 A 
ATOM     15  C   LIG    1       28.474 -12.658   5.258  0.00  0.00    +0.000 A 
ATOM     16  C   LIG    1       27.347 -13.095   5.949  0.00  0.00    +0.000 A 
ATOM     17  C   LIG    1       26.379 -13.866   5.300  0.00  0.00    +0.005 A 
ENDBRANCH   3  12
TORSDOF 1
ENDMDL
MODEL 5
REMARK VINA RESULT:      -3.0      2.389      6.156
REMARK  Name = *****
REMARK                            x       y       z     vdW  Elec       q    Type
REMARK                         _______ _______ _______ _____ _____    ______ ____
ROOT
ATOM      1  O   LIG    1       27.135 -15.717   3.142  0.00  0.00    -0.291 OA
ATOM      2  C   LIG    1       26.039 -15.285   3.457  0.00  0.00    +0.179 C 
ATOM      3  C   LIG    1       25.006 -15.924   4.375  0.00  0.00    +0.161 C 
ATOM      4  C   LIG    1       23.886 -14.890   4.389  0.00  0.00    +0.179 C 
ATOM      5  O   LIG    1       22.846 -14.919   5.025  0.00  0.00    -0.291 OA
ATOM      6  C   LIG    1       24.262 -13.777   3.521  0.00  0.00    +0.029 A 
ATOM      7  C   LIG    1       23.543 -12.632   3.230  0.00  0.00    +0.012 A 
ATOM      8  C   LIG    1       24.130 -11.702   2.366  0.00  0.00    +0.001 A 
ATOM      9  C   LIG    1       25.407 -11.934   1.818  0.00  0.00    +0.001 A 
ATOM     10  C   LIG    1       26.117 -13.098   2.125  0.00  0.00    +0.012 A 
ATOM     11  C   LIG    1       25.519 -14.005   2.981  0.00  0.00    +0.029 A 
ENDROOT
BRANCH   3  12
ATOM     12  C   LIG    1       24.523 -17.302   3.974  0.00  0.00    -0.029 A 
ATOM     13  C   LIG    1       25.454 -18.219   3.453  0.00  0.00    +0.005 A 
ATOM     14  C   LIG    1       25.065 -19.508   3.085  0.00  0.00    +0.000 A 
ATOM     15  C   LIG    1       23.740 -19.904   3.233  0.00  0.00    +0.000 A 
ATOM     16  C   LIG    1       22.805 -19.012   3.752  0.00  0.00    +0.000 A 
ATOM     17  C   LIG    1       23.193 -17.722   4.123  0.00  0.00    +0.005 A 
ENDBRANCH   3  12
TORSDOF 1
ENDMDL
