MODEL 1
REMARK VINA RESULT:      -5.1      0.000      0.000
REMARK  Name = *****
REMARK                            x       y       z     vdW  Elec       q    Type
REMARK                         _______ _______ _______ _____ _____    ______ ____
ROOT
ATOM      1  C   LIG    1       25.604 -20.493   6.010  0.00  0.00    -0.022 A 
ATOM      2  C   LIG    1       24.710 -20.774   7.053  0.00  0.00    +0.006 A 
ATOM      3  C   LIG    1       23.332 -20.775   6.825  0.00  0.00    +0.000 A 
ATOM      4  C   LIG    1       22.834 -20.486   5.556  0.00  0.00    +0.000 A 
ATOM      5  C   LIG    1       23.712 -20.188   4.516  0.00  0.00    +0.000 A 
ATOM      6  C   LIG    1       25.090 -20.187   4.742  0.00  0.00    +0.006 A 
ENDROOT
BRANCH   1   7
ATOM      7  C   LIG    1       27.085 -20.484   6.256  0.00  0.00    +0.191 C 
BRANCH   7   8
ATOM      8  O   LIG    1       27.754 -20.135   5.054  0.00  0.00    -0.390 OA
ATOM      9  H   LIG    1       27.131 -19.604   4.532  0.00  0.00    +0.210 HD
ENDBRANCH   7   8
ENDBRANCH   1   7
TORSDOF 2
ENDMDL
MODEL 2
REMARK VINA RESULT:      -5.1      0.009      1.707
REMARK  Name = *****
REMARK                            x       y       z     vdW  Elec       q    Type
REMARK                         _______ _______ _______ _____ _____    ______ ____
ROOT
ATOM      1  C   LIG    1       25.604 -20.479   6.017  0.00  0.00    -0.022 A 
ATOM      2  C   LIG    1       25.093 -20.194   4.743  0.00  0.00    +0.006 A 
ATOM      3  C   LIG    1       23.716 -20.191   4.515  0.00  0.00    +0.000 A 
ATOM      4  C   LIG    1       22.836 -20.480   5.557  0.00  0.00    +0.000 A 
ATOM      5  C   LIG    1       23.331 -20.780   6.824  0.00  0.00    +0.000 A 
ATOM      6  C   LIG    1       24.709 -20.784   7.052  0.00  0.00    +0.006 A 
ENDROOT
BRANCH   1   7
ATOM      7  C   LIG    1       27.086 -20.491   6.261  0.00  0.00    +0.191 C 
BRANCH   7   8
ATOM      8  O   LIG    1       27.757 -20.136   5.063  0.00  0.00    -0.390 OA
ATOM      9  H   LIG    1       27.311 -20.609   4.342  0.00  0.00    +0.210 HD
ENDBRANCH   7   8
ENDBRANCH   1   7
TORSDOF 2
ENDMDL
MODEL 3
REMARK VINA RESULT:      -5.1      1.310      2.303
REMARK  Name = *****
REMARK                            x       y       z     vdW  Elec       q    Type
REMARK                         _______ _______ _______ _____ _____    ______ ____
ROOT
ATOM      1  C   LIG    1       24.563 -20.613   5.573  0.00  0.00    -0.022 A 
ATOM      2  C   LIG    1       25.080 -19.998   4.425  0.00  0.00    +0.006 A 
ATOM      3  C   LIG    1       24.298 -19.113   3.681  0.00  0.00    +0.000 A 
ATOM      4  C   LIG    1       22.988 -18.841   4.072  0.00  0.00    +0.000 A 
ATOM      5  C   LIG    1       22.457 -19.458   5.203  0.00  0.00    +0.000 A 
ATOM      6  C   LIG    1       23.239 -20.344   5.948  0.00  0.00    +0.006 A 
ENDROOT
BRANCH   1   7
ATOM      7  C   LIG    1       25.401 -21.571   6.370  0.00  0.00    +0.191 C 
BRANCH   7   8
ATOM      8  O   LIG    1       26.773 -21.296   6.134  0.00  0.00    -0.390 OA
ATOM      9  H   LIG    1       27.268 -21.694   6.868  0.00  0.00    +0.210 HD
ENDBRANCH   7   8
ENDBRANCH   1   7
TORSDOF 2
ENDMDL
MODEL 4
REMARK VINA RESULT:      -4.9      7.100      7.679
REMARK  Name = *****
REMARK                            x       y       z     vdW  Elec       q    Type
REMARK                         _______ _______ _______ _____ _____    ______ ____
ROOT
ATOM      1  C   LIG    1       26.581 -13.697   3.624  0.00  0.00    -0.022 A 
ATOM      2  C   LIG    1       26.190 -13.295   2.339  0.00  0.00    +0.006 A 
ATOM      3  C   LIG    1       24.865 -12.945   2.078  0.00  0.00    +0.000 A 
ATOM      4  C   LIG    1       23.914 -13.001   3.096  0.00  0.00    +0.000 A 
ATOM      5  C   LIG    1       24.287 -13.415   4.373  0.00  0.00    +0.000 A 
ATOM      6  C   LIG    1       25.613 -13.765   4.636  0.00  0.00    +0.006 A 
ENDROOT
BRANCH   1   7
ATOM      7  C   LIG    1       28.006 -14.082   3.904  0.00  0.00    +0.191 C 
BRANCH   7   8
ATOM      8  O   LIG    1       28.865 -13.056   3.433  0.00  0.00    -0.390 OA
ATOM      9  H   LIG    1       28.729 -12.997   2.473  0.00  0.00    +0.210 HD
ENDBRANCH   7   8
ENDBRANCH   1   7
TORSDOF 2
ENDMDL
MODEL 5
REMARK VINA RESULT:      -4.9      7.089      7.495
REMARK  Name = *****
REMARK                            x       y       z     vdW  Elec       q    Type
REMARK                         _______ _______ _______ _____ _____    ______ ____
ROOT
ATOM      1  C   LIG    1       26.574 -13.699   3.609  0.00  0.00    -0.022 A 
ATOM      2  C   LIG    1       25.584 -13.792   4.597  0.00  0.00    +0.006 A 
ATOM      3  C   LIG    1       24.258 -13.468   4.305  0.00  0.00    +0.000 A 
ATOM      4  C   LIG    1       23.909 -13.038   3.025  0.00  0.00    +0.000 A 
ATOM      5  C   LIG    1       24.887 -12.926   2.039  0.00  0.00    +0.000 A 
ATOM      6  C   LIG    1       26.214 -13.250   2.330  0.00  0.00    +0.006 A 
ENDROOT
BRANCH   1   7
ATOM      7  C   LIG    1       28.002 -14.041   3.924  0.00  0.00    +0.191 C 
BRANCH   7   8
ATOM      8  O   LIG    1       28.851 -13.060   3.351  0.00  0.00    -0.390 OA
ATOM      9  H   LIG    1       28.945 -13.286   2.412  0.00  0.00    +0.210 HD
ENDBRANCH   7   8
ENDBRANCH   1   7
TORSDOF 2
ENDMDL
MODEL 6
REMARK VINA RESULT:      -4.8      6.771      7.256
REMARK  Name = *****
REMARK                            x       y       z     vdW  Elec       q    Type
REMARK                         _______ _______ _______ _____ _____    ______ ____
ROOT
ATOM      1  C   LIG    1       25.783 -14.311   3.361  0.00  0.00    -0.022 A 
ATOM      2  C   LIG    1       24.941 -14.003   4.439  0.00  0.00    +0.006 A 
ATOM      3  C   LIG    1       24.046 -12.935   4.357  0.00  0.00    +0.000 A 
ATOM      4  C   LIG    1       23.991 -12.158   3.202  0.00  0.00    +0.000 A 
ATOM      5  C   LIG    1       24.834 -12.443   2.130  0.00  0.00    +0.000 A 
ATOM      6  C   LIG    1       25.730 -13.511   2.211  0.00  0.00    +0.006 A 
ENDROOT
BRANCH   1   7
ATOM      7  C   LIG    1       26.752 -15.455   3.452  0.00  0.00    +0.191 C 
BRANCH   7   8
ATOM      8  O   LIG    1       27.948 -15.004   4.066  0.00  0.00    -0.390 OA
ATOM      9  H   LIG    1       28.683 -15.341   3.528  0.00  0.00    +0.210 HD
ENDBRANCH   7   8
ENDBRANCH   1   7
TORSDOF 2
ENDMDL
MODEL 7
REMARK VINA RESULT:      -4.8      1.281      2.210
REMARK  Name = *****
REMARK                            x       y       z     vdW  Elec       q    Type
REMARK                         _______ _______ _______ _____ _____    ______ ____
ROOT
ATOM      1  C   LIG    1       24.720 -20.078   4.606  0.00  0.00    -0.022 A 
ATOM      2  C   LIG    1       25.516 -20.543   5.662  0.00  0.00    +0.006 A 
ATOM      3  C   LIG    1       24.939 -20.901   6.881  0.00  0.00    +0.000 A 
ATOM      4  C   LIG    1       23.561 -20.789   7.061  0.00  0.00    +0.000 A 
ATOM      5  C   LIG    1       22.761 -20.312   6.025  0.00  0.00    +0.000 A 
ATOM      6  C   LIG    1       23.338 -19.953   4.805  0.00  0.00    +0.006 A 
ENDROOT
BRANCH   1   7
ATOM      7  C   LIG    1       25.341 -19.685   3.297  0.00  0.00    +0.191 C 
BRANCH   7   8
ATOM      8  O   LIG    1       25.886 -18.380   3.413  0.00  0.00    -0.390 OA
ATOM      9  H   LIG    1       26.627 -18.442   4.037  0.00  0.00    +0.210 HD
ENDBRANCH   7   8
ENDBRANCH   1   7
TORSDOF 2
ENDMDL
MODEL 8
REMARK VINA RESULT:      -4.7      1.327      2.402
REMARK  Name = *****
REMARK                            x       y       z     vdW  Elec       q    Type
REMARK                         _______ _______ _______ _____ _____    ______ ____
ROOT
ATOM      1  C   LIG    1       24.589 -20.065   4.576  0.00  0.00    -0.022 A 
ATOM      2  C   LIG    1       23.220 -19.921   4.841  0.00  0.00    +0.006 A 
ATOM      3  C   LIG    1       22.694 -20.292   6.079  0.00  0.00    +0.000 A 
ATOM      4  C   LIG    1       23.528 -20.821   7.062  0.00  0.00    +0.000 A 
ATOM      5  C   LIG    1       24.888 -20.985   6.805  0.00  0.00    +0.000 A 
ATOM      6  C   LIG    1       25.416 -20.613   5.567  0.00  0.00    +0.006 A 
ENDROOT
BRANCH   1   7
ATOM      7  C   LIG    1       25.155 -19.672   3.241  0.00  0.00    +0.191 C 
BRANCH   7   8
ATOM      8  O   LIG    1       25.854 -18.445   3.376  0.00  0.00    -0.390 OA
ATOM      9  H   LIG    1       26.801 -18.658   3.345  0.00  0.00    +0.210 HD
ENDBRANCH   7   8
ENDBRANCH   1   7
TORSDOF 2
ENDMDL
MODEL 9
REMARK VINA RESULT:      -4.6      7.598      8.320
REMARK  Name = *****
REMARK                            x       y       z     vdW  Elec       q    Type
REMARK                         _______ _______ _______ _____ _____    ______ ____
ROOT
ATOM      1  C   LIG    1       25.186 -13.095   3.566  0.00  0.00    -0.022 A 
ATOM      2  C   LIG    1       25.899 -13.558   2.453  0.00  0.00    +0.006 A 
ATOM      3  C   LIG    1       27.143 -14.172   2.612  0.00  0.00    +0.000 A 
ATOM      4  C   LIG    1       27.691 -14.319   3.885  0.00  0.00    +0.000 A 
ATOM      5  C   LIG    1       26.999 -13.847   4.998  0.00  0.00    +0.000 A 
ATOM      6  C   LIG    1       25.755 -13.234   4.840  0.00  0.00    +0.006 A 
ENDROOT
BRANCH   1   7
ATOM      7  C   LIG    1       23.851 -12.428   3.395  0.00  0.00    +0.191 C 
BRANCH   7   8
ATOM      8  O   LIG    1       23.836 -11.728   2.162  0.00  0.00    -0.390 OA
ATOM      9  H   LIG    1       24.724 -11.816   1.779  0.00  0.00    +0.210 HD
ENDBRANCH   7   8
ENDBRANCH   1   7
TORSDOF 2
ENDMDL
