MODEL 1
REMARK VINA RESULT:      -4.6      0.000      0.000
REMARK  Name = *****
REMARK                            x       y       z     vdW  Elec       q    Type
REMARK                         _______ _______ _______ _____ _____    ______ ____
ROOT
ATOM      1  C   LIG    1       24.650 -17.417   3.600  0.00  0.00    +0.128 A 
ATOM      2  C   LIG    1       24.454 -16.088   3.976  0.00  0.00    +0.054 A 
ATOM      3  C   LIG    1       23.210 -15.639   4.445  0.00  0.00    -0.018 A 
ATOM      4  C   LIG    1       22.165 -16.554   4.574  0.00  0.00    +0.053 A 
ATOM      5  C   LIG    1       22.361 -17.882   4.220  0.00  0.00    +0.121 A 
ATOM      6  C   LIG    1       23.595 -18.332   3.738  0.00  0.00    +0.091 A 
ENDROOT
BRANCH   3   7
ATOM      7  C   LIG    1       23.029 -14.234   4.810  0.00  0.00    +0.009 C 
ATOM      8  C   LIG    1       23.953 -13.240   4.816  0.00  0.00    +0.008 C 
BRANCH   8   9
ATOM      9  C   LIG    1       25.380 -13.286   4.460  0.00  0.00    -0.025 A 
ATOM     10  C   LIG    1       25.733 -13.298   3.097  0.00  0.00    +0.011 A 
ATOM     11  C   LIG    1       27.074 -13.306   2.708  0.00  0.00    +0.046 A 
ATOM     12  C   LIG    1       28.074 -13.339   3.677  0.00  0.00    +0.117 A 
ATOM     13  C   LIG    1       27.744 -13.388   5.026  0.00  0.00    +0.046 A 
ATOM     14  C   LIG    1       26.403 -13.378   5.409  0.00  0.00    +0.011 A 
BRANCH  12  15
ATOM     15  O   LIG    1       29.371 -13.325   3.266  0.00  0.00    -0.507 OA
ATOM     16  H   LIG    1       29.464 -13.948   2.525  0.00  0.00    +0.292 HD
ENDBRANCH  12  15
ENDBRANCH   8   9
ENDBRANCH   3   7
BRANCH   5  17
ATOM     17  O   LIG    1       21.293 -18.723   4.356  0.00  0.00    -0.507 OA
ATOM     18  H   LIG    1       20.858 -18.826   3.494  0.00  0.00    +0.292 HD
ENDBRANCH   5  17
BRANCH   1  19
ATOM     19  O   LIG    1       25.830 -17.905   3.069  0.00  0.00    -0.461 OA
BRANCH  19  24
ATOM     20  C   LIG    1       25.760 -20.886   5.193  0.00  0.00    +0.179 C 
ATOM     21  C   LIG    1       26.727 -20.454   6.293  0.00  0.00    +0.177 C 
ATOM     22  C   LIG    1       27.921 -19.735   5.666  0.00  0.00    +0.180 C 
ATOM     23  C   LIG    1       27.472 -18.567   4.772  0.00  0.00    +0.214 C 
ATOM     24  C   LIG    1       26.392 -19.045   3.765  0.00  0.00    +0.339 C 
ATOM     25  O   LIG    1       25.356 -19.734   4.467  0.00  0.00    -0.331 OA
BRANCH  21  26
ATOM     26  O   LIG    1       27.179 -21.572   7.062  0.00  0.00    -0.387 OA
ATOM     27  H   LIG    1       27.346 -21.211   7.958  0.00  0.00    +0.210 HD
ENDBRANCH  21  26
BRANCH  22  28
ATOM     28  O   LIG    1       28.768 -19.267   6.728  0.00  0.00    -0.386 OA
ATOM     29  H   LIG    1       28.529 -18.330   6.879  0.00  0.00    +0.210 HD
ENDBRANCH  22  28
BRANCH  23  30
ATOM     30  O   LIG    1       28.646 -18.008   4.154  0.00  0.00    -0.383 OA
ATOM     31  H   LIG    1       28.404 -17.643   3.284  0.00  0.00    +0.210 HD
ENDBRANCH  23  30
BRANCH  20  32
ATOM     32  C   LIG    1       24.487 -21.517   5.777  0.00  0.00    +0.190 C 
BRANCH  32  33
ATOM     33  O   LIG    1       23.996 -20.830   6.919  0.00  0.00    -0.392 OA
ATOM     34  H   LIG    1       23.694 -19.949   6.616  0.00  0.00    +0.209 HD
ENDBRANCH  32  33
ENDBRANCH  20  32
ENDBRANCH  19  24
ENDBRANCH   1  19
TORSDOF 11
ENDMDL
MODEL 2
REMARK VINA RESULT:      -2.5      1.903      6.849
REMARK  Name = *****
REMARK                            x       y       z     vdW  Elec       q    Type
REMARK                         _______ _______ _______ _____ _____    ______ ____
ROOT
ATOM      1  C   LIG    1       27.219 -18.020   4.232  0.00  0.00    +0.128 A 
ATOM      2  C   LIG    1       26.462 -19.191   4.271  0.00  0.00    +0.054 A 
ATOM      3  C   LIG    1       26.726 -20.199   5.212  0.00  0.00    -0.018 A 
ATOM      4  C   LIG    1       27.741 -20.000   6.148  0.00  0.00    +0.053 A 
ATOM      5  C   LIG    1       28.484 -18.827   6.126  0.00  0.00    +0.121 A 
ATOM      6  C   LIG    1       28.234 -17.827   5.181  0.00  0.00    +0.091 A 
ENDROOT
BRANCH   3   7
ATOM      7  C   LIG    1       25.930 -21.425   5.213  0.00  0.00    +0.009 C 
ATOM      8  C   LIG    1       24.608 -21.572   4.943  0.00  0.00    +0.008 C 
BRANCH   8   9
ATOM      9  C   LIG    1       23.610 -20.555   4.572  0.00  0.00    -0.025 A 
ATOM     10  C   LIG    1       22.252 -20.825   4.822  0.00  0.00    +0.011 A 
ATOM     11  C   LIG    1       21.270 -19.878   4.521  0.00  0.00    +0.046 A 
ATOM     12  C   LIG    1       21.635 -18.669   3.933  0.00  0.00    +0.117 A 
ATOM     13  C   LIG    1       22.964 -18.409   3.625  0.00  0.00    +0.046 A 
ATOM     14  C   LIG    1       23.940 -19.357   3.929  0.00  0.00    +0.011 A 
BRANCH  12  15
ATOM     15  O   LIG    1       20.657 -17.759   3.671  0.00  0.00    -0.507 OA
ATOM     16  H   LIG    1       20.344 -17.900   2.762  0.00  0.00    +0.292 HD
ENDBRANCH  12  15
ENDBRANCH   8   9
ENDBRANCH   3   7
BRANCH   5  17
ATOM     17  O   LIG    1       29.472 -18.702   7.060  0.00  0.00    -0.507 OA
ATOM     18  H   LIG    1       30.207 -18.196   6.679  0.00  0.00    +0.292 HD
ENDBRANCH   5  17
BRANCH   1  19
ATOM     19  O   LIG    1       27.051 -17.021   3.290  0.00  0.00    -0.461 OA
BRANCH  19  24
ATOM     20  C   LIG    1       24.380 -14.679   4.173  0.00  0.00    +0.179 C 
ATOM     21  C   LIG    1       24.773 -13.485   3.305  0.00  0.00    +0.177 C 
ATOM     22  C   LIG    1       26.289 -13.296   3.357  0.00  0.00    +0.180 C 
ATOM     23  C   LIG    1       27.033 -14.586   2.972  0.00  0.00    +0.214 C 
ATOM     24  C   LIG    1       26.494 -15.784   3.797  0.00  0.00    +0.339 C 
ATOM     25  O   LIG    1       25.069 -15.828   3.701  0.00  0.00    -0.331 OA
BRANCH  21  26
ATOM     26  O   LIG    1       24.117 -12.289   3.731  0.00  0.00    -0.387 OA
ATOM     27  H   LIG    1       23.160 -12.473   3.624  0.00  0.00    +0.210 HD
ENDBRANCH  21  26
BRANCH  22  28
ATOM     28  O   LIG    1       26.635 -12.223   2.466  0.00  0.00    -0.386 OA
ATOM     29  H   LIG    1       27.286 -12.589   1.834  0.00  0.00    +0.210 HD
ENDBRANCH  22  28
BRANCH  23  30
ATOM     30  O   LIG    1       28.443 -14.346   3.136  0.00  0.00    -0.383 OA
ATOM     31  H   LIG    1       28.921 -15.191   3.055  0.00  0.00    +0.210 HD
ENDBRANCH  23  30
BRANCH  20  32
ATOM     32  C   LIG    1       22.878 -14.981   4.069  0.00  0.00    +0.190 C 
BRANCH  32  33
ATOM     33  O   LIG    1       22.345 -15.573   5.246  0.00  0.00    -0.392 OA
ATOM     34  H   LIG    1       21.976 -14.847   5.791  0.00  0.00    +0.209 HD
ENDBRANCH  32  33
ENDBRANCH  20  32
ENDBRANCH  19  24
ENDBRANCH   1  19
TORSDOF 11
ENDMDL
MODEL 3
REMARK VINA RESULT:      -2.3      2.096      6.158
REMARK  Name = *****
REMARK                            x       y       z     vdW  Elec       q    Type
REMARK                         _______ _______ _______ _____ _____    ______ ____
ROOT
ATOM      1  C   LIG    1       22.316 -17.471   4.542  0.00  0.00    +0.128 A 
ATOM      2  C   LIG    1       22.646 -18.700   5.115  0.00  0.00    +0.054 A 
ATOM      3  C   LIG    1       21.880 -19.849   4.865  0.00  0.00    -0.018 A 
ATOM      4  C   LIG    1       20.795 -19.763   3.994  0.00  0.00    +0.053 A 
ATOM      5  C   LIG    1       20.475 -18.547   3.405  0.00  0.00    +0.121 A 
ATOM      6  C   LIG    1       21.225 -17.395   3.663  0.00  0.00    +0.091 A 
ENDROOT
BRANCH   3   7
ATOM      7  C   LIG    1       22.238 -21.118   5.499  0.00  0.00    +0.009 C 
ATOM      8  C   LIG    1       23.471 -21.572   5.838  0.00  0.00    +0.008 C 
BRANCH   8   9
ATOM      9  C   LIG    1       24.784 -20.927   5.673  0.00  0.00    -0.025 A 
ATOM     10  C   LIG    1       25.639 -20.847   6.788  0.00  0.00    +0.011 A 
ATOM     11  C   LIG    1       26.908 -20.277   6.674  0.00  0.00    +0.046 A 
ATOM     12  C   LIG    1       27.320 -19.749   5.453  0.00  0.00    +0.117 A 
ATOM     13  C   LIG    1       26.468 -19.766   4.356  0.00  0.00    +0.046 A 
ATOM     14  C   LIG    1       25.202 -20.338   4.475  0.00  0.00    +0.011 A 
BRANCH  12  15
ATOM     15  O   LIG    1       28.572 -19.219   5.369  0.00  0.00    -0.507 OA
ATOM     16  H   LIG    1       29.216 -19.941   5.463  0.00  0.00    +0.292 HD
ENDBRANCH  12  15
ENDBRANCH   8   9
ENDBRANCH   3   7
BRANCH   5  17
ATOM     17  O   LIG    1       19.391 -18.527   2.574  0.00  0.00    -0.507 OA
ATOM     18  H   LIG    1       18.941 -19.386   2.618  0.00  0.00    +0.292 HD
ENDBRANCH   5  17
BRANCH   1  19
ATOM     19  O   LIG    1       22.989 -16.291   4.800  0.00  0.00    -0.461 OA
BRANCH  19  24
ATOM     20  C   LIG    1       26.235 -15.965   3.139  0.00  0.00    +0.179 C 
ATOM     21  C   LIG    1       26.355 -14.444   3.083  0.00  0.00    +0.177 C 
ATOM     22  C   LIG    1       25.003 -13.840   2.703  0.00  0.00    +0.180 C 
ATOM     23  C   LIG    1       23.886 -14.317   3.646  0.00  0.00    +0.214 C 
ATOM     24  C   LIG    1       23.904 -15.865   3.761  0.00  0.00    +0.339 C 
ATOM     25  O   LIG    1       25.225 -16.305   4.079  0.00  0.00    -0.331 OA
BRANCH  21  26
ATOM     26  O   LIG    1       27.355 -14.031   2.147  0.00  0.00    -0.387 OA
ATOM     27  H   LIG    1       27.139 -13.098   1.942  0.00  0.00    +0.210 HD
ENDBRANCH  21  26
BRANCH  22  28
ATOM     28  O   LIG    1       25.127 -12.409   2.742  0.00  0.00    -0.386 OA
ATOM     29  H   LIG    1       24.668 -12.071   1.947  0.00  0.00    +0.210 HD
ENDBRANCH  22  28
BRANCH  23  30
ATOM     30  O   LIG    1       22.642 -13.778   3.162  0.00  0.00    -0.383 OA
ATOM     31  H   LIG    1       21.921 -14.059   3.755  0.00  0.00    +0.210 HD
ENDBRANCH  23  30
BRANCH  20  32
ATOM     32  C   LIG    1       27.538 -16.616   3.625  0.00  0.00    +0.190 C 
BRANCH  32  33
ATOM     33  O   LIG    1       28.288 -15.783   4.498  0.00  0.00    -0.392 OA
ATOM     34  H   LIG    1       27.691 -15.524   5.231  0.00  0.00    +0.209 HD
ENDBRANCH  32  33
ENDBRANCH  20  32
ENDBRANCH  19  24
ENDBRANCH   1  19
TORSDOF 11
ENDMDL
