MODEL 1
REMARK VINA RESULT:       3.6      0.000      0.000
REMARK  Name = *****
REMARK                            x       y       z     vdW  Elec       q    Type
REMARK                         _______ _______ _______ _____ _____    ______ ____
ROOT
ATOM      1  C   LIG    1       22.967 -14.325   4.466  0.00  0.00    +0.044 C 
ATOM      2  C   LIG    1       23.988 -13.548   5.313  0.00  0.00    +0.006 C 
ATOM      3  C   LIG    1       23.852 -12.104   4.828  0.00  0.00    -0.001 C 
ATOM      4  C   LIG    1       25.198 -11.449   5.106  0.00  0.00    +0.034 C 
ATOM      5  C   LIG    1       26.181 -12.588   5.150  0.00  0.00    -0.073 C 
ATOM      6  C   LIG    1       27.508 -12.395   5.249  0.00  0.00    -0.027 C 
ATOM      7  C   LIG    1       23.482 -12.181   3.345  0.00  0.00    +0.036 C 
ATOM      8  C   LIG    1       25.466 -13.914   5.137  0.00  0.00    +0.035 C 
ATOM      9  C   LIG    1       22.932 -13.589   3.102  0.00  0.00    +0.122 C 
ENDROOT
BRANCH   1  11
ATOM     10  C   LIG    1       22.159 -16.708   4.427  0.00  0.00    +0.000 C 
ATOM     11  C   LIG    1       23.168 -15.820   4.410  0.00  0.00    -0.022 C 
BRANCH  10  12
ATOM     12  C   LIG    1       22.334 -18.202   4.376  0.00  0.00    +0.141 C 
BRANCH  12  13
ATOM     13  C   LIG    1       21.248 -18.914   3.535  0.00  0.00    +0.030 C 
ATOM     14  C   LIG    1       19.936 -18.111   3.500  0.00  0.00    +0.011 C 
BRANCH  13  15
ATOM     15  C   LIG    1       21.003 -20.343   4.063  0.00  0.00    +0.095 C 
BRANCH  15  18
ATOM     16  C   LIG    1       24.296 -21.368   6.345  0.00  0.00    +0.106 C 
ATOM     17  C   LIG    1       23.099 -21.106   5.534  0.00  0.00    -0.106 C 
ATOM     18  C   LIG    1       22.147 -20.818   4.880  0.00  0.00    -0.102 C 
ENDBRANCH  15  18
ENDBRANCH  13  15
ENDBRANCH  12  13
BRANCH  12  19
ATOM     19  O   LIG    1       22.300 -18.681   5.719  0.00  0.00    -0.388 OA
ATOM     20  H   LIG    1       22.892 -18.107   6.236  0.00  0.00    +0.210 HD
ENDBRANCH  12  19
ENDBRANCH  10  12
ENDBRANCH   1  11
BRANCH   9  21
ATOM     21  O   LIG    1       23.698 -14.226   2.084  0.00  0.00    -0.391 OA
ATOM     22  H   LIG    1       23.224 -14.132   1.240  0.00  0.00    +0.210 HD
ENDBRANCH   9  21
BRANCH   6  23
ATOM     23  C   LIG    1       28.524 -13.483   5.465  0.00  0.00    +0.028 C 
BRANCH  23  24
ATOM     24  C   LIG    1       29.187 -13.937   4.156  0.00  0.00    +0.015 C 
BRANCH  24  25
ATOM     25  C   LIG    1       28.436 -13.433   2.926  0.00  0.00    +0.121 C 
BRANCH  25  26
ATOM     26  C   LIG    1       27.346 -14.387   2.516  0.00  0.00    +0.307 C 
ATOM     27  O   LIG    1       26.366 -14.078   1.852  0.00  0.00    -0.251 OA
BRANCH  26  28
ATOM     28  O   LIG    1       27.605 -15.633   2.999  0.00  0.00    -0.457 OA
BRANCH  28  29
ATOM     29  C   LIG    1       26.476 -16.258   3.607  0.00  0.00    +0.311 C 
BRANCH  29  30
ATOM     30  C   LIG    1       26.562 -17.788   3.571  0.00  0.00    +0.200 C 
ATOM     31  O   LIG    1       25.908 -18.465   2.775  0.00  0.00    -0.288 OA
BRANCH  30  32
ATOM     32  C   LIG    1       27.419 -18.475   4.580  0.00  0.00    +0.021 A 
ATOM     33  C   LIG    1       28.646 -17.906   4.953  0.00  0.00    +0.011 A 
ATOM     34  C   LIG    1       29.462 -18.556   5.886  0.00  0.00    +0.001 A 
ATOM     35  C   LIG    1       29.049 -19.759   6.459  0.00  0.00    +0.000 A 
ATOM     36  C   LIG    1       27.821 -20.310   6.111  0.00  0.00    +0.001 A 
ATOM     37  C   LIG    1       27.007 -19.669   5.179  0.00  0.00    +0.011 A 
ENDBRANCH  30  32
ENDBRANCH  29  30
ENDBRANCH  28  29
ENDBRANCH  26  28
ENDBRANCH  25  26
ENDBRANCH  24  25
ENDBRANCH  23  24
ENDBRANCH   6  23
TORSDOF 15
ENDMDL
MODEL 2
REMARK VINA RESULT:       3.7      1.752      6.794
REMARK  Name = *****
REMARK                            x       y       z     vdW  Elec       q    Type
REMARK                         _______ _______ _______ _____ _____    ______ ____
ROOT
ATOM      1  C   LIG    1       24.665 -21.105   5.295  0.00  0.00    +0.044 C 
ATOM      2  C   LIG    1       23.564 -20.090   5.639  0.00  0.00    +0.006 C 
ATOM      3  C   LIG    1       22.341 -20.593   4.872  0.00  0.00    -0.001 C 
ATOM      4  C   LIG    1       21.474 -19.366   4.627  0.00  0.00    +0.034 C 
ATOM      5  C   LIG    1       22.426 -18.202   4.690  0.00  0.00    -0.073 C 
ATOM      6  C   LIG    1       22.051 -16.944   4.395  0.00  0.00    -0.027 C 
ATOM      7  C   LIG    1       22.873 -21.254   3.597  0.00  0.00    +0.036 C 
ATOM      8  C   LIG    1       23.780 -18.642   5.182  0.00  0.00    +0.035 C 
ATOM      9  C   LIG    1       24.349 -21.571   3.850  0.00  0.00    +0.122 C 
ENDROOT
BRANCH   1  11
ATOM     10  C   LIG    1       26.733 -20.852   6.708  0.00  0.00    +0.000 C 
ATOM     11  C   LIG    1       26.081 -20.646   5.551  0.00  0.00    -0.022 C 
BRANCH  10  12
ATOM     12  C   LIG    1       28.141 -20.401   6.988  0.00  0.00    +0.141 C 
BRANCH  12  13
ATOM     13  C   LIG    1       28.697 -19.439   5.911  0.00  0.00    +0.030 C 
ATOM     14  C   LIG    1       29.218 -18.130   6.528  0.00  0.00    +0.011 C 
BRANCH  13  15
ATOM     15  C   LIG    1       27.626 -19.151   4.837  0.00  0.00    +0.095 C 
BRANCH  15  18
ATOM     16  C   LIG    1       27.628 -15.288   3.359  0.00  0.00    +0.106 C 
ATOM     17  C   LIG    1       27.732 -16.653   3.895  0.00  0.00    -0.106 C 
ATOM     18  C   LIG    1       27.739 -17.763   4.324  0.00  0.00    -0.102 C 
ENDBRANCH  15  18
ENDBRANCH  13  15
ENDBRANCH  12  13
BRANCH  12  19
ATOM     19  O   LIG    1       28.955 -21.570   7.062  0.00  0.00    -0.388 OA
ATOM     20  H   LIG    1       29.052 -21.785   8.006  0.00  0.00    +0.210 HD
ENDBRANCH  12  19
ENDBRANCH  10  12
ENDBRANCH   1  11
BRANCH   9  21
ATOM     21  O   LIG    1       25.146 -20.936   2.854  0.00  0.00    -0.391 OA
ATOM     22  H   LIG    1       25.744 -21.601   2.473  0.00  0.00    +0.210 HD
ENDBRANCH   9  21
BRANCH   6  23
ATOM     23  C   LIG    1       22.902 -15.721   4.598  0.00  0.00    +0.028 C 
BRANCH  23  24
ATOM     24  C   LIG    1       24.354 -15.933   4.143  0.00  0.00    +0.015 C 
BRANCH  24  25
ATOM     25  C   LIG    1       24.764 -14.948   3.051  0.00  0.00    +0.121 C 
BRANCH  25  26
ATOM     26  C   LIG    1       23.686 -13.927   2.796  0.00  0.00    +0.307 C 
ATOM     27  O   LIG    1       22.506 -14.077   3.080  0.00  0.00    -0.251 OA
BRANCH  26  28
ATOM     28  O   LIG    1       24.216 -12.825   2.197  0.00  0.00    -0.457 OA
BRANCH  28  29
ATOM     29  C   LIG    1       24.022 -11.622   2.937  0.00  0.00    +0.311 C 
BRANCH  29  30
ATOM     30  C   LIG    1       24.359 -11.786   4.424  0.00  0.00    +0.200 C 
ATOM     31  O   LIG    1       23.576 -11.457   5.316  0.00  0.00    -0.288 OA
BRANCH  30  32
ATOM     32  C   LIG    1       25.709 -12.302   4.791  0.00  0.00    +0.021 A 
ATOM     33  C   LIG    1       25.871 -13.053   5.964  0.00  0.00    +0.011 A 
ATOM     34  C   LIG    1       27.139 -13.523   6.323  0.00  0.00    +0.001 A 
ATOM     35  C   LIG    1       28.240 -13.262   5.507  0.00  0.00    +0.000 A 
ATOM     36  C   LIG    1       28.076 -12.540   4.329  0.00  0.00    +0.001 A 
ATOM     37  C   LIG    1       26.816 -12.066   3.970  0.00  0.00    +0.011 A 
ENDBRANCH  30  32
ENDBRANCH  29  30
ENDBRANCH  28  29
ENDBRANCH  26  28
ENDBRANCH  25  26
ENDBRANCH  24  25
ENDBRANCH  23  24
ENDBRANCH   6  23
TORSDOF 15
ENDMDL
MODEL 3
REMARK VINA RESULT:       4.8      1.610      7.076
REMARK  Name = *****
REMARK                            x       y       z     vdW  Elec       q    Type
REMARK                         _______ _______ _______ _____ _____    ______ ____
ROOT
ATOM      1  C   LIG    1       23.893 -21.287   5.550  0.00  0.00    +0.044 C 
ATOM      2  C   LIG    1       22.713 -20.305   5.638  0.00  0.00    +0.006 C 
ATOM      3  C   LIG    1       21.855 -20.646   4.419  0.00  0.00    -0.001 C 
ATOM      4  C   LIG    1       21.096 -19.371   4.080  0.00  0.00    +0.034 C 
ATOM      5  C   LIG    1       21.931 -18.259   4.657  0.00  0.00    -0.073 C 
ATOM      6  C   LIG    1       21.650 -16.960   4.450  0.00  0.00    -0.027 C 
ATOM      7  C   LIG    1       22.821 -21.114   3.328  0.00  0.00    +0.036 C 
ATOM      8  C   LIG    1       23.036 -18.811   5.520  0.00  0.00    +0.035 C 
ATOM      9  C   LIG    1       24.121 -21.510   4.033  0.00  0.00    +0.122 C 
ENDROOT
BRANCH   1  11
ATOM     10  C   LIG    1       26.254 -20.456   5.817  0.00  0.00    +0.000 C 
ATOM     11  C   LIG    1       25.113 -20.915   6.359  0.00  0.00    -0.022 C 
BRANCH  10  12
ATOM     12  C   LIG    1       27.483 -20.082   6.601  0.00  0.00    +0.141 C 
BRANCH  12  13
ATOM     13  C   LIG    1       28.509 -19.271   5.775  0.00  0.00    +0.030 C 
ATOM     14  C   LIG    1       29.474 -20.188   5.004  0.00  0.00    +0.011 C 
BRANCH  13  15
ATOM     15  C   LIG    1       29.286 -18.295   6.683  0.00  0.00    +0.095 C 
BRANCH  15  18
ATOM     16  C   LIG    1       27.985 -14.469   5.802  0.00  0.00    +0.106 C 
ATOM     17  C   LIG    1       28.466 -15.795   6.213  0.00  0.00    -0.106 C 
ATOM     18  C   LIG    1       28.839 -16.895   6.475  0.00  0.00    -0.102 C 
ENDBRANCH  15  18
ENDBRANCH  13  15
ENDBRANCH  12  13
BRANCH  12  19
ATOM     19  O   LIG    1       28.078 -21.294   7.060  0.00  0.00    -0.388 OA
ATOM     20  H   LIG    1       27.355 -21.853   7.394  0.00  0.00    +0.210 HD
ENDBRANCH  12  19
ENDBRANCH  10  12
ENDBRANCH   1  11
BRANCH   9  21
ATOM     21  O   LIG    1       25.200 -20.751   3.496  0.00  0.00    -0.391 OA
ATOM     22  H   LIG    1       25.837 -21.368   3.096  0.00  0.00    +0.210 HD
ENDBRANCH   9  21
BRANCH   6  23
ATOM     23  C   LIG    1       22.339 -15.810   5.129  0.00  0.00    +0.028 C 
BRANCH  23  24
ATOM     24  C   LIG    1       23.778 -15.608   4.629  0.00  0.00    +0.015 C 
BRANCH  24  25
ATOM     25  C   LIG    1       24.058 -16.394   3.352  0.00  0.00    +0.121 C 
BRANCH  25  26
ATOM     26  C   LIG    1       25.459 -16.947   3.339  0.00  0.00    +0.307 C 
ATOM     27  O   LIG    1       25.741 -18.121   3.143  0.00  0.00    -0.251 OA
BRANCH  26  28
ATOM     28  O   LIG    1       26.358 -15.954   3.589  0.00  0.00    -0.457 OA
BRANCH  28  29
ATOM     29  C   LIG    1       26.705 -15.193   2.434  0.00  0.00    +0.311 C 
BRANCH  29  30
ATOM     30  C   LIG    1       26.867 -13.700   2.742  0.00  0.00    +0.200 C 
ATOM     31  O   LIG    1       27.960 -13.133   2.691  0.00  0.00    -0.288 OA
BRANCH  30  32
ATOM     32  C   LIG    1       25.667 -12.932   3.181  0.00  0.00    +0.021 A 
ATOM     33  C   LIG    1       25.356 -12.847   4.546  0.00  0.00    +0.011 A 
ATOM     34  C   LIG    1       24.220 -12.143   4.962  0.00  0.00    +0.001 A 
ATOM     35  C   LIG    1       23.406 -11.510   4.022  0.00  0.00    +0.000 A 
ATOM     36  C   LIG    1       23.728 -11.570   2.670  0.00  0.00    +0.001 A 
ATOM     37  C   LIG    1       24.856 -12.274   2.252  0.00  0.00    +0.011 A 
ENDBRANCH  30  32
ENDBRANCH  29  30
ENDBRANCH  28  29
ENDBRANCH  26  28
ENDBRANCH  25  26
ENDBRANCH  24  25
ENDBRANCH  23  24
ENDBRANCH   6  23
TORSDOF 15
ENDMDL
MODEL 4
REMARK VINA RESULT:       6.2      1.713      6.502
REMARK  Name = *****
REMARK                            x       y       z     vdW  Elec       q    Type
REMARK                         _______ _______ _______ _____ _____    ______ ____
ROOT
ATOM      1  C   LIG    1       24.045 -21.250   5.625  0.00  0.00    +0.044 C 
ATOM      2  C   LIG    1       22.835 -20.306   5.705  0.00  0.00    +0.006 C 
ATOM      3  C   LIG    1       21.994 -20.675   4.482  0.00  0.00    -0.001 C 
ATOM      4  C   LIG    1       21.198 -19.424   4.138  0.00  0.00    +0.034 C 
ATOM      5  C   LIG    1       21.995 -18.286   4.717  0.00  0.00    -0.073 C 
ATOM      6  C   LIG    1       21.675 -16.997   4.507  0.00  0.00    -0.027 C 
ATOM      7  C   LIG    1       22.980 -21.114   3.397  0.00  0.00    +0.036 C 
ATOM      8  C   LIG    1       23.112 -18.802   5.587  0.00  0.00    +0.035 C 
ATOM      9  C   LIG    1       24.288 -21.468   4.110  0.00  0.00    +0.122 C 
ENDROOT
BRANCH   1  11
ATOM     10  C   LIG    1       26.491 -20.744   5.936  0.00  0.00    +0.000 C 
ATOM     11  C   LIG    1       25.249 -20.840   6.439  0.00  0.00    -0.022 C 
BRANCH  10  12
ATOM     12  C   LIG    1       27.706 -20.340   6.728  0.00  0.00    +0.141 C 
BRANCH  12  13
ATOM     13  C   LIG    1       28.557 -19.257   6.025  0.00  0.00    +0.030 C 
ATOM     14  C   LIG    1       29.475 -19.860   4.948  0.00  0.00    +0.011 C 
BRANCH  13  15
ATOM     15  C   LIG    1       29.378 -18.457   7.060  0.00  0.00    +0.095 C 
BRANCH  15  18
ATOM     16  C   LIG    1       28.446 -14.440   6.744  0.00  0.00    +0.106 C 
ATOM     17  C   LIG    1       28.874 -15.843   6.823  0.00  0.00    -0.106 C 
ATOM     18  C   LIG    1       29.151 -16.998   6.914  0.00  0.00    -0.102 C 
ENDBRANCH  15  18
ENDBRANCH  13  15
ENDBRANCH  12  13
BRANCH  12  19
ATOM     19  O   LIG    1       28.488 -21.515   6.934  0.00  0.00    -0.388 OA
ATOM     20  H   LIG    1       29.394 -21.218   7.128  0.00  0.00    +0.210 HD
ENDBRANCH  12  19
ENDBRANCH  10  12
ENDBRANCH   1  11
BRANCH   9  21
ATOM     21  O   LIG    1       25.346 -20.677   3.576  0.00  0.00    -0.391 OA
ATOM     22  H   LIG    1       25.699 -21.128   2.791  0.00  0.00    +0.210 HD
ENDBRANCH   9  21
BRANCH   6  23
ATOM     23  C   LIG    1       22.325 -15.825   5.189  0.00  0.00    +0.028 C 
BRANCH  23  24
ATOM     24  C   LIG    1       23.226 -15.019   4.242  0.00  0.00    +0.015 C 
BRANCH  24  25
ATOM     25  C   LIG    1       23.549 -13.634   4.795  0.00  0.00    +0.121 C 
BRANCH  25  26
ATOM     26  C   LIG    1       23.975 -12.688   3.703  0.00  0.00    +0.307 C 
ATOM     27  O   LIG    1       23.393 -11.651   3.416  0.00  0.00    -0.251 OA
BRANCH  26  28
ATOM     28  O   LIG    1       25.089 -13.162   3.080  0.00  0.00    -0.457 OA
BRANCH  28  29
ATOM     29  C   LIG    1       26.283 -13.002   3.843  0.00  0.00    +0.311 C 
BRANCH  29  30
ATOM     30  C   LIG    1       27.330 -14.077   3.528  0.00  0.00    +0.200 C 
ATOM     31  O   LIG    1       28.491 -13.796   3.228  0.00  0.00    -0.288 OA
BRANCH  30  32
ATOM     32  C   LIG    1       26.900 -15.505   3.524  0.00  0.00    +0.021 A 
ATOM     33  C   LIG    1       25.586 -15.835   3.163  0.00  0.00    +0.011 A 
ATOM     34  C   LIG    1       25.173 -17.172   3.175  0.00  0.00    +0.001 A 
ATOM     35  C   LIG    1       26.072 -18.180   3.528  0.00  0.00    +0.000 A 
ATOM     36  C   LIG    1       27.383 -17.857   3.859  0.00  0.00    +0.001 A 
ATOM     37  C   LIG    1       27.798 -16.526   3.853  0.00  0.00    +0.011 A 
ENDBRANCH  30  32
ENDBRANCH  29  30
ENDBRANCH  28  29
ENDBRANCH  26  28
ENDBRANCH  25  26
ENDBRANCH  24  25
ENDBRANCH  23  24
ENDBRANCH   6  23
TORSDOF 15
ENDMDL
MODEL 5
REMARK VINA RESULT:       6.3      1.626      5.971
REMARK  Name = *****
REMARK                            x       y       z     vdW  Elec       q    Type
REMARK                         _______ _______ _______ _____ _____    ______ ____
ROOT
ATOM      1  C   LIG    1       26.246 -21.396   4.941  0.00  0.00    +0.044 C 
ATOM      2  C   LIG    1       27.541 -20.603   4.696  0.00  0.00    +0.006 C 
ATOM      3  C   LIG    1       28.440 -20.989   5.872  0.00  0.00    -0.001 C 
ATOM      4  C   LIG    1       29.395 -19.819   6.060  0.00  0.00    +0.034 C 
ATOM      5  C   LIG    1       28.680 -18.636   5.465  0.00  0.00    -0.073 C 
ATOM      6  C   LIG    1       29.156 -17.382   5.556  0.00  0.00    -0.027 C 
ATOM      7  C   LIG    1       27.511 -21.243   7.061  0.00  0.00    +0.036 C 
ATOM      8  C   LIG    1       27.441 -19.074   4.728  0.00  0.00    +0.035 C 
ATOM      9  C   LIG    1       26.114 -21.489   6.483  0.00  0.00    +0.122 C 
ENDROOT
BRANCH   1  11
ATOM     10  C   LIG    1       24.422 -19.730   4.458  0.00  0.00    +0.000 C 
ATOM     11  C   LIG    1       25.028 -20.901   4.198  0.00  0.00    -0.022 C 
BRANCH  10  12
ATOM     12  C   LIG    1       23.206 -19.218   3.734  0.00  0.00    +0.141 C 
BRANCH  12  13
ATOM     13  C   LIG    1       21.910 -19.321   4.572  0.00  0.00    +0.030 C 
ATOM     14  C   LIG    1       21.109 -20.590   4.231  0.00  0.00    +0.011 C 
BRANCH  13  15
ATOM     15  C   LIG    1       21.042 -18.058   4.388  0.00  0.00    +0.095 C 
BRANCH  15  18
ATOM     16  C   LIG    1       22.874 -14.582   5.679  0.00  0.00    +0.106 C 
ATOM     17  C   LIG    1       22.239 -15.857   5.317  0.00  0.00    -0.106 C 
ATOM     18  C   LIG    1       21.710 -16.860   4.953  0.00  0.00    -0.102 C 
ENDBRANCH  15  18
ENDBRANCH  13  15
ENDBRANCH  12  13
BRANCH  12  19
ATOM     19  O   LIG    1       23.072 -19.981   2.536  0.00  0.00    -0.388 OA
ATOM     20  H   LIG    1       23.273 -19.380   1.797  0.00  0.00    +0.210 HD
ENDBRANCH  12  19
ENDBRANCH  10  12
ENDBRANCH   1  11
BRANCH   9  21
ATOM     21  O   LIG    1       25.200 -20.549   7.040  0.00  0.00    -0.391 OA
ATOM     22  H   LIG    1       25.499 -20.329   7.939  0.00  0.00    +0.210 HD
ENDBRANCH   9  21
BRANCH   6  23
ATOM     23  C   LIG    1       28.581 -16.188   4.845  0.00  0.00    +0.028 C 
BRANCH  23  24
ATOM     24  C   LIG    1       27.564 -16.581   3.763  0.00  0.00    +0.015 C 
BRANCH  24  25
ATOM     25  C   LIG    1       26.124 -16.442   4.251  0.00  0.00    +0.121 C 
BRANCH  25  26
ATOM     26  C   LIG    1       25.188 -16.105   3.120  0.00  0.00    +0.307 C 
ATOM     27  O   LIG    1       24.064 -16.568   2.988  0.00  0.00    -0.251 OA
BRANCH  26  28
ATOM     28  O   LIG    1       25.781 -15.224   2.267  0.00  0.00    -0.457 OA
BRANCH  28  29
ATOM     29  C   LIG    1       25.022 -14.036   2.053  0.00  0.00    +0.311 C 
BRANCH  29  30
ATOM     30  C   LIG    1       25.144 -13.044   3.216  0.00  0.00    +0.200 C 
ATOM     31  O   LIG    1       24.199 -12.345   3.585  0.00  0.00    -0.288 OA
BRANCH  30  32
ATOM     32  C   LIG    1       26.473 -12.882   3.873  0.00  0.00    +0.021 A 
ATOM     33  C   LIG    1       26.543 -12.653   5.255  0.00  0.00    +0.011 A 
ATOM     34  C   LIG    1       27.787 -12.482   5.872  0.00  0.00    +0.001 A 
ATOM     35  C   LIG    1       28.959 -12.556   5.119  0.00  0.00    +0.000 A 
ATOM     36  C   LIG    1       28.892 -12.810   3.753  0.00  0.00    +0.001 A 
ATOM     37  C   LIG    1       27.656 -12.977   3.133  0.00  0.00    +0.011 A 
ENDBRANCH  30  32
ENDBRANCH  29  30
ENDBRANCH  28  29
ENDBRANCH  26  28
ENDBRANCH  25  26
ENDBRANCH  24  25
ENDBRANCH  23  24
ENDBRANCH   6  23
TORSDOF 15
ENDMDL
