MODEL 1
REMARK VINA RESULT:      -4.9      0.000      0.000
REMARK  Name = *****
REMARK                            x       y       z     vdW  Elec       q    Type
REMARK                         _______ _______ _______ _____ _____    ______ ____
ROOT
ATOM      1  C   LIG    1       31.121 -18.726   7.554  0.00  0.00    +0.096 C 
ENDROOT
BRANCH   1   2
ATOM      2  N   LIG    1       31.145 -20.170   7.332  0.00  0.00    -0.314 NA
ATOM      3  H   LIG    1       32.095 -20.534   7.338  0.00  0.00    +0.122 HD
BRANCH   2   4
ATOM      4  C   LIG    1       30.181 -21.004   8.033  0.00  0.00    +0.096 C 
BRANCH   4   5
ATOM      5  C   LIG    1       30.758 -21.902   9.143  0.00  0.00    +0.092 C 
BRANCH   5   6
ATOM      6  N   LIG    1       32.154 -21.601   9.466  0.00  0.00    -0.329 NA
ATOM      7  H   LIG    1       32.360 -21.802  10.427  0.00  0.00    +0.118 HD
ATOM      8  H   LIG    1       32.239 -20.582   9.429  0.00  0.00    +0.118 HD
ENDBRANCH   5   6
ENDBRANCH   4   5
ENDBRANCH   2   4
ENDBRANCH   1   2
BRANCH   1   9
ATOM      9  C   LIG    1       32.013 -18.033   8.659  0.00  0.00    +0.096 C 
BRANCH   9  10
ATOM     10  N   LIG    1       32.410 -16.615   8.638  0.00  0.00    -0.314 NA
ATOM     11  H   LIG    1       33.346 -16.581   8.255  0.00  0.00    +0.122 HD
BRANCH  10  12
ATOM     12  C   LIG    1       32.478 -15.971   9.959  0.00  0.00    +0.096 C 
BRANCH  12  13
ATOM     13  C   LIG    1       31.795 -16.818  11.009  0.00  0.00    +0.092 C 
BRANCH  13  14
ATOM     14  N   LIG    1       30.434 -16.394  11.270  0.00  0.00    -0.329 NA
ATOM     15  H   LIG    1       30.112 -15.750  10.606  0.00  0.00    +0.118 HD
ATOM     16  H   LIG    1       30.386 -15.937  12.158  0.00  0.00    +0.118 HD
ENDBRANCH  13  14
ENDBRANCH  12  13
ENDBRANCH  10  12
ENDBRANCH   9  10
ENDBRANCH   1   9
TORSDOF 9
ENDMDL
MODEL 2
REMARK VINA RESULT:      -4.8      2.726      5.230
REMARK  Name = *****
REMARK                            x       y       z     vdW  Elec       q    Type
REMARK                         _______ _______ _______ _____ _____    ______ ____
ROOT
ATOM      1  C   LIG    1       31.004 -20.586   8.599  0.00  0.00    +0.096 C 
ENDROOT
BRANCH   1   2
ATOM      2  N   LIG    1       31.912 -19.587   9.156  0.00  0.00    -0.314 NA
ATOM      3  H   LIG    1       32.844 -19.969   9.304  0.00  0.00    +0.122 HD
BRANCH   2   4
ATOM      4  C   LIG    1       31.899 -18.240   8.604  0.00  0.00    +0.096 C 
BRANCH   4   5
ATOM      5  C   LIG    1       32.249 -17.112   9.591  0.00  0.00    +0.092 C 
BRANCH   5   6
ATOM      6  N   LIG    1       32.729 -15.894   8.936  0.00  0.00    -0.329 NA
ATOM      7  H   LIG    1       32.098 -15.590   8.218  0.00  0.00    +0.118 HD
ATOM      8  H   LIG    1       33.557 -16.169   8.401  0.00  0.00    +0.118 HD
ENDBRANCH   5   6
ENDBRANCH   4   5
ENDBRANCH   2   4
ENDBRANCH   1   2
BRANCH   1   9
ATOM      9  C   LIG    1       29.793 -20.188   7.664  0.00  0.00    +0.096 C 
BRANCH   9  10
ATOM     10  N   LIG    1       28.400 -20.050   8.122  0.00  0.00    -0.314 NA
ATOM     11  H   LIG    1       28.378 -20.358   9.085  0.00  0.00    +0.122 HD
BRANCH  10  12
ATOM     12  C   LIG    1       27.425 -20.879   7.398  0.00  0.00    +0.096 C 
BRANCH  12  13
ATOM     13  C   LIG    1       26.014 -20.578   7.854  0.00  0.00    +0.092 C 
BRANCH  13  14
ATOM     14  N   LIG    1       25.866 -20.649   9.293  0.00  0.00    -0.329 NA
ATOM     15  H   LIG    1       26.531 -20.105   9.763  0.00  0.00    +0.118 HD
ATOM     16  H   LIG    1       25.999 -21.591   9.602  0.00  0.00    +0.118 HD
ENDBRANCH  13  14
ENDBRANCH  12  13
ENDBRANCH  10  12
ENDBRANCH   9  10
ENDBRANCH   1   9
TORSDOF 9
ENDMDL
MODEL 3
REMARK VINA RESULT:      -4.8      0.450      4.983
REMARK  Name = *****
REMARK                            x       y       z     vdW  Elec       q    Type
REMARK                         _______ _______ _______ _____ _____    ______ ____
ROOT
ATOM      1  C   LIG    1       31.963 -18.175   8.777  0.00  0.00    +0.096 C 
ENDROOT
BRANCH   1   2
ATOM      2  N   LIG    1       32.318 -16.759   8.744  0.00  0.00    -0.314 NA
ATOM      3  H   LIG    1       31.760 -16.248   8.064  0.00  0.00    +0.122 HD
BRANCH   2   4
ATOM      4  C   LIG    1       32.517 -16.055  10.003  0.00  0.00    +0.096 C 
BRANCH   4   5
ATOM      5  C   LIG    1       31.801 -16.660  11.224  0.00  0.00    +0.092 C 
BRANCH   5   6
ATOM      6  N   LIG    1       30.361 -16.392  11.245  0.00  0.00    -0.329 NA
ATOM      7  H   LIG    1       29.931 -16.632  10.371  0.00  0.00    +0.118 HD
ATOM      8  H   LIG    1       30.264 -15.375  11.268  0.00  0.00    +0.118 HD
ENDBRANCH   5   6
ENDBRANCH   4   5
ENDBRANCH   2   4
ENDBRANCH   1   2
BRANCH   1   9
ATOM      9  C   LIG    1       31.372 -18.920   7.514  0.00  0.00    +0.096 C 
BRANCH   9  10
ATOM     10  N   LIG    1       31.220 -20.381   7.407  0.00  0.00    -0.314 NA
ATOM     11  H   LIG    1       30.865 -20.569   6.479  0.00  0.00    +0.122 HD
BRANCH  10  12
ATOM     12  C   LIG    1       30.259 -20.975   8.348  0.00  0.00    +0.096 C 
BRANCH  12  13
ATOM     13  C   LIG    1       30.929 -22.010   9.224  0.00  0.00    +0.092 C 
BRANCH  13  14
ATOM     14  N   LIG    1       32.148 -22.531   8.640  0.00  0.00    -0.329 NA
ATOM     15  H   LIG    1       32.132 -23.507   8.556  0.00  0.00    +0.118 HD
ATOM     16  H   LIG    1       32.927 -22.307   9.225  0.00  0.00    +0.118 HD
ENDBRANCH  13  14
ENDBRANCH  12  13
ENDBRANCH  10  12
ENDBRANCH   9  10
ENDBRANCH   1   9
TORSDOF 9
ENDMDL
MODEL 4
REMARK VINA RESULT:      -4.8      1.655      5.541
REMARK  Name = *****
REMARK                            x       y       z     vdW  Elec       q    Type
REMARK                         _______ _______ _______ _____ _____    ______ ____
ROOT
ATOM      1  C   LIG    1       30.533 -17.583  10.547  0.00  0.00    +0.096 C 
ENDROOT
BRANCH   1   2
ATOM      2  N   LIG    1       31.081 -16.513  11.376  0.00  0.00    -0.314 NA
ATOM      3  H   LIG    1       30.571 -16.418  12.251  0.00  0.00    +0.122 HD
BRANCH   2   4
ATOM      4  C   LIG    1       32.526 -16.399  11.512  0.00  0.00    +0.096 C 
BRANCH   4   5
ATOM      5  C   LIG    1       33.025 -15.782  12.831  0.00  0.00    +0.092 C 
BRANCH   5   6
ATOM      6  N   LIG    1       31.943 -15.308  13.696  0.00  0.00    -0.329 NA
ATOM      7  H   LIG    1       32.268 -15.138  14.630  0.00  0.00    +0.118 HD
ATOM      8  H   LIG    1       31.313 -16.103  13.822  0.00  0.00    +0.118 HD
ENDBRANCH   5   6
ENDBRANCH   4   5
ENDBRANCH   2   4
ENDBRANCH   1   2
BRANCH   1   9
ATOM      9  C   LIG    1       31.331 -18.186   9.323  0.00  0.00    +0.096 C 
BRANCH   9  10
ATOM     10  N   LIG    1       31.845 -19.566   9.264  0.00  0.00    -0.314 NA
ATOM     11  H   LIG    1       32.707 -19.533   8.737  0.00  0.00    +0.122 HD
BRANCH  10  12
ATOM     12  C   LIG    1       30.970 -20.523   8.570  0.00  0.00    +0.096 C 
BRANCH  12  13
ATOM     13  C   LIG    1       31.014 -21.879   9.239  0.00  0.00    +0.092 C 
BRANCH  13  14
ATOM     14  N   LIG    1       32.038 -22.741   8.685  0.00  0.00    -0.329 NA
ATOM     15  H   LIG    1       32.496 -22.332   7.922  0.00  0.00    +0.118 HD
ATOM     16  H   LIG    1       31.624 -23.587   8.348  0.00  0.00    +0.118 HD
ENDBRANCH  13  14
ENDBRANCH  12  13
ENDBRANCH  10  12
ENDBRANCH   9  10
ENDBRANCH   1   9
TORSDOF 9
ENDMDL
MODEL 5
REMARK VINA RESULT:      -4.7      3.087      4.343
REMARK  Name = *****
REMARK                            x       y       z     vdW  Elec       q    Type
REMARK                         _______ _______ _______ _____ _____    ______ ____
ROOT
ATOM      1  C   LIG    1       28.983 -19.644   6.428  0.00  0.00    +0.096 C 
ENDROOT
BRANCH   1   2
ATOM      2  N   LIG    1       28.583 -21.049   6.441  0.00  0.00    -0.314 NA
ATOM      3  H   LIG    1       29.382 -21.668   6.321  0.00  0.00    +0.122 HD
BRANCH   2   4
ATOM      4  C   LIG    1       27.625 -21.497   7.440  0.00  0.00    +0.096 C 
BRANCH   4   5
ATOM      5  C   LIG    1       26.761 -20.394   8.078  0.00  0.00    +0.092 C 
BRANCH   5   6
ATOM      6  N   LIG    1       25.948 -20.868   9.199  0.00  0.00    -0.329 NA
ATOM      7  H   LIG    1       26.371 -21.656   9.653  0.00  0.00    +0.118 HD
ATOM      8  H   LIG    1       25.107 -21.276   8.785  0.00  0.00    +0.118 HD
ENDBRANCH   5   6
ENDBRANCH   4   5
ENDBRANCH   2   4
ENDBRANCH   1   2
BRANCH   1   9
ATOM      9  C   LIG    1       30.495 -19.203   6.562  0.00  0.00    +0.096 C 
BRANCH   9  10
ATOM     10  N   LIG    1       31.506 -19.929   7.350  0.00  0.00    -0.314 NA
ATOM     11  H   LIG    1       31.689 -20.795   6.860  0.00  0.00    +0.122 HD
BRANCH  10  12
ATOM     12  C   LIG    1       31.083 -20.301   8.709  0.00  0.00    +0.096 C 
BRANCH  12  13
ATOM     13  C   LIG    1       31.199 -21.794   8.921  0.00  0.00    +0.092 C 
BRANCH  13  14
ATOM     14  N   LIG    1       30.806 -22.200  10.255  0.00  0.00    -0.329 NA
ATOM     15  H   LIG    1       31.566 -22.237  10.871  0.00  0.00    +0.118 HD
ATOM     16  H   LIG    1       30.415 -23.121  10.229  0.00  0.00    +0.118 HD
ENDBRANCH  13  14
ENDBRANCH  12  13
ENDBRANCH  10  12
ENDBRANCH   9  10
ENDBRANCH   1   9
TORSDOF 9
ENDMDL
MODEL 6
REMARK VINA RESULT:      -4.6      2.234      5.259
REMARK  Name = *****
REMARK                            x       y       z     vdW  Elec       q    Type
REMARK                         _______ _______ _______ _____ _____    ______ ____
ROOT
ATOM      1  C   LIG    1       31.116 -21.171   8.898  0.00  0.00    +0.096 C 
ENDROOT
BRANCH   1   2
ATOM      2  N   LIG    1       31.908 -20.008   9.288  0.00  0.00    -0.314 NA
ATOM      3  H   LIG    1       32.897 -20.236   9.361  0.00  0.00    +0.122 HD
BRANCH   2   4
ATOM      4  C   LIG    1       31.635 -18.727   8.654  0.00  0.00    +0.096 C 
BRANCH   4   5
ATOM      5  C   LIG    1       31.948 -17.482   9.504  0.00  0.00    +0.092 C 
BRANCH   5   6
ATOM      6  N   LIG    1       32.585 -16.405   8.744  0.00  0.00    -0.329 NA
ATOM      7  H   LIG    1       32.863 -16.714   7.831  0.00  0.00    +0.118 HD
ATOM      8  H   LIG    1       33.484 -16.230   9.201  0.00  0.00    +0.118 HD
ENDBRANCH   5   6
ENDBRANCH   4   5
ENDBRANCH   2   4
ENDBRANCH   1   2
BRANCH   1   9
ATOM      9  C   LIG    1       29.885 -21.053   7.914  0.00  0.00    +0.096 C 
BRANCH   9  10
ATOM     10  N   LIG    1       28.475 -21.124   8.334  0.00  0.00    -0.314 NA
ATOM     11  H   LIG    1       28.202 -22.096   8.274  0.00  0.00    +0.122 HD
BRANCH  10  12
ATOM     12  C   LIG    1       27.536 -20.376   7.484  0.00  0.00    +0.096 C 
BRANCH  12  13
ATOM     13  C   LIG    1       28.205 -19.930   6.203  0.00  0.00    +0.092 C 
BRANCH  13  14
ATOM     14  N   LIG    1       27.365 -20.122   5.038  0.00  0.00    -0.329 NA
ATOM     15  H   LIG    1       27.681 -19.612   4.264  0.00  0.00    +0.118 HD
ATOM     16  H   LIG    1       26.438 -19.801   5.232  0.00  0.00    +0.118 HD
ENDBRANCH  13  14
ENDBRANCH  12  13
ENDBRANCH  10  12
ENDBRANCH   9  10
ENDBRANCH   1   9
TORSDOF 9
ENDMDL
MODEL 7
REMARK VINA RESULT:      -4.6      2.621      3.045
REMARK  Name = *****
REMARK                            x       y       z     vdW  Elec       q    Type
REMARK                         _______ _______ _______ _____ _____    ______ ____
ROOT
ATOM      1  C   LIG    1       30.118 -19.956   7.276  0.00  0.00    +0.096 C 
ENDROOT
BRANCH   1   2
ATOM      2  N   LIG    1       28.904 -19.986   8.088  0.00  0.00    -0.314 NA
ATOM      3  H   LIG    1       28.556 -19.049   8.276  0.00  0.00    +0.122 HD
BRANCH   2   4
ATOM      4  C   LIG    1       27.867 -20.955   7.767  0.00  0.00    +0.096 C 
BRANCH   4   5
ATOM      5  C   LIG    1       26.419 -20.463   7.938  0.00  0.00    +0.092 C 
BRANCH   5   6
ATOM      6  N   LIG    1       25.887 -20.679   9.285  0.00  0.00    -0.329 NA
ATOM      7  H   LIG    1       26.593 -21.025   9.908  0.00  0.00    +0.118 HD
ATOM      8  H   LIG    1       25.248 -21.474   9.212  0.00  0.00    +0.118 HD
ENDBRANCH   5   6
ENDBRANCH   4   5
ENDBRANCH   2   4
ENDBRANCH   1   2
BRANCH   1   9
ATOM      9  C   LIG    1       31.441 -19.248   7.772  0.00  0.00    +0.096 C 
BRANCH   9  10
ATOM     10  N   LIG    1       31.856 -19.156   9.182  0.00  0.00    -0.314 NA
ATOM     11  H   LIG    1       31.184 -19.688   9.718  0.00  0.00    +0.122 HD
BRANCH  10  12
ATOM     12  C   LIG    1       31.852 -17.796   9.742  0.00  0.00    +0.096 C 
BRANCH  12  13
ATOM     13  C   LIG    1       30.439 -17.322  10.000  0.00  0.00    +0.092 C 
BRANCH  13  14
ATOM     14  N   LIG    1       30.336 -16.494  11.184  0.00  0.00    -0.329 NA
ATOM     15  H   LIG    1       29.424 -16.466  11.540  0.00  0.00    +0.118 HD
ATOM     16  H   LIG    1       30.584 -15.551  10.961  0.00  0.00    +0.118 HD
ENDBRANCH  13  14
ENDBRANCH  12  13
ENDBRANCH  10  12
ENDBRANCH   9  10
ENDBRANCH   1   9
TORSDOF 9
ENDMDL
MODEL 8
REMARK VINA RESULT:      -4.6      3.034      4.628
REMARK  Name = *****
REMARK                            x       y       z     vdW  Elec       q    Type
REMARK                         _______ _______ _______ _____ _____    ______ ____
ROOT
ATOM      1  C   LIG    1       30.535 -19.181   6.449  0.00  0.00    +0.096 C 
ENDROOT
BRANCH   1   2
ATOM      2  N   LIG    1       31.477 -19.912   7.292  0.00  0.00    -0.314 NA
ATOM      3  H   LIG    1       32.429 -19.579   7.165  0.00  0.00    +0.122 HD
BRANCH   2   4
ATOM      4  C   LIG    1       31.118 -20.181   8.677  0.00  0.00    +0.096 C 
BRANCH   4   5
ATOM      5  C   LIG    1       30.886 -21.662   9.029  0.00  0.00    +0.092 C 
BRANCH   5   6
ATOM      6  N   LIG    1       32.039 -22.516   8.739  0.00  0.00    -0.329 NA
ATOM      7  H   LIG    1       31.756 -23.453   8.518  0.00  0.00    +0.118 HD
ATOM      8  H   LIG    1       32.532 -22.637   9.627  0.00  0.00    +0.118 HD
ENDBRANCH   5   6
ENDBRANCH   4   5
ENDBRANCH   2   4
ENDBRANCH   1   2
BRANCH   1   9
ATOM      9  C   LIG    1       28.971 -19.353   6.597  0.00  0.00    +0.096 C 
BRANCH   9  10
ATOM     10  N   LIG    1       28.212 -20.517   6.108  0.00  0.00    -0.314 NA
ATOM     11  H   LIG    1       28.020 -20.349   5.129  0.00  0.00    +0.122 HD
BRANCH  10  12
ATOM     12  C   LIG    1       26.909 -20.725   6.758  0.00  0.00    +0.096 C 
BRANCH  12  13
ATOM     13  C   LIG    1       27.084 -21.148   8.199  0.00  0.00    +0.092 C 
BRANCH  13  14
ATOM     14  N   LIG    1       26.067 -20.596   9.071  0.00  0.00    -0.329 NA
ATOM     15  H   LIG    1       26.321 -20.644  10.015  0.00  0.00    +0.118 HD
ATOM     16  H   LIG    1       25.220 -21.120   8.977  0.00  0.00    +0.118 HD
ENDBRANCH  13  14
ENDBRANCH  12  13
ENDBRANCH  10  12
ENDBRANCH   9  10
ENDBRANCH   1   9
TORSDOF 9
ENDMDL
MODEL 9
REMARK VINA RESULT:      -4.6      2.568      3.601
REMARK  Name = *****
REMARK                            x       y       z     vdW  Elec       q    Type
REMARK                         _______ _______ _______ _____ _____    ______ ____
ROOT
ATOM      1  C   LIG    1       29.100 -20.056   6.410  0.00  0.00    +0.096 C 
ENDROOT
BRANCH   1   2
ATOM      2  N   LIG    1       28.934 -21.347   7.074  0.00  0.00    -0.314 NA
ATOM      3  H   LIG    1       29.753 -21.592   7.626  0.00  0.00    +0.122 HD
BRANCH   2   4
ATOM      4  C   LIG    1       27.666 -21.646   7.721  0.00  0.00    +0.096 C 
BRANCH   4   5
ATOM      5  C   LIG    1       26.810 -20.426   8.106  0.00  0.00    +0.092 C 
BRANCH   5   6
ATOM      6  N   LIG    1       25.897 -20.685   9.222  0.00  0.00    -0.329 NA
ATOM      7  H   LIG    1       24.959 -20.837   8.901  0.00  0.00    +0.118 HD
ATOM      8  H   LIG    1       25.817 -19.802   9.731  0.00  0.00    +0.118 HD
ENDBRANCH   5   6
ENDBRANCH   4   5
ENDBRANCH   2   4
ENDBRANCH   1   2
BRANCH   1   9
ATOM      9  C   LIG    1       30.446 -19.233   6.503  0.00  0.00    +0.096 C 
BRANCH   9  10
ATOM     10  N   LIG    1       31.611 -19.633   7.311  0.00  0.00    -0.314 NA
ATOM     11  H   LIG    1       31.666 -20.642   7.262  0.00  0.00    +0.122 HD
BRANCH  10  12
ATOM     12  C   LIG    1       31.522 -19.291   8.738  0.00  0.00    +0.096 C 
BRANCH  12  13
ATOM     13  C   LIG    1       31.246 -17.815   8.925  0.00  0.00    +0.092 C 
BRANCH  13  14
ATOM     14  N   LIG    1       32.389 -16.988   8.599  0.00  0.00    -0.329 NA
ATOM     15  H   LIG    1       32.977 -16.847   9.369  0.00  0.00    +0.118 HD
ATOM     16  H   LIG    1       32.080 -16.082   8.307  0.00  0.00    +0.118 HD
ENDBRANCH  13  14
ENDBRANCH  12  13
ENDBRANCH  10  12
ENDBRANCH   9  10
ENDBRANCH   1   9
TORSDOF 9
ENDMDL
