MODEL 1
REMARK VINA RESULT:      -5.9      0.000      0.000
REMARK  Name = *****
REMARK                            x       y       z     vdW  Elec       q    Type
REMARK                         _______ _______ _______ _____ _____    ______ ____
ROOT
ATOM      1  C   LIG    1       25.945 -16.786   3.119  0.00  0.00    +0.015 C 
ATOM      2  C   LIG    1       26.821 -16.029   3.803  0.00  0.00    +0.092 C 
ENDROOT
BRANCH   1   6
ATOM      3  C   LIG    1       24.141 -20.384   4.594  0.00  0.00    +0.120 A 
ATOM      4  C   LIG    1       23.361 -19.307   4.172  0.00  0.00    +0.046 A 
ATOM      5  C   LIG    1       23.963 -18.143   3.687  0.00  0.00    +0.011 A 
ATOM      6  C   LIG    1       25.357 -18.036   3.620  0.00  0.00    -0.025 A 
ATOM      7  C   LIG    1       26.129 -19.119   4.061  0.00  0.00    +0.011 A 
ATOM      8  C   LIG    1       25.527 -20.282   4.542  0.00  0.00    +0.046 A 
BRANCH   3  10
ATOM      9  C   LIG    1       23.117 -21.522   6.386  0.00  0.00    +0.277 C 
ATOM     10  O   LIG    1       23.662 -21.572   5.074  0.00  0.00    -0.495 OA
ENDBRANCH   3  10
ENDBRANCH   1   6
BRANCH   2  11
ATOM     11  C   LIG    1       27.291 -14.758   3.246  0.00  0.00    +0.332 C 
ATOM     12  O   LIG    1       28.228 -14.105   3.685  0.00  0.00    -0.246 OA
BRANCH  11  13
ATOM     13  O   LIG    1       26.525 -14.460   2.173  0.00  0.00    -0.462 OA
BRANCH  13  14
ATOM     14  C   LIG    1       25.983 -13.130   2.152  0.00  0.00    +0.232 C 
BRANCH  14  15
ATOM     15  C   LIG    1       24.518 -13.148   2.597  0.00  0.00    +0.044 C 
BRANCH  15  16
ATOM     16  C   LIG    1       24.349 -13.284   4.120  0.00  0.00    -0.014 C 
ATOM     17  C   LIG    1       23.452 -14.478   4.463  0.00  0.00    +0.007 C 
ATOM     18  C   LIG    1       23.792 -12.012   4.764  0.00  0.00    +0.007 C 
ENDBRANCH  15  16
ENDBRANCH  14  15
ENDBRANCH  13  14
ENDBRANCH  11  13
ENDBRANCH   2  11
TORSDOF 7
ENDMDL
MODEL 2
REMARK VINA RESULT:      -5.4      1.643      2.930
REMARK  Name = *****
REMARK                            x       y       z     vdW  Elec       q    Type
REMARK                         _______ _______ _______ _____ _____    ______ ____
ROOT
ATOM      1  C   LIG    1       24.250 -15.802   3.722  0.00  0.00    +0.015 C 
ATOM      2  C   LIG    1       23.621 -14.729   4.235  0.00  0.00    +0.092 C 
ENDROOT
BRANCH   1   6
ATOM      3  C   LIG    1       23.196 -19.898   4.416  0.00  0.00    +0.120 A 
ATOM      4  C   LIG    1       24.429 -19.555   3.863  0.00  0.00    +0.046 A 
ATOM      5  C   LIG    1       24.762 -18.215   3.648  0.00  0.00    +0.011 A 
ATOM      6  C   LIG    1       23.863 -17.195   3.981  0.00  0.00    -0.025 A 
ATOM      7  C   LIG    1       22.622 -17.553   4.523  0.00  0.00    +0.011 A 
ATOM      8  C   LIG    1       22.291 -18.892   4.740  0.00  0.00    +0.046 A 
BRANCH   3  10
ATOM      9  C   LIG    1       22.863 -21.572   6.042  0.00  0.00    +0.277 C 
ATOM     10  O   LIG    1       22.770 -21.171   4.681  0.00  0.00    -0.495 OA
ENDBRANCH   3  10
ENDBRANCH   1   6
BRANCH   2  11
ATOM     11  C   LIG    1       24.036 -13.377   3.853  0.00  0.00    +0.332 C 
ATOM     12  O   LIG    1       23.873 -12.375   4.536  0.00  0.00    -0.246 OA
BRANCH  11  13
ATOM     13  O   LIG    1       24.635 -13.446   2.643  0.00  0.00    -0.462 OA
BRANCH  13  14
ATOM     14  C   LIG    1       25.974 -12.927   2.586  0.00  0.00    +0.232 C 
BRANCH  14  15
ATOM     15  C   LIG    1       26.990 -14.064   2.724  0.00  0.00    +0.044 C 
BRANCH  15  16
ATOM     16  C   LIG    1       27.905 -13.914   3.952  0.00  0.00    -0.014 C 
ATOM     17  C   LIG    1       27.080 -13.648   5.215  0.00  0.00    +0.007 C 
ATOM     18  C   LIG    1       28.952 -12.812   3.770  0.00  0.00    +0.007 C 
ENDBRANCH  15  16
ENDBRANCH  14  15
ENDBRANCH  13  14
ENDBRANCH  11  13
ENDBRANCH   2  11
TORSDOF 7
ENDMDL
MODEL 3
REMARK VINA RESULT:      -5.4      1.818      7.026
REMARK  Name = *****
REMARK                            x       y       z     vdW  Elec       q    Type
REMARK                         _______ _______ _______ _____ _____    ______ ____
ROOT
ATOM      1  C   LIG    1       23.127 -16.364   4.353  0.00  0.00    +0.015 C 
ATOM      2  C   LIG    1       23.168 -17.691   4.137  0.00  0.00    +0.092 C 
ENDROOT
BRANCH   1   6
ATOM      3  C   LIG    1       26.235 -13.575   3.382  0.00  0.00    +0.120 A 
ATOM      4  C   LIG    1       24.968 -13.137   3.771  0.00  0.00    +0.046 A 
ATOM      5  C   LIG    1       23.967 -14.058   4.091  0.00  0.00    +0.011 A 
ATOM      6  C   LIG    1       24.216 -15.434   4.023  0.00  0.00    -0.025 A 
ATOM      7  C   LIG    1       25.487 -15.861   3.618  0.00  0.00    +0.011 A 
ATOM      8  C   LIG    1       26.487 -14.941   3.302  0.00  0.00    +0.046 A 
BRANCH   3  10
ATOM      9  C   LIG    1       28.521 -13.096   3.690  0.00  0.00    +0.277 C 
ATOM     10  O   LIG    1       27.290 -12.767   3.060  0.00  0.00    -0.495 OA
ENDBRANCH   3  10
ENDBRANCH   1   6
BRANCH   2  11
ATOM     11  C   LIG    1       21.999 -18.523   4.429  0.00  0.00    +0.332 C 
ATOM     12  O   LIG    1       20.965 -18.534   3.773  0.00  0.00    -0.246 OA
BRANCH  11  13
ATOM     13  O   LIG    1       22.276 -19.272   5.520  0.00  0.00    -0.462 OA
BRANCH  13  14
ATOM     14  C   LIG    1       22.950 -20.514   5.260  0.00  0.00    +0.232 C 
BRANCH  14  15
ATOM     15  C   LIG    1       23.917 -20.841   6.402  0.00  0.00    +0.044 C 
BRANCH  15  16
ATOM     16  C   LIG    1       25.381 -20.952   5.942  0.00  0.00    -0.014 C 
ATOM     17  C   LIG    1       26.336 -20.525   7.062  0.00  0.00    +0.007 C 
ATOM     18  C   LIG    1       25.662 -20.137   4.678  0.00  0.00    +0.007 C 
ENDBRANCH  15  16
ENDBRANCH  14  15
ENDBRANCH  13  14
ENDBRANCH  11  13
ENDBRANCH   2  11
TORSDOF 7
ENDMDL
MODEL 4
REMARK VINA RESULT:      -5.2      1.725      6.600
REMARK  Name = *****
REMARK                            x       y       z     vdW  Elec       q    Type
REMARK                         _______ _______ _______ _____ _____    ______ ____
ROOT
ATOM      1  C   LIG    1       26.363 -17.079   3.682  0.00  0.00    +0.015 C 
ATOM      2  C   LIG    1       25.554 -18.153   3.691  0.00  0.00    +0.092 C 
ENDROOT
BRANCH   1   6
ATOM      3  C   LIG    1       25.166 -13.046   2.861  0.00  0.00    +0.120 A 
ATOM      4  C   LIG    1       26.462 -13.484   2.585  0.00  0.00    +0.046 A 
ATOM      5  C   LIG    1       26.836 -14.803   2.852  0.00  0.00    +0.011 A 
ATOM      6  C   LIG    1       25.920 -15.707   3.403  0.00  0.00    -0.025 A 
ATOM      7  C   LIG    1       24.626 -15.251   3.688  0.00  0.00    +0.011 A 
ATOM      8  C   LIG    1       24.252 -13.933   3.419  0.00  0.00    +0.046 A 
BRANCH   3  10
ATOM      9  C   LIG    1       23.502 -11.447   3.337  0.00  0.00    +0.277 C 
ATOM     10  O   LIG    1       24.688 -11.785   2.630  0.00  0.00    -0.495 OA
ENDBRANCH   3  10
ENDBRANCH   1   6
BRANCH   2  11
ATOM     11  C   LIG    1       26.079 -19.471   4.058  0.00  0.00    +0.332 C 
ATOM     12  O   LIG    1       27.021 -19.663   4.816  0.00  0.00    -0.246 OA
BRANCH  11  13
ATOM     13  O   LIG    1       25.335 -20.410   3.433  0.00  0.00    -0.462 OA
BRANCH  13  14
ATOM     14  C   LIG    1       24.495 -21.202   4.288  0.00  0.00    +0.232 C 
BRANCH  14  15
ATOM     15  C   LIG    1       23.021 -20.875   4.033  0.00  0.00    +0.044 C 
BRANCH  15  16
ATOM     16  C   LIG    1       22.373 -20.071   5.174  0.00  0.00    -0.014 C 
ATOM     17  C   LIG    1       22.299 -18.584   4.816  0.00  0.00    +0.007 C 
ATOM     18  C   LIG    1       23.103 -20.252   6.506  0.00  0.00    +0.007 C 
ENDBRANCH  15  16
ENDBRANCH  14  15
ENDBRANCH  13  14
ENDBRANCH  11  13
ENDBRANCH   2  11
TORSDOF 7
ENDMDL
MODEL 5
REMARK VINA RESULT:      -4.7      1.793      6.778
REMARK  Name = *****
REMARK                            x       y       z     vdW  Elec       q    Type
REMARK                         _______ _______ _______ _____ _____    ______ ____
ROOT
ATOM      1  C   LIG    1       25.476 -17.312   3.376  0.00  0.00    +0.015 C 
ATOM      2  C   LIG    1       26.078 -18.475   3.682  0.00  0.00    +0.092 C 
ENDROOT
BRANCH   1   6
ATOM      3  C   LIG    1       27.343 -13.453   3.386  0.00  0.00    +0.120 A 
ATOM      4  C   LIG    1       26.100 -13.652   2.784  0.00  0.00    +0.046 A 
ATOM      5  C   LIG    1       25.501 -14.913   2.794  0.00  0.00    +0.011 A 
ATOM      6  C   LIG    1       26.137 -16.000   3.405  0.00  0.00    -0.025 A 
ATOM      7  C   LIG    1       27.391 -15.792   3.994  0.00  0.00    +0.011 A 
ATOM      8  C   LIG    1       27.988 -14.530   3.986  0.00  0.00    +0.046 A 
BRANCH   3  10
ATOM      9  C   LIG    1       28.987 -12.168   4.481  0.00  0.00    +0.277 C 
ATOM     10  O   LIG    1       28.016 -12.265   3.448  0.00  0.00    -0.495 OA
ENDBRANCH   3  10
ENDBRANCH   1   6
BRANCH   2  11
ATOM     11  C   LIG    1       25.352 -19.740   3.547  0.00  0.00    +0.332 C 
ATOM     12  O   LIG    1       24.570 -20.006   2.644  0.00  0.00    -0.246 OA
BRANCH  11  13
ATOM     13  O   LIG    1       25.714 -20.545   4.571  0.00  0.00    -0.462 OA
BRANCH  13  14
ATOM     14  C   LIG    1       24.650 -21.307   5.163  0.00  0.00    +0.232 C 
BRANCH  14  15
ATOM     15  C   LIG    1       23.874 -20.446   6.164  0.00  0.00    +0.044 C 
BRANCH  15  16
ATOM     16  C   LIG    1       22.449 -20.105   5.693  0.00  0.00    -0.014 C 
ATOM     17  C   LIG    1       21.873 -21.240   4.841  0.00  0.00    +0.007 C 
ATOM     18  C   LIG    1       22.388 -18.787   4.917  0.00  0.00    +0.007 C 
ENDBRANCH  15  16
ENDBRANCH  14  15
ENDBRANCH  13  14
ENDBRANCH  11  13
ENDBRANCH   2  11
TORSDOF 7
ENDMDL
MODEL 6
REMARK VINA RESULT:      -4.5      1.678      7.222
REMARK  Name = *****
REMARK                            x       y       z     vdW  Elec       q    Type
REMARK                         _______ _______ _______ _____ _____    ______ ____
ROOT
ATOM      1  C   LIG    1       22.610 -18.095   4.536  0.00  0.00    +0.015 C 
ATOM      2  C   LIG    1       23.136 -19.300   4.815  0.00  0.00    +0.092 C 
ENDROOT
BRANCH   1   6
ATOM      3  C   LIG    1       24.996 -14.642   3.661  0.00  0.00    +0.120 A 
ATOM      4  C   LIG    1       25.461 -15.929   3.385  0.00  0.00    +0.046 A 
ATOM      5  C   LIG    1       24.670 -17.044   3.670  0.00  0.00    +0.011 A 
ATOM      6  C   LIG    1       23.400 -16.891   4.239  0.00  0.00    -0.025 A 
ATOM      7  C   LIG    1       22.951 -15.595   4.525  0.00  0.00    +0.011 A 
ATOM      8  C   LIG    1       23.740 -14.481   4.237  0.00  0.00    +0.046 A 
BRANCH   3  10
ATOM      9  C   LIG    1       25.160 -12.689   2.354  0.00  0.00    +0.277 C 
ATOM     10  O   LIG    1       25.677 -13.482   3.414  0.00  0.00    -0.495 OA
ENDBRANCH   3  10
ENDBRANCH   1   6
BRANCH   2  11
ATOM     11  C   LIG    1       22.262 -20.458   5.022  0.00  0.00    +0.332 C 
ATOM     12  O   LIG    1       21.242 -20.687   4.385  0.00  0.00    -0.246 OA
BRANCH  11  13
ATOM     13  O   LIG    1       22.791 -21.214   6.009  0.00  0.00    -0.462 OA
BRANCH  13  14
ATOM     14  C   LIG    1       24.173 -21.567   5.843  0.00  0.00    +0.232 C 
BRANCH  14  15
ATOM     15  C   LIG    1       24.991 -21.090   7.047  0.00  0.00    +0.044 C 
BRANCH  15  16
ATOM     16  C   LIG    1       26.353 -20.491   6.656  0.00  0.00    -0.014 C 
ATOM     17  C   LIG    1       26.389 -20.153   5.162  0.00  0.00    +0.007 C 
ATOM     18  C   LIG    1       27.522 -21.412   7.011  0.00  0.00    +0.007 C 
ENDBRANCH  15  16
ENDBRANCH  14  15
ENDBRANCH  13  14
ENDBRANCH  11  13
ENDBRANCH   2  11
TORSDOF 7
ENDMDL
MODEL 7
REMARK VINA RESULT:      -3.3      2.747      4.356
REMARK  Name = *****
REMARK                            x       y       z     vdW  Elec       q    Type
REMARK                         _______ _______ _______ _____ _____    ______ ____
ROOT
ATOM      1  C   LIG    1       23.621 -19.170   4.227  0.00  0.00    +0.015 C 
ATOM      2  C   LIG    1       22.650 -18.441   4.805  0.00  0.00    +0.092 C 
ENDROOT
BRANCH   1   6
ATOM      3  C   LIG    1       26.803 -21.026   6.420  0.00  0.00    +0.120 A 
ATOM      4  C   LIG    1       25.467 -21.281   6.733  0.00  0.00    +0.046 A 
ATOM      5  C   LIG    1       24.441 -20.674   6.005  0.00  0.00    +0.011 A 
ATOM      6  C   LIG    1       24.733 -19.798   4.953  0.00  0.00    -0.025 A 
ATOM      7  C   LIG    1       26.078 -19.540   4.658  0.00  0.00    +0.011 A 
ATOM      8  C   LIG    1       27.103 -20.149   5.383  0.00  0.00    +0.046 A 
BRANCH   3  10
ATOM      9  C   LIG    1       29.093 -20.831   6.938  0.00  0.00    +0.277 C 
ATOM     10  O   LIG    1       27.885 -21.572   7.053  0.00  0.00    -0.495 OA
ENDBRANCH   3  10
ENDBRANCH   1   6
BRANCH   2  11
ATOM     11  C   LIG    1       21.539 -17.922   4.003  0.00  0.00    +0.332 C 
ATOM     12  O   LIG    1       20.734 -18.612   3.393  0.00  0.00    -0.246 OA
BRANCH  11  13
ATOM     13  O   LIG    1       21.561 -16.572   4.079  0.00  0.00    -0.462 OA
BRANCH  13  14
ATOM     14  C   LIG    1       22.737 -16.007   4.680  0.00  0.00    +0.232 C 
BRANCH  14  15
ATOM     15  C   LIG    1       23.310 -14.903   3.788  0.00  0.00    +0.044 C 
BRANCH  15  16
ATOM     16  C   LIG    1       24.504 -14.169   4.424  0.00  0.00    -0.014 C 
ATOM     17  C   LIG    1       24.228 -12.665   4.517  0.00  0.00    +0.007 C 
ATOM     18  C   LIG    1       25.812 -14.414   3.668  0.00  0.00    +0.007 C 
ENDBRANCH  15  16
ENDBRANCH  14  15
ENDBRANCH  13  14
ENDBRANCH  11  13
ENDBRANCH   2  11
TORSDOF 7
ENDMDL
