MODEL 1
REMARK VINA RESULT:      -8.2      0.000      0.000
REMARK  Name = *****
REMARK                            x       y       z     vdW  Elec       q    Type
REMARK                         _______ _______ _______ _____ _____    ______ ____
ROOT
ATOM      1  C   LIG    1       24.768 -21.710   5.816  0.00  0.00    +0.072 C 
ATOM      2  C   LIG    1       23.518 -21.289   6.629  0.00  0.00    +0.230 C 
ATOM      3  O   LIG    1       23.181 -21.803   7.693  0.00  0.00    -0.274 OA
ATOM      4  N   LIG    1       22.786 -20.225   6.158  0.00  0.00    -0.256 N 
ATOM      5  H   LIG    1       22.002 -19.952   6.735  0.00  0.00    +0.158 HD
ATOM      6  C   LIG    1       22.919 -19.542   4.979  0.00  0.00    +0.219 C 
ATOM      7  O   LIG    1       22.167 -18.603   4.705  0.00  0.00    -0.275 OA
ATOM      8  C   LIG    1       24.057 -19.947   4.083  0.00  0.00    +0.097 C 
ATOM      9  C   LIG    1       24.471 -21.398   4.320  0.00  0.00    +0.030 C 
ENDROOT
BRANCH   1  10
ATOM     10  C   LIG    1       25.058 -23.229   5.910  0.00  0.00    -0.032 A 
ATOM     11  C   LIG    1       25.661 -23.805   7.042  0.00  0.00    +0.006 A 
ATOM     12  C   LIG    1       25.930 -25.181   7.110  0.00  0.00    +0.023 A 
ATOM     13  C   LIG    1       25.581 -26.036   6.066  0.00  0.00    +0.025 A 
ATOM     14  C   LIG    1       25.070 -25.469   4.903  0.00  0.00    +0.023 A 
ATOM     15  C   LIG    1       24.806 -24.093   4.827  0.00  0.00    +0.006 A 
BRANCH  13  16
ATOM     16  N   LIG    1       25.958 -27.384   6.093  0.00  0.00    -0.358 N 
ATOM     17  H   LIG    1       26.280 -27.735   5.197  0.00  0.00    +0.142 HD
ATOM     18  H   LIG    1       26.607 -27.607   6.842  0.00  0.00    +0.142 HD
ENDBRANCH  13  16
ENDBRANCH   1  10
BRANCH   1  20
ATOM     19  C   LIG    1       25.993 -20.496   7.793  0.00  0.00    +0.005 C 
ATOM     20  C   LIG    1       25.950 -20.805   6.300  0.00  0.00    +0.017 C 
ENDBRANCH   1  20
TORSDOF 3
ENDMDL
MODEL 2
REMARK VINA RESULT:      -7.8      5.145      6.856
REMARK  Name = *****
REMARK                            x       y       z     vdW  Elec       q    Type
REMARK                         _______ _______ _______ _____ _____    ______ ____
ROOT
ATOM      1  C   LIG    1       29.610 -19.721   7.892  0.00  0.00    +0.072 C 
ATOM      2  C   LIG    1       30.705 -20.487   8.676  0.00  0.00    +0.230 C 
ATOM      3  O   LIG    1       30.821 -21.711   8.683  0.00  0.00    -0.274 OA
ATOM      4  N   LIG    1       31.643 -19.738   9.347  0.00  0.00    -0.256 N 
ATOM      5  H   LIG    1       32.365 -20.271   9.813  0.00  0.00    +0.158 HD
ATOM      6  C   LIG    1       31.686 -18.385   9.542  0.00  0.00    +0.219 C 
ATOM      7  O   LIG    1       32.607 -17.868  10.180  0.00  0.00    -0.275 OA
ATOM      8  C   LIG    1       30.606 -17.569   8.888  0.00  0.00    +0.097 C 
ATOM      9  C   LIG    1       29.340 -18.391   8.657  0.00  0.00    +0.030 C 
ENDROOT
BRANCH   1  10
ATOM     10  C   LIG    1       28.266 -20.490   7.837  0.00  0.00    -0.032 A 
ATOM     11  C   LIG    1       28.102 -21.651   7.062  0.00  0.00    +0.006 A 
ATOM     12  C   LIG    1       26.875 -22.332   7.011  0.00  0.00    +0.023 A 
ATOM     13  C   LIG    1       25.778 -21.897   7.752  0.00  0.00    +0.025 A 
ATOM     14  C   LIG    1       25.897 -20.699   8.449  0.00  0.00    +0.023 A 
ATOM     15  C   LIG    1       27.118 -20.010   8.497  0.00  0.00    +0.006 A 
BRANCH  13  16
ATOM     16  N   LIG    1       24.529 -22.512   7.603  0.00  0.00    -0.358 N 
ATOM     17  H   LIG    1       23.905 -22.364   8.390  0.00  0.00    +0.142 HD
ATOM     18  H   LIG    1       24.078 -22.301   6.718  0.00  0.00    +0.142 HD
ENDBRANCH  13  16
ENDBRANCH   1  10
BRANCH   1  20
ATOM     19  C   LIG    1       29.355 -18.505   5.581  0.00  0.00    +0.005 C 
ATOM     20  C   LIG    1       30.210 -19.387   6.486  0.00  0.00    +0.017 C 
ENDBRANCH   1  20
TORSDOF 3
ENDMDL
MODEL 3
REMARK VINA RESULT:      -7.7      2.443      3.230
REMARK  Name = *****
REMARK                            x       y       z     vdW  Elec       q    Type
REMARK                         _______ _______ _______ _____ _____    ______ ____
ROOT
ATOM      1  C   LIG    1       25.785 -21.952   6.662  0.00  0.00    +0.072 C 
ATOM      2  C   LIG    1       25.770 -21.174   5.323  0.00  0.00    +0.230 C 
ATOM      3  O   LIG    1       24.940 -21.346   4.433  0.00  0.00    -0.274 OA
ATOM      4  N   LIG    1       26.706 -20.181   5.158  0.00  0.00    -0.256 N 
ATOM      5  H   LIG    1       26.640 -19.667   4.289  0.00  0.00    +0.158 HD
ATOM      6  C   LIG    1       27.762 -19.849   5.963  0.00  0.00    +0.219 C 
ATOM      7  O   LIG    1       28.518 -18.922   5.663  0.00  0.00    -0.275 OA
ATOM      8  C   LIG    1       27.906 -20.619   7.247  0.00  0.00    +0.097 C 
ATOM      9  C   LIG    1       27.263 -22.001   7.150  0.00  0.00    +0.030 C 
ENDROOT
BRANCH   1  10
ATOM     10  C   LIG    1       25.314 -23.420   6.505  0.00  0.00    -0.032 A 
ATOM     11  C   LIG    1       23.954 -23.772   6.517  0.00  0.00    +0.006 A 
ATOM     12  C   LIG    1       23.540 -25.108   6.386  0.00  0.00    +0.023 A 
ATOM     13  C   LIG    1       24.465 -26.135   6.210  0.00  0.00    +0.025 A 
ATOM     14  C   LIG    1       25.816 -25.815   6.290  0.00  0.00    +0.023 A 
ATOM     15  C   LIG    1       26.235 -24.483   6.428  0.00  0.00    +0.006 A 
BRANCH  13  16
ATOM     16  N   LIG    1       24.051 -27.473   6.199  0.00  0.00    -0.358 N 
ATOM     17  H   LIG    1       24.351 -27.998   7.014  0.00  0.00    +0.142 HD
ATOM     18  H   LIG    1       23.058 -27.587   6.019  0.00  0.00    +0.142 HD
ENDBRANCH  13  16
ENDBRANCH   1  10
BRANCH   1  20
ATOM     19  C   LIG    1       23.624 -20.550   7.158  0.00  0.00    +0.005 C 
ATOM     20  C   LIG    1       24.940 -21.118   7.681  0.00  0.00    +0.017 C 
ENDBRANCH   1  20
TORSDOF 3
ENDMDL
MODEL 4
REMARK VINA RESULT:      -7.7      2.432      3.157
REMARK  Name = *****
REMARK                            x       y       z     vdW  Elec       q    Type
REMARK                         _______ _______ _______ _____ _____    ______ ____
ROOT
ATOM      1  C   LIG    1       25.790 -21.973   6.688  0.00  0.00    +0.072 C 
ATOM      2  C   LIG    1       25.747 -21.217   5.337  0.00  0.00    +0.230 C 
ATOM      3  O   LIG    1       24.907 -21.414   4.461  0.00  0.00    -0.274 OA
ATOM      4  N   LIG    1       26.669 -20.216   5.142  0.00  0.00    -0.256 N 
ATOM      5  H   LIG    1       26.585 -19.717   4.266  0.00  0.00    +0.158 HD
ATOM      6  C   LIG    1       27.732 -19.859   5.927  0.00  0.00    +0.219 C 
ATOM      7  O   LIG    1       28.473 -18.928   5.601  0.00  0.00    -0.275 OA
ATOM      8  C   LIG    1       27.902 -20.605   7.221  0.00  0.00    +0.097 C 
ATOM      9  C   LIG    1       27.275 -21.996   7.156  0.00  0.00    +0.030 C 
ENDROOT
BRANCH   1  10
ATOM     10  C   LIG    1       25.334 -23.448   6.562  0.00  0.00    -0.032 A 
ATOM     11  C   LIG    1       26.251 -24.502   6.414  0.00  0.00    +0.006 A 
ATOM     12  C   LIG    1       25.826 -25.835   6.288  0.00  0.00    +0.023 A 
ATOM     13  C   LIG    1       24.473 -26.166   6.333  0.00  0.00    +0.025 A 
ATOM     14  C   LIG    1       23.549 -25.126   6.385  0.00  0.00    +0.023 A 
ATOM     15  C   LIG    1       23.970 -23.793   6.504  0.00  0.00    +0.006 A 
BRANCH  13  16
ATOM     16  N   LIG    1       24.052 -27.479   6.089  0.00  0.00    -0.358 N 
ATOM     17  H   LIG    1       24.010 -28.055   6.923  0.00  0.00    +0.142 HD
ATOM     18  H   LIG    1       23.195 -27.534   5.547  0.00  0.00    +0.142 HD
ENDBRANCH  13  16
ENDBRANCH   1  10
BRANCH   1  20
ATOM     19  C   LIG    1       23.629 -20.571   7.185  0.00  0.00    +0.005 C 
ATOM     20  C   LIG    1       24.949 -21.132   7.705  0.00  0.00    +0.017 C 
ENDBRANCH   1  20
TORSDOF 3
ENDMDL
MODEL 5
REMARK VINA RESULT:      -7.6      5.792      8.108
REMARK  Name = *****
REMARK                            x       y       z     vdW  Elec       q    Type
REMARK                         _______ _______ _______ _____ _____    ______ ____
ROOT
ATOM      1  C   LIG    1       29.624 -19.518   7.707  0.00  0.00    +0.072 C 
ATOM      2  C   LIG    1       29.418 -19.032   6.251  0.00  0.00    +0.230 C 
ATOM      3  O   LIG    1       30.224 -18.338   5.634  0.00  0.00    -0.274 OA
ATOM      4  N   LIG    1       28.293 -19.467   5.591  0.00  0.00    -0.256 N 
ATOM      5  H   LIG    1       28.213 -19.163   4.630  0.00  0.00    +0.158 HD
ATOM      6  C   LIG    1       27.230 -20.179   6.078  0.00  0.00    +0.219 C 
ATOM      7  O   LIG    1       26.288 -20.488   5.344  0.00  0.00    -0.275 OA
ATOM      8  C   LIG    1       27.306 -20.616   7.514  0.00  0.00    +0.097 C 
ATOM      9  C   LIG    1       28.210 -19.701   8.336  0.00  0.00    +0.030 C 
ENDROOT
BRANCH   1  10
ATOM     10  C   LIG    1       30.376 -18.483   8.582  0.00  0.00    -0.032 A 
ATOM     11  C   LIG    1       31.713 -18.131   8.337  0.00  0.00    +0.006 A 
ATOM     12  C   LIG    1       32.388 -17.201   9.144  0.00  0.00    +0.023 A 
ATOM     13  C   LIG    1       31.744 -16.569  10.206  0.00  0.00    +0.025 A 
ATOM     14  C   LIG    1       30.451 -16.975  10.519  0.00  0.00    +0.023 A 
ATOM     15  C   LIG    1       29.775 -17.909   9.719  0.00  0.00    +0.006 A 
BRANCH  13  16
ATOM     16  N   LIG    1       32.457 -15.734  11.076  0.00  0.00    -0.358 N 
ATOM     17  H   LIG    1       32.613 -14.801  10.709  0.00  0.00    +0.142 HD
ATOM     18  H   LIG    1       32.076 -15.712  12.017  0.00  0.00    +0.142 HD
ENDBRANCH  13  16
ENDBRANCH   1  10
BRANCH   1  20
ATOM     19  C   LIG    1       30.812 -21.502   8.945  0.00  0.00    +0.005 C 
ATOM     20  C   LIG    1       30.328 -20.913   7.624  0.00  0.00    +0.017 C 
ENDBRANCH   1  20
TORSDOF 3
ENDMDL
MODEL 6
REMARK VINA RESULT:      -7.5      2.829      4.720
REMARK  Name = *****
REMARK                            x       y       z     vdW  Elec       q    Type
REMARK                         _______ _______ _______ _____ _____    ______ ____
ROOT
ATOM      1  C   LIG    1       25.549 -21.520   6.198  0.00  0.00    +0.072 C 
ATOM      2  C   LIG    1       24.521 -21.318   7.339  0.00  0.00    +0.230 C 
ATOM      3  O   LIG    1       24.527 -20.365   8.115  0.00  0.00    -0.274 OA
ATOM      4  N   LIG    1       23.497 -22.231   7.436  0.00  0.00    -0.256 N 
ATOM      5  H   LIG    1       22.822 -22.045   8.166  0.00  0.00    +0.158 HD
ATOM      6  C   LIG    1       23.314 -23.397   6.743  0.00  0.00    +0.219 C 
ATOM      7  O   LIG    1       22.331 -24.111   6.958  0.00  0.00    -0.275 OA
ATOM      8  C   LIG    1       24.321 -23.717   5.674  0.00  0.00    +0.097 C 
ATOM      9  C   LIG    1       25.667 -23.053   5.950  0.00  0.00    +0.030 C 
ENDROOT
BRANCH   1  10
ATOM     10  C   LIG    1       26.965 -21.014   6.575  0.00  0.00    -0.032 A 
ATOM     11  C   LIG    1       27.590 -19.963   5.884  0.00  0.00    +0.006 A 
ATOM     12  C   LIG    1       28.879 -19.523   6.227  0.00  0.00    +0.023 A 
ATOM     13  C   LIG    1       29.577 -20.094   7.289  0.00  0.00    +0.025 A 
ATOM     14  C   LIG    1       29.011 -21.196   7.922  0.00  0.00    +0.023 A 
ATOM     15  C   LIG    1       27.727 -21.645   7.578  0.00  0.00    +0.006 A 
BRANCH  13  16
ATOM     16  N   LIG    1       30.904 -19.730   7.548  0.00  0.00    -0.358 N 
ATOM     17  H   LIG    1       31.561 -20.062   6.849  0.00  0.00    +0.142 HD
ATOM     18  H   LIG    1       31.021 -18.739   7.738  0.00  0.00    +0.142 HD
ENDBRANCH  13  16
ENDBRANCH   1  10
BRANCH   1  20
ATOM     19  C   LIG    1       23.652 -20.066   5.118  0.00  0.00    +0.005 C 
ATOM     20  C   LIG    1       24.950 -20.841   4.922  0.00  0.00    +0.017 C 
ENDBRANCH   1  20
TORSDOF 3
ENDMDL
MODEL 7
REMARK VINA RESULT:      -7.2      2.943      5.475
REMARK  Name = *****
REMARK                            x       y       z     vdW  Elec       q    Type
REMARK                         _______ _______ _______ _____ _____    ______ ____
ROOT
ATOM      1  C   LIG    1       26.330 -20.937   6.535  0.00  0.00    +0.072 C 
ATOM      2  C   LIG    1       26.407 -20.482   8.013  0.00  0.00    +0.230 C 
ATOM      3  O   LIG    1       25.430 -20.350   8.748  0.00  0.00    -0.274 OA
ATOM      4  N   LIG    1       27.658 -20.283   8.550  0.00  0.00    -0.256 N 
ATOM      5  H   LIG    1       27.670 -20.027   9.528  0.00  0.00    +0.158 HD
ATOM      6  C   LIG    1       28.875 -20.300   7.926  0.00  0.00    +0.219 C 
ATOM      7  O   LIG    1       29.913 -20.095   8.561  0.00  0.00    -0.275 OA
ATOM      8  C   LIG    1       28.885 -20.645   6.463  0.00  0.00    +0.097 C 
ATOM      9  C   LIG    1       27.552 -20.313   5.797  0.00  0.00    +0.030 C 
ENDROOT
BRANCH   1  10
ATOM     10  C   LIG    1       25.058 -20.420   5.817  0.00  0.00    -0.032 A 
ATOM     11  C   LIG    1       25.112 -19.799   4.557  0.00  0.00    +0.006 A 
ATOM     12  C   LIG    1       23.954 -19.324   3.922  0.00  0.00    +0.023 A 
ATOM     13  C   LIG    1       22.698 -19.477   4.506  0.00  0.00    +0.025 A 
ATOM     14  C   LIG    1       22.638 -20.004   5.792  0.00  0.00    +0.023 A 
ATOM     15  C   LIG    1       23.794 -20.473   6.434  0.00  0.00    +0.006 A 
BRANCH  13  16
ATOM     16  N   LIG    1       21.565 -18.896   3.923  0.00  0.00    -0.358 N 
ATOM     17  H   LIG    1       20.894 -19.573   3.575  0.00  0.00    +0.142 HD
ATOM     18  H   LIG    1       21.125 -18.192   4.508  0.00  0.00    +0.142 HD
ENDBRANCH  13  16
ENDBRANCH   1  10
BRANCH   1  20
ATOM     19  C   LIG    1       25.454 -23.267   7.361  0.00  0.00    +0.005 C 
ATOM     20  C   LIG    1       26.475 -22.495   6.531  0.00  0.00    +0.017 C 
ENDBRANCH   1  20
TORSDOF 3
ENDMDL
MODEL 8
REMARK VINA RESULT:      -7.1      2.742      4.648
REMARK  Name = *****
REMARK                            x       y       z     vdW  Elec       q    Type
REMARK                         _______ _______ _______ _____ _____    ______ ____
ROOT
ATOM      1  C   LIG    1       25.461 -21.142   6.016  0.00  0.00    +0.072 C 
ATOM      2  C   LIG    1       25.018 -20.506   4.675  0.00  0.00    +0.230 C 
ATOM      3  O   LIG    1       25.793 -20.136   3.796  0.00  0.00    -0.274 OA
ATOM      4  N   LIG    1       23.667 -20.418   4.432  0.00  0.00    -0.256 N 
ATOM      5  H   LIG    1       23.416 -20.035   3.530  0.00  0.00    +0.158 HD
ATOM      6  C   LIG    1       22.621 -20.695   5.270  0.00  0.00    +0.219 C 
ATOM      7  O   LIG    1       21.455 -20.557   4.892  0.00  0.00    -0.275 OA
ATOM      8  C   LIG    1       22.965 -21.234   6.631  0.00  0.00    +0.097 C 
ATOM      9  C   LIG    1       24.364 -20.807   7.069  0.00  0.00    +0.030 C 
ENDROOT
BRANCH   1  10
ATOM     10  C   LIG    1       26.791 -20.550   6.546  0.00  0.00    -0.032 A 
ATOM     11  C   LIG    1       27.052 -20.415   7.921  0.00  0.00    +0.006 A 
ATOM     12  C   LIG    1       28.256 -19.866   8.389  0.00  0.00    +0.023 A 
ATOM     13  C   LIG    1       29.254 -19.459   7.506  0.00  0.00    +0.025 A 
ATOM     14  C   LIG    1       28.974 -19.500   6.144  0.00  0.00    +0.023 A 
ATOM     15  C   LIG    1       27.769 -20.041   5.671  0.00  0.00    +0.006 A 
BRANCH  13  16
ATOM     16  N   LIG    1       30.399 -18.805   7.977  0.00  0.00    -0.358 N 
ATOM     17  H   LIG    1       31.239 -19.024   7.451  0.00  0.00    +0.142 HD
ATOM     18  H   LIG    1       30.274 -17.804   8.092  0.00  0.00    +0.142 HD
ENDBRANCH  13  16
ENDBRANCH   1  10
BRANCH   1  20
ATOM     19  C   LIG    1       25.877 -23.536   7.004  0.00  0.00    +0.005 C 
ATOM     20  C   LIG    1       25.497 -22.690   5.793  0.00  0.00    +0.017 C 
ENDBRANCH   1  20
TORSDOF 3
ENDMDL
MODEL 9
REMARK VINA RESULT:      -7.0      2.419      5.385
REMARK  Name = *****
REMARK                            x       y       z     vdW  Elec       q    Type
REMARK                         _______ _______ _______ _____ _____    ______ ____
ROOT
ATOM      1  C   LIG    1       24.679 -23.223   5.953  0.00  0.00    +0.072 C 
ATOM      2  C   LIG    1       25.770 -23.614   6.980  0.00  0.00    +0.230 C 
ATOM      3  O   LIG    1       26.402 -22.807   7.659  0.00  0.00    -0.274 OA
ATOM      4  N   LIG    1       25.988 -24.955   7.191  0.00  0.00    -0.256 N 
ATOM      5  H   LIG    1       26.677 -25.173   7.898  0.00  0.00    +0.158 HD
ATOM      6  C   LIG    1       25.467 -26.029   6.521  0.00  0.00    +0.219 C 
ATOM      7  O   LIG    1       25.774 -27.181   6.839  0.00  0.00    -0.275 OA
ATOM      8  C   LIG    1       24.463 -25.734   5.441  0.00  0.00    +0.097 C 
ATOM      9  C   LIG    1       24.653 -24.334   4.862  0.00  0.00    +0.030 C 
ENDROOT
BRANCH   1  10
ATOM     10  C   LIG    1       24.992 -21.888   5.229  0.00  0.00    -0.032 A 
ATOM     11  C   LIG    1       26.020 -21.031   5.657  0.00  0.00    +0.006 A 
ATOM     12  C   LIG    1       26.286 -19.819   5.000  0.00  0.00    +0.023 A 
ATOM     13  C   LIG    1       25.556 -19.432   3.877  0.00  0.00    +0.025 A 
ATOM     14  C   LIG    1       24.476 -20.223   3.499  0.00  0.00    +0.023 A 
ATOM     15  C   LIG    1       24.202 -21.432   4.157  0.00  0.00    +0.006 A 
BRANCH  13  16
ATOM     16  N   LIG    1       25.749 -18.170   3.302  0.00  0.00    -0.358 N 
ATOM     17  H   LIG    1       25.421 -18.105   2.344  0.00  0.00    +0.142 HD
ATOM     18  H   LIG    1       25.400 -17.408   3.875  0.00  0.00    +0.142 HD
ENDBRANCH  13  16
ENDBRANCH   1  10
BRANCH   1  20
ATOM     19  C   LIG    1       22.978 -21.964   7.503  0.00  0.00    +0.005 C 
ATOM     20  C   LIG    1       23.313 -23.227   6.717  0.00  0.00    +0.017 C 
ENDBRANCH   1  20
TORSDOF 3
ENDMDL
