MODEL 1
REMARK VINA RESULT:      -3.9      0.000      0.000
REMARK  Name = *****
REMARK                            x       y       z     vdW  Elec       q    Type
REMARK                         _______ _______ _______ _____ _____    ______ ____
ROOT
ATOM      1  C   LIG    1       31.127 -20.781   8.716  0.00  0.00    +0.105 C 
ATOM      2  N   LIG    1       31.517 -19.634   7.885  0.00  0.00    -0.303 NA
ENDROOT
BRANCH   2   3
ATOM      3  C   LIG    1       31.735 -18.424   8.721  0.00  0.00    +0.100 C 
BRANCH   3   4
ATOM      4  C   LIG    1       30.440 -17.683   9.086  0.00  0.00    +0.124 C 
ATOM      5 CL   LIG    1       30.294 -17.496  10.855  0.00  0.00    -0.124 Cl
ENDBRANCH   3   4
ENDBRANCH   2   3
BRANCH   2   6
ATOM      6  C   LIG    1       30.492 -19.354   6.849  0.00  0.00    +0.100 C 
BRANCH   6   7
ATOM      7  C   LIG    1       29.338 -20.367   6.798  0.00  0.00    +0.124 C 
ATOM      8 CL   LIG    1       28.088 -19.832   5.641  0.00  0.00    -0.124 Cl
ENDBRANCH   6   7
ENDBRANCH   2   6
TORSDOF 4
ENDMDL
MODEL 2
REMARK VINA RESULT:      -3.9      1.675      3.497
REMARK  Name = *****
REMARK                            x       y       z     vdW  Elec       q    Type
REMARK                         _______ _______ _______ _____ _____    ______ ____
ROOT
ATOM      1  C   LIG    1       31.125 -21.846   9.084  0.00  0.00    +0.105 C 
ATOM      2  N   LIG    1       30.280 -20.744   8.605  0.00  0.00    -0.303 NA
ENDROOT
BRANCH   2   3
ATOM      3  C   LIG    1       29.114 -21.263   7.841  0.00  0.00    +0.100 C 
BRANCH   3   4
ATOM      4  C   LIG    1       28.112 -20.176   7.429  0.00  0.00    +0.124 C 
ATOM      5 CL   LIG    1       26.554 -20.397   8.272  0.00  0.00    -0.124 Cl
ENDBRANCH   3   4
ENDBRANCH   2   3
BRANCH   2   6
ATOM      6  C   LIG    1       31.058 -19.802   7.762  0.00  0.00    +0.100 C 
BRANCH   6   7
ATOM      7  C   LIG    1       31.525 -18.530   8.486  0.00  0.00    +0.124 C 
ATOM      8 CL   LIG    1       30.139 -17.705   9.254  0.00  0.00    -0.124 Cl
ENDBRANCH   6   7
ENDBRANCH   2   6
TORSDOF 4
ENDMDL
MODEL 3
REMARK VINA RESULT:      -3.9      6.572      7.612
REMARK  Name = *****
REMARK                            x       y       z     vdW  Elec       q    Type
REMARK                         _______ _______ _______ _____ _____    ______ ____
ROOT
ATOM      1  C   LIG    1       25.479 -20.677   7.586  0.00  0.00    +0.105 C 
ATOM      2  N   LIG    1       24.750 -20.863   6.324  0.00  0.00    -0.303 NA
ENDROOT
BRANCH   2   3
ATOM      3  C   LIG    1       23.302 -20.575   6.500  0.00  0.00    +0.100 C 
BRANCH   3   4
ATOM      4  C   LIG    1       22.535 -20.436   5.178  0.00  0.00    +0.124 C 
ATOM      5 CL   LIG    1       22.295 -18.718   4.761  0.00  0.00    -0.124 Cl
ENDBRANCH   3   4
ENDBRANCH   2   3
BRANCH   2   6
ATOM      6  C   LIG    1       24.932 -22.240   5.802  0.00  0.00    +0.100 C 
BRANCH   6   7
ATOM      7  C   LIG    1       24.902 -23.341   6.874  0.00  0.00    +0.124 C 
ATOM      8 CL   LIG    1       23.439 -24.349   6.692  0.00  0.00    -0.124 Cl
ENDBRANCH   6   7
ENDBRANCH   2   6
TORSDOF 4
ENDMDL
MODEL 4
REMARK VINA RESULT:      -3.9      7.576      8.238
REMARK  Name = *****
REMARK                            x       y       z     vdW  Elec       q    Type
REMARK                         _______ _______ _______ _____ _____    ______ ____
ROOT
ATOM      1  C   LIG    1       24.667 -21.647   4.919  0.00  0.00    +0.105 C 
ATOM      2  N   LIG    1       24.332 -21.233   6.288  0.00  0.00    -0.303 NA
ENDROOT
BRANCH   2   3
ATOM      3  C   LIG    1       24.213 -22.413   7.184  0.00  0.00    +0.100 C 
BRANCH   3   4
ATOM      4  C   LIG    1       23.097 -23.387   6.779  0.00  0.00    +0.124 C 
ATOM      5 CL   LIG    1       23.763 -25.005   6.429  0.00  0.00    -0.124 Cl
ENDBRANCH   3   4
ENDBRANCH   2   3
BRANCH   2   6
ATOM      6  C   LIG    1       23.073 -20.448   6.316  0.00  0.00    +0.100 C 
BRANCH   6   7
ATOM      7  C   LIG    1       22.450 -20.188   4.935  0.00  0.00    +0.124 C 
ATOM      8 CL   LIG    1       22.289 -18.433   4.645  0.00  0.00    -0.124 Cl
ENDBRANCH   6   7
ENDBRANCH   2   6
TORSDOF 4
ENDMDL
MODEL 5
REMARK VINA RESULT:      -3.8      6.979      7.816
REMARK  Name = *****
REMARK                            x       y       z     vdW  Elec       q    Type
REMARK                         _______ _______ _______ _____ _____    ______ ____
ROOT
ATOM      1  C   LIG    1       24.882 -20.803   6.802  0.00  0.00    +0.105 C 
ATOM      2  N   LIG    1       24.960 -21.359   5.445  0.00  0.00    -0.303 NA
ENDROOT
BRANCH   2   3
ATOM      3  C   LIG    1       23.920 -20.762   4.567  0.00  0.00    +0.100 C 
BRANCH   3   4
ATOM      4  C   LIG    1       22.703 -20.220   5.330  0.00  0.00    +0.124 C 
ATOM      5 CL   LIG    1       22.264 -18.591   4.747  0.00  0.00    -0.124 Cl
ENDBRANCH   3   4
ENDBRANCH   2   3
BRANCH   2   6
ATOM      6  C   LIG    1       24.817 -22.837   5.465  0.00  0.00    +0.100 C 
BRANCH   6   7
ATOM      7  C   LIG    1       24.317 -23.414   6.798  0.00  0.00    +0.124 C 
ATOM      8 CL   LIG    1       22.540 -23.590   6.775  0.00  0.00    -0.124 Cl
ENDBRANCH   6   7
ENDBRANCH   2   6
TORSDOF 4
ENDMDL
MODEL 6
REMARK VINA RESULT:      -3.8      5.742      7.492
REMARK  Name = *****
REMARK                            x       y       z     vdW  Elec       q    Type
REMARK                         _______ _______ _______ _____ _____    ______ ____
ROOT
ATOM      1  C   LIG    1       23.149 -22.925   6.830  0.00  0.00    +0.105 C 
ATOM      2  N   LIG    1       23.648 -21.818   7.656  0.00  0.00    -0.303 NA
ENDROOT
BRANCH   2   3
ATOM      3  C   LIG    1       23.403 -20.510   6.995  0.00  0.00    +0.100 C 
BRANCH   3   4
ATOM      4  C   LIG    1       22.882 -20.633   5.556  0.00  0.00    +0.124 C 
ATOM      5 CL   LIG    1       22.362 -19.043   4.932  0.00  0.00    -0.124 Cl
ENDBRANCH   3   4
ENDBRANCH   2   3
BRANCH   2   6
ATOM      6  C   LIG    1       25.096 -21.977   7.941  0.00  0.00    +0.100 C 
BRANCH   6   7
ATOM      7  C   LIG    1       25.829 -20.670   8.280  0.00  0.00    +0.124 C 
ATOM      8 CL   LIG    1       27.046 -20.294   7.027  0.00  0.00    -0.124 Cl
ENDBRANCH   6   7
ENDBRANCH   2   6
TORSDOF 4
ENDMDL
MODEL 7
REMARK VINA RESULT:      -3.8      5.837      6.874
REMARK  Name = *****
REMARK                            x       y       z     vdW  Elec       q    Type
REMARK                         _______ _______ _______ _____ _____    ______ ____
ROOT
ATOM      1  C   LIG    1       25.245 -20.506   4.952  0.00  0.00    +0.105 C 
ATOM      2  N   LIG    1       24.691 -20.755   6.289  0.00  0.00    -0.303 NA
ENDROOT
BRANCH   2   3
ATOM      3  C   LIG    1       25.009 -22.133   6.747  0.00  0.00    +0.100 C 
BRANCH   3   4
ATOM      4  C   LIG    1       25.722 -22.185   8.106  0.00  0.00    +0.124 C 
ATOM      5 CL   LIG    1       26.048 -20.538   8.713  0.00  0.00    -0.124 Cl
ENDBRANCH   3   4
ENDBRANCH   2   3
BRANCH   2   6
ATOM      6  C   LIG    1       23.222 -20.543   6.307  0.00  0.00    +0.100 C 
BRANCH   6   7
ATOM      7  C   LIG    1       22.593 -20.306   4.925  0.00  0.00    +0.124 C 
ATOM      8 CL   LIG    1       22.219 -18.575   4.698  0.00  0.00    -0.124 Cl
ENDBRANCH   6   7
ENDBRANCH   2   6
TORSDOF 4
ENDMDL
MODEL 8
REMARK VINA RESULT:      -3.8      5.552      7.448
REMARK  Name = *****
REMARK                            x       y       z     vdW  Elec       q    Type
REMARK                         _______ _______ _______ _____ _____    ______ ____
ROOT
ATOM      1  C   LIG    1       25.662 -19.940   4.373  0.00  0.00    +0.105 C 
ATOM      2  N   LIG    1       24.810 -21.031   4.865  0.00  0.00    -0.303 NA
ENDROOT
BRANCH   2   3
ATOM      3  C   LIG    1       23.396 -20.826   4.454  0.00  0.00    +0.100 C 
BRANCH   3   4
ATOM      4  C   LIG    1       22.624 -19.856   5.360  0.00  0.00    +0.124 C 
ATOM      5 CL   LIG    1       22.248 -18.342   4.493  0.00  0.00    -0.124 Cl
ENDBRANCH   3   4
ENDBRANCH   2   3
BRANCH   2   6
ATOM      6  C   LIG    1       24.895 -21.149   6.342  0.00  0.00    +0.100 C 
BRANCH   6   7
ATOM      7  C   LIG    1       26.172 -20.559   6.959  0.00  0.00    +0.124 C 
ATOM      8 CL   LIG    1       26.052 -20.538   8.741  0.00  0.00    -0.124 Cl
ENDBRANCH   6   7
ENDBRANCH   2   6
TORSDOF 4
ENDMDL
MODEL 9
REMARK VINA RESULT:      -3.8      7.649      8.169
REMARK  Name = *****
REMARK                            x       y       z     vdW  Elec       q    Type
REMARK                         _______ _______ _______ _____ _____    ______ ____
ROOT
ATOM      1  C   LIG    1       22.707 -23.525   6.751  0.00  0.00    +0.105 C 
ATOM      2  N   LIG    1       23.824 -22.571   6.779  0.00  0.00    -0.303 NA
ENDROOT
BRANCH   2   3
ATOM      3  C   LIG    1       23.332 -21.174   6.656  0.00  0.00    +0.100 C 
BRANCH   3   4
ATOM      4  C   LIG    1       22.584 -20.896   5.344  0.00  0.00    +0.124 C 
ATOM      5 CL   LIG    1       22.429 -19.140   5.063  0.00  0.00    -0.124 Cl
ENDBRANCH   3   4
ENDBRANCH   2   3
BRANCH   2   6
ATOM      6  C   LIG    1       24.799 -22.860   5.697  0.00  0.00    +0.100 C 
BRANCH   6   7
ATOM      7  C   LIG    1       25.045 -24.355   5.440  0.00  0.00    +0.124 C 
ATOM      8 CL   LIG    1       25.922 -25.089   6.812  0.00  0.00    -0.124 Cl
ENDBRANCH   6   7
ENDBRANCH   2   6
TORSDOF 4
ENDMDL
