MODEL 1
REMARK VINA RESULT:      11.2      0.000      0.000
REMARK  Name = *****
REMARK                            x       y       z     vdW  Elec       q    Type
REMARK                         _______ _______ _______ _____ _____    ______ ____
ROOT
ATOM      1  C   LIG    1       27.090 -19.553   7.005  0.00  0.00    +0.073 C 
ATOM      2  C   LIG    1       26.231 -20.065   5.844  0.00  0.00    +0.166 C 
ATOM      3  O   LIG    1       24.941 -19.340   5.883  0.00  0.00    -0.332 OA
ATOM      4  C   LIG    1       24.770 -18.887   4.532  0.00  0.00    +0.164 C 
ATOM      5  C   LIG    1       26.229 -18.599   4.219  0.00  0.00    +0.162 C 
ATOM      6  C   LIG    1       26.209 -17.798   2.927  0.00  0.00    +0.039 C 
ATOM      7  C   LIG    1       25.249 -16.717   3.470  0.00  0.00    +0.004 C 
ATOM      8  C   LIG    1       24.766 -15.490   2.709  0.00  0.00    +0.002 C 
ATOM      9  C   LIG    1       24.146 -14.489   3.751  0.00  0.00    +0.035 C 
ATOM     10  C   LIG    1       23.189 -15.192   4.799  0.00  0.00    +0.120 C 
ATOM     11  C   LIG    1       23.553 -16.635   5.267  0.00  0.00    +0.042 C 
ATOM     12  C   LIG    1       25.168 -13.473   4.437  0.00  0.00    +0.016 C 
ATOM     13  C   LIG    1       26.304 -13.027   3.491  0.00  0.00    -0.023 C 
ATOM     14  C   LIG    1       27.203 -12.126   3.954  0.00  0.00    +0.053 C 
ATOM     15  C   LIG    1       27.887 -12.658   5.195  0.00  0.00    +0.179 C 
ATOM     16  C   LIG    1       27.111 -13.613   6.042  0.00  0.00    +0.047 C 
ATOM     17  O   LIG    1       28.981 -12.236   5.546  0.00  0.00    -0.288 OA
ATOM     18  C   LIG    1       26.880 -14.094   2.587  0.00  0.00    +0.193 C 
ATOM     19  F   LIG    1       27.591 -15.000   3.312  0.00  0.00    -0.241 F 
ATOM     20  C   LIG    1       24.330 -12.220   4.842  0.00  0.00    +0.020 C 
ATOM     21  C   LIG    1       25.854 -13.965   5.714  0.00  0.00    -0.012 C 
ATOM     22  C   LIG    1       25.810 -14.827   1.812  0.00  0.00    +0.045 C 
ATOM     23  C   LIG    1       24.069 -17.526   4.129  0.00  0.00    +0.012 C 
ATOM     24  C   LIG    1       22.920 -17.780   3.106  0.00  0.00    +0.015 C 
ATOM     25  O   LIG    1       26.880 -19.793   4.563  0.00  0.00    -0.343 OA
ATOM     26  C   LIG    1       26.036 -21.571   5.984  0.00  0.00    +0.073 C 
ENDROOT
BRANCH  10  27
ATOM     27  O   LIG    1       21.865 -15.236   4.253  0.00  0.00    -0.391 OA
ATOM     28  H   LIG    1       21.931 -15.139   3.288  0.00  0.00    +0.210 HD
ENDBRANCH  10  27
BRANCH   4  29
ATOM     29  C   LIG    1       24.180 -20.103   3.761  0.00  0.00    +0.193 C 
ATOM     30  O   LIG    1       24.571 -20.462   2.645  0.00  0.00    -0.292 OA
BRANCH  29  31
ATOM     31  C   LIG    1       23.026 -20.850   4.436  0.00  0.00    +0.233 C 
BRANCH  31  32
ATOM     32  O   LIG    1       22.512 -20.110   5.536  0.00  0.00    -0.387 OA
ATOM     33  H   LIG    1       22.973 -20.452   6.329  0.00  0.00    +0.210 HD
ENDBRANCH  31  32
ENDBRANCH  29  31
ENDBRANCH   4  29
TORSDOF 4
ENDMDL
MODEL 2
REMARK VINA RESULT:      14.0      1.136      1.184
REMARK  Name = *****
REMARK                            x       y       z     vdW  Elec       q    Type
REMARK                         _______ _______ _______ _____ _____    ______ ____
ROOT
ATOM      1  C   LIG    1       26.743 -19.915   5.743  0.00  0.00    +0.073 C 
ATOM      2  C   LIG    1       25.436 -20.105   4.967  0.00  0.00    +0.166 C 
ATOM      3  O   LIG    1       24.419 -19.213   5.569  0.00  0.00    -0.332 OA
ATOM      4  C   LIG    1       23.857 -18.533   4.437  0.00  0.00    +0.164 C 
ATOM      5  C   LIG    1       25.125 -18.417   3.609  0.00  0.00    +0.162 C 
ATOM      6  C   LIG    1       24.790 -17.428   2.504  0.00  0.00    +0.039 C 
ATOM      7  C   LIG    1       24.329 -16.317   3.472  0.00  0.00    +0.004 C 
ATOM      8  C   LIG    1       23.851 -14.928   3.072  0.00  0.00    +0.002 C 
ATOM      9  C   LIG    1       23.866 -14.024   4.358  0.00  0.00    +0.035 C 
ATOM     10  C   LIG    1       23.242 -14.734   5.629  0.00  0.00    +0.120 C 
ATOM     11  C   LIG    1       23.463 -16.271   5.787  0.00  0.00    +0.042 C 
ATOM     12  C   LIG    1       25.247 -13.290   4.680  0.00  0.00    +0.016 C 
ATOM     13  C   LIG    1       26.020 -12.873   3.410  0.00  0.00    -0.023 C 
ATOM     14  C   LIG    1       27.185 -12.198   3.565  0.00  0.00    +0.053 C 
ATOM     15  C   LIG    1       28.158 -13.014   4.389  0.00  0.00    +0.179 C 
ATOM     16  C   LIG    1       27.575 -13.965   5.383  0.00  0.00    +0.047 C 
ATOM     17  O   LIG    1       29.364 -12.818   4.323  0.00  0.00    -0.288 OA
ATOM     18  C   LIG    1       26.003 -13.857   2.262  0.00  0.00    +0.193 C 
ATOM     19  F   LIG    1       26.738 -14.960   2.569  0.00  0.00    -0.241 F 
ATOM     20  C   LIG    1       24.879 -12.007   5.490  0.00  0.00    +0.020 C 
ATOM     21  C   LIG    1       26.242 -14.073   5.540  0.00  0.00    -0.012 C 
ATOM     22  C   LIG    1       24.601 -14.292   1.903  0.00  0.00    +0.045 C 
ATOM     23  C   LIG    1       23.339 -17.038   4.463  0.00  0.00    +0.012 C 
ATOM     24  C   LIG    1       21.869 -16.955   3.950  0.00  0.00    +0.015 C 
ATOM     25  O   LIG    1       25.609 -19.733   3.564  0.00  0.00    -0.343 OA
ATOM     26  C   LIG    1       25.014 -21.569   5.037  0.00  0.00    +0.073 C 
ENDROOT
BRANCH  10  27
ATOM     27  O   LIG    1       21.830 -14.497   5.639  0.00  0.00    -0.391 OA
ATOM     28  H   LIG    1       21.627 -13.903   6.382  0.00  0.00    +0.210 HD
ENDBRANCH  10  27
BRANCH   4  29
ATOM     29  C   LIG    1       22.799 -19.512   3.852  0.00  0.00    +0.193 C 
ATOM     30  O   LIG    1       22.713 -19.789   2.651  0.00  0.00    -0.292 OA
BRANCH  29  31
ATOM     31  C   LIG    1       21.801 -20.118   4.843  0.00  0.00    +0.233 C 
BRANCH  31  32
ATOM     32  O   LIG    1       21.873 -21.538   4.837  0.00  0.00    -0.387 OA
ATOM     33  H   LIG    1       20.971 -21.853   4.624  0.00  0.00    +0.210 HD
ENDBRANCH  31  32
ENDBRANCH  29  31
ENDBRANCH   4  29
TORSDOF 4
ENDMDL
