MODEL 1
REMARK VINA RESULT:      -6.9      0.000      0.000
REMARK  Name = *****
REMARK                            x       y       z     vdW  Elec       q    Type
REMARK                         _______ _______ _______ _____ _____    ______ ____
ROOT
ATOM      1  C   LIG    1       25.766 -19.507   3.992  0.00  0.00    +0.155 C 
ATOM      2  N   LIG    1       26.255 -20.150   5.197  0.00  0.00    -0.280 N 
ATOM      3  C   LIG    1       25.491 -21.142   5.814  0.00  0.00    +0.333 C 
ATOM      4  O   LIG    1       24.376 -21.464   5.392  0.00  0.00    -0.246 OA
ATOM      5  N   LIG    1       26.039 -21.757   6.955  0.00  0.00    -0.262 N 
ATOM      6  C   LIG    1       25.236 -22.766   7.619  0.00  0.00    +0.157 C 
ATOM      7  C   LIG    1       27.215 -21.368   7.582  0.00  0.00    +0.282 C 
ATOM      8  O   LIG    1       27.552 -21.781   8.697  0.00  0.00    -0.265 OA
ATOM      9  C   LIG    1       27.962 -20.407   6.853  0.00  0.00    +0.151 A 
ATOM     10  N   LIG    1       29.193 -19.843   7.054  0.00  0.00    -0.322 N 
ATOM     11  C   LIG    1       29.395 -18.956   6.024  0.00  0.00    +0.202 A 
ATOM     12  N   LIG    1       28.367 -18.924   5.200  0.00  0.00    -0.218 NA
ATOM     13  C   LIG    1       27.490 -19.831   5.709  0.00  0.00    +0.168 A 
ENDROOT
BRANCH  10  14
ATOM     14  C   LIG    1       30.170 -20.187   8.063  0.00  0.00    +0.157 C 
BRANCH  14  15
ATOM     15  C   LIG    1       31.035 -19.023   8.562  0.00  0.00    +0.160 C 
BRANCH  15  16
ATOM     16  O   LIG    1       32.173 -19.589   9.234  0.00  0.00    -0.388 OA
ATOM     17  H   LIG    1       31.878 -20.478   9.528  0.00  0.00    +0.210 HD
ENDBRANCH  15  16
BRANCH  15  18
ATOM     18  C   LIG    1       30.341 -18.066   9.538  0.00  0.00    +0.188 C 
BRANCH  18  19
ATOM     19  O   LIG    1       30.557 -18.507  10.877  0.00  0.00    -0.392 OA
ATOM     20  H   LIG    1       31.346 -18.029  11.213  0.00  0.00    +0.209 HD
ENDBRANCH  18  19
ENDBRANCH  15  18
ENDBRANCH  14  15
ENDBRANCH  10  14
TORSDOF 5
ENDMDL
MODEL 2
REMARK VINA RESULT:      -6.7      1.121      1.319
REMARK  Name = *****
REMARK                            x       y       z     vdW  Elec       q    Type
REMARK                         _______ _______ _______ _____ _____    ______ ____
ROOT
ATOM      1  C   LIG    1       25.128 -19.522   3.764  0.00  0.00    +0.155 C 
ATOM      2  N   LIG    1       25.443 -20.234   4.988  0.00  0.00    -0.280 N 
ATOM      3  C   LIG    1       24.476 -21.039   5.592  0.00  0.00    +0.333 C 
ATOM      4  O   LIG    1       23.330 -21.133   5.140  0.00  0.00    -0.246 OA
ATOM      5  N   LIG    1       24.855 -21.736   6.754  0.00  0.00    -0.262 N 
ATOM      6  C   LIG    1       23.845 -22.550   7.403  0.00  0.00    +0.157 C 
ATOM      7  C   LIG    1       26.068 -21.585   7.412  0.00  0.00    +0.282 C 
ATOM      8  O   LIG    1       26.283 -22.042   8.540  0.00  0.00    -0.265 OA
ATOM      9  C   LIG    1       27.016 -20.809   6.697  0.00  0.00    +0.151 A 
ATOM     10  N   LIG    1       28.330 -20.505   6.929  0.00  0.00    -0.322 N 
ATOM     11  C   LIG    1       28.737 -19.693   5.898  0.00  0.00    +0.202 A 
ATOM     12  N   LIG    1       27.760 -19.464   5.043  0.00  0.00    -0.218 NA
ATOM     13  C   LIG    1       26.703 -20.166   5.534  0.00  0.00    +0.168 A 
ENDROOT
BRANCH  10  14
ATOM     14  C   LIG    1       29.188 -21.026   7.970  0.00  0.00    +0.157 C 
BRANCH  14  15
ATOM     15  C   LIG    1       30.610 -20.453   7.996  0.00  0.00    +0.160 C 
BRANCH  15  16
ATOM     16  O   LIG    1       31.497 -21.517   8.380  0.00  0.00    -0.388 OA
ATOM     17  H   LIG    1       32.052 -21.138   9.095  0.00  0.00    +0.210 HD
ENDBRANCH  15  16
BRANCH  15  18
ATOM     18  C   LIG    1       30.826 -19.286   8.968  0.00  0.00    +0.188 C 
BRANCH  18  19
ATOM     19  O   LIG    1       32.176 -19.289   9.427  0.00  0.00    -0.392 OA
ATOM     20  H   LIG    1       32.748 -19.196   8.635  0.00  0.00    +0.209 HD
ENDBRANCH  18  19
ENDBRANCH  15  18
ENDBRANCH  14  15
ENDBRANCH  10  14
TORSDOF 5
ENDMDL
MODEL 3
REMARK VINA RESULT:      -6.6      1.924      3.747
REMARK  Name = *****
REMARK                            x       y       z     vdW  Elec       q    Type
REMARK                         _______ _______ _______ _____ _____    ______ ____
ROOT
ATOM      1  C   LIG    1       22.863 -23.013   6.823  0.00  0.00    +0.155 C 
ATOM      2  N   LIG    1       23.675 -21.987   6.195  0.00  0.00    -0.280 N 
ATOM      3  C   LIG    1       23.087 -21.083   5.308  0.00  0.00    +0.333 C 
ATOM      4  O   LIG    1       21.893 -21.155   4.999  0.00  0.00    -0.246 OA
ATOM      5  N   LIG    1       23.918 -20.087   4.764  0.00  0.00    -0.262 N 
ATOM      6  C   LIG    1       23.321 -19.163   3.818  0.00  0.00    +0.157 C 
ATOM      7  C   LIG    1       25.293 -20.012   4.941  0.00  0.00    +0.282 C 
ATOM      8  O   LIG    1       26.017 -19.262   4.278  0.00  0.00    -0.265 OA
ATOM      9  C   LIG    1       25.796 -20.919   5.909  0.00  0.00    +0.151 A 
ATOM     10  N   LIG    1       27.041 -21.104   6.448  0.00  0.00    -0.322 N 
ATOM     11  C   LIG    1       26.937 -22.149   7.334  0.00  0.00    +0.202 A 
ATOM     12  N   LIG    1       25.712 -22.633   7.375  0.00  0.00    -0.218 NA
ATOM     13  C   LIG    1       25.009 -21.862   6.503  0.00  0.00    +0.168 A 
ENDROOT
BRANCH  10  14
ATOM     14  C   LIG    1       28.221 -20.292   6.247  0.00  0.00    +0.157 C 
BRANCH  14  15
ATOM     15  C   LIG    1       29.238 -20.321   7.394  0.00  0.00    +0.160 C 
BRANCH  15  16
ATOM     16  O   LIG    1       28.655 -19.618   8.505  0.00  0.00    -0.388 OA
ATOM     17  H   LIG    1       28.127 -18.897   8.100  0.00  0.00    +0.210 HD
ENDBRANCH  15  16
BRANCH  15  18
ATOM     18  C   LIG    1       30.591 -19.668   7.084  0.00  0.00    +0.188 C 
BRANCH  18  19
ATOM     19  O   LIG    1       31.636 -20.413   7.705  0.00  0.00    -0.392 OA
ATOM     20  H   LIG    1       31.228 -20.923   8.439  0.00  0.00    +0.209 HD
ENDBRANCH  18  19
ENDBRANCH  15  18
ENDBRANCH  14  15
ENDBRANCH  10  14
TORSDOF 5
ENDMDL
MODEL 4
REMARK VINA RESULT:      -6.2      1.460      2.710
REMARK  Name = *****
REMARK                            x       y       z     vdW  Elec       q    Type
REMARK                         _______ _______ _______ _____ _____    ______ ____
ROOT
ATOM      1  C   LIG    1       26.132 -22.878   7.788  0.00  0.00    +0.155 C 
ATOM      2  N   LIG    1       26.768 -21.778   7.088  0.00  0.00    -0.280 N 
ATOM      3  C   LIG    1       26.081 -21.113   6.070  0.00  0.00    +0.333 C 
ATOM      4  O   LIG    1       24.953 -21.463   5.708  0.00  0.00    -0.246 OA
ATOM      5  N   LIG    1       26.734 -20.029   5.457  0.00  0.00    -0.262 N 
ATOM      6  C   LIG    1       26.038 -19.354   4.379  0.00  0.00    +0.157 C 
ATOM      7  C   LIG    1       28.049 -19.651   5.699  0.00  0.00    +0.282 C 
ATOM      8  O   LIG    1       28.656 -18.840   4.992  0.00  0.00    -0.265 OA
ATOM      9  C   LIG    1       28.647 -20.328   6.793  0.00  0.00    +0.151 A 
ATOM     10  N   LIG    1       29.858 -20.192   7.417  0.00  0.00    -0.322 N 
ATOM     11  C   LIG    1       29.898 -21.138   8.413  0.00  0.00    +0.202 A 
ATOM     12  N   LIG    1       28.796 -21.859   8.445  0.00  0.00    -0.218 NA
ATOM     13  C   LIG    1       28.021 -21.347   7.451  0.00  0.00    +0.168 A 
ENDROOT
BRANCH  10  14
ATOM     14  C   LIG    1       30.863 -19.178   7.186  0.00  0.00    +0.157 C 
BRANCH  14  15
ATOM     15  C   LIG    1       31.348 -18.439   8.439  0.00  0.00    +0.160 C 
BRANCH  15  16
ATOM     16  O   LIG    1       32.192 -19.343   9.172  0.00  0.00    -0.388 OA
ATOM     17  H   LIG    1       32.919 -18.783   9.522  0.00  0.00    +0.210 HD
ENDBRANCH  15  16
BRANCH  15  18
ATOM     18  C   LIG    1       30.240 -17.959   9.384  0.00  0.00    +0.188 C 
BRANCH  18  19
ATOM     19  O   LIG    1       30.481 -18.458  10.698  0.00  0.00    -0.392 OA
ATOM     20  H   LIG    1       29.606 -18.662  11.092  0.00  0.00    +0.209 HD
ENDBRANCH  18  19
ENDBRANCH  15  18
ENDBRANCH  14  15
ENDBRANCH  10  14
TORSDOF 5
ENDMDL
MODEL 5
REMARK VINA RESULT:      -6.1      1.689      5.584
REMARK  Name = *****
REMARK                            x       y       z     vdW  Elec       q    Type
REMARK                         _______ _______ _______ _____ _____    ______ ____
ROOT
ATOM      1  C   LIG    1       29.113 -17.988   4.839  0.00  0.00    +0.155 C 
ATOM      2  N   LIG    1       28.909 -19.008   5.850  0.00  0.00    -0.280 N 
ATOM      3  C   LIG    1       29.878 -19.213   6.835  0.00  0.00    +0.333 C 
ATOM      4  O   LIG    1       30.938 -18.580   6.849  0.00  0.00    -0.246 OA
ATOM      5  N   LIG    1       29.603 -20.188   7.811  0.00  0.00    -0.262 N 
ATOM      6  C   LIG    1       30.619 -20.428   8.818  0.00  0.00    +0.157 C 
ATOM      7  C   LIG    1       28.509 -21.043   7.798  0.00  0.00    +0.282 C 
ATOM      8  O   LIG    1       28.413 -22.025   8.542  0.00  0.00    -0.265 OA
ATOM      9  C   LIG    1       27.542 -20.721   6.811  0.00  0.00    +0.151 A 
ATOM     10  N   LIG    1       26.303 -21.228   6.526  0.00  0.00    -0.322 N 
ATOM     11  C   LIG    1       25.830 -20.531   5.441  0.00  0.00    +0.202 A 
ATOM     12  N   LIG    1       26.696 -19.629   5.025  0.00  0.00    -0.218 NA
ATOM     13  C   LIG    1       27.747 -19.741   5.882  0.00  0.00    +0.168 A 
ENDROOT
BRANCH  10  14
ATOM     14  C   LIG    1       25.555 -22.210   7.280  0.00  0.00    +0.157 C 
BRANCH  14  15
ATOM     15  C   LIG    1       24.084 -22.365   6.874  0.00  0.00    +0.160 C 
BRANCH  15  16
ATOM     16  O   LIG    1       23.291 -21.681   7.860  0.00  0.00    -0.388 OA
ATOM     17  H   LIG    1       23.482 -22.144   8.704  0.00  0.00    +0.210 HD
ENDBRANCH  15  16
BRANCH  15  18
ATOM     18  C   LIG    1       23.580 -23.811   6.786  0.00  0.00    +0.188 C 
BRANCH  18  19
ATOM     19  O   LIG    1       22.163 -23.814   6.621  0.00  0.00    -0.392 OA
ATOM     20  H   LIG    1       21.882 -22.878   6.536  0.00  0.00    +0.209 HD
ENDBRANCH  18  19
ENDBRANCH  15  18
ENDBRANCH  14  15
ENDBRANCH  10  14
TORSDOF 5
ENDMDL
MODEL 6
REMARK VINA RESULT:      -5.9      2.682      6.175
REMARK  Name = *****
REMARK                            x       y       z     vdW  Elec       q    Type
REMARK                         _______ _______ _______ _____ _____    ______ ____
ROOT
ATOM      1  C   LIG    1       29.160 -20.122   7.449  0.00  0.00    +0.155 C 
ATOM      2  N   LIG    1       27.851 -20.203   6.827  0.00  0.00    -0.280 N 
ATOM      3  C   LIG    1       27.635 -19.607   5.583  0.00  0.00    +0.333 C 
ATOM      4  O   LIG    1       28.518 -18.963   5.006  0.00  0.00    -0.246 OA
ATOM      5  N   LIG    1       26.357 -19.755   5.014  0.00  0.00    -0.262 N 
ATOM      6  C   LIG    1       26.117 -19.112   3.737  0.00  0.00    +0.157 C 
ATOM      7  C   LIG    1       25.266 -20.336   5.647  0.00  0.00    +0.282 C 
ATOM      8  O   LIG    1       24.113 -20.256   5.210  0.00  0.00    -0.265 OA
ATOM      9  C   LIG    1       25.588 -20.979   6.870  0.00  0.00    +0.151 A 
ATOM     10  N   LIG    1       24.854 -21.739   7.739  0.00  0.00    -0.322 N 
ATOM     11  C   LIG    1       25.693 -22.081   8.772  0.00  0.00    +0.202 A 
ATOM     12  N   LIG    1       26.899 -21.576   8.608  0.00  0.00    -0.218 NA
ATOM     13  C   LIG    1       26.833 -20.907   7.425  0.00  0.00    +0.168 A 
ENDROOT
BRANCH  10  14
ATOM     14  C   LIG    1       23.500 -22.218   7.569  0.00  0.00    +0.157 C 
BRANCH  14  15
ATOM     15  C   LIG    1       23.313 -23.279   6.478  0.00  0.00    +0.160 C 
BRANCH  15  16
ATOM     16  O   LIG    1       21.958 -23.751   6.563  0.00  0.00    -0.388 OA
ATOM     17  H   LIG    1       21.455 -23.007   6.961  0.00  0.00    +0.210 HD
ENDBRANCH  15  16
BRANCH  15  18
ATOM     18  C   LIG    1       24.241 -24.496   6.583  0.00  0.00    +0.188 C 
BRANCH  18  19
ATOM     19  O   LIG    1       23.692 -25.583   5.842  0.00  0.00    -0.392 OA
ATOM     20  H   LIG    1       23.166 -26.122   6.472  0.00  0.00    +0.209 HD
ENDBRANCH  18  19
ENDBRANCH  15  18
ENDBRANCH  14  15
ENDBRANCH  10  14
TORSDOF 5
ENDMDL
MODEL 7
REMARK VINA RESULT:      -5.7      2.097      6.130
REMARK  Name = *****
REMARK                            x       y       z     vdW  Elec       q    Type
REMARK                         _______ _______ _______ _____ _____    ______ ____
ROOT
ATOM      1  C   LIG    1       30.600 -20.562   8.976  0.00  0.00    +0.155 C 
ATOM      2  N   LIG    1       29.685 -20.255   7.893  0.00  0.00    -0.280 N 
ATOM      3  C   LIG    1       30.042 -19.310   6.929  0.00  0.00    +0.333 C 
ATOM      4  O   LIG    1       31.105 -18.684   6.991  0.00  0.00    -0.246 OA
ATOM      5  N   LIG    1       29.130 -19.087   5.881  0.00  0.00    -0.262 N 
ATOM      6  C   LIG    1       29.481 -18.085   4.893  0.00  0.00    +0.157 C 
ATOM      7  C   LIG    1       27.857 -19.637   5.802  0.00  0.00    +0.282 C 
ATOM      8  O   LIG    1       27.007 -19.253   4.992  0.00  0.00    -0.265 OA
ATOM      9  C   LIG    1       27.603 -20.636   6.777  0.00  0.00    +0.151 A 
ATOM     10  N   LIG    1       26.545 -21.478   6.988  0.00  0.00    -0.322 N 
ATOM     11  C   LIG    1       26.848 -22.223   8.102  0.00  0.00    +0.202 A 
ATOM     12  N   LIG    1       28.021 -21.895   8.604  0.00  0.00    -0.218 NA
ATOM     13  C   LIG    1       28.489 -20.923   7.775  0.00  0.00    +0.168 A 
ENDROOT
BRANCH  10  14
ATOM     14  C   LIG    1       25.383 -21.666   6.147  0.00  0.00    +0.157 C 
BRANCH  14  15
ATOM     15  C   LIG    1       24.813 -23.090   6.126  0.00  0.00    +0.160 C 
BRANCH  15  16
ATOM     16  O   LIG    1       24.779 -23.520   4.755  0.00  0.00    -0.388 OA
ATOM     17  H   LIG    1       25.179 -24.417   4.761  0.00  0.00    +0.210 HD
ENDBRANCH  15  16
BRANCH  15  18
ATOM     18  C   LIG    1       23.398 -23.235   6.700  0.00  0.00    +0.188 C 
BRANCH  18  19
ATOM     19  O   LIG    1       22.954 -24.581   6.544  0.00  0.00    -0.392 OA
ATOM     20  H   LIG    1       21.982 -24.580   6.681  0.00  0.00    +0.209 HD
ENDBRANCH  18  19
ENDBRANCH  15  18
ENDBRANCH  14  15
ENDBRANCH  10  14
TORSDOF 5
ENDMDL
MODEL 8
REMARK VINA RESULT:      -5.5      7.364     10.179
REMARK  Name = *****
REMARK                            x       y       z     vdW  Elec       q    Type
REMARK                         _______ _______ _______ _____ _____    ______ ____
ROOT
ATOM      1  C   LIG    1       23.645 -32.517   7.615  0.00  0.00    +0.155 C 
ATOM      2  N   LIG    1       24.440 -31.370   8.014  0.00  0.00    -0.280 N 
ATOM      3  C   LIG    1       25.263 -31.454   9.139  0.00  0.00    +0.333 C 
ATOM      4  O   LIG    1       25.304 -32.467   9.844  0.00  0.00    -0.246 OA
ATOM      5  N   LIG    1       26.041 -30.323   9.450  0.00  0.00    -0.262 N 
ATOM      6  C   LIG    1       26.874 -30.393  10.635  0.00  0.00    +0.157 C 
ATOM      7  C   LIG    1       25.958 -29.097   8.803  0.00  0.00    +0.282 C 
ATOM      8  O   LIG    1       26.491 -28.071   9.237  0.00  0.00    -0.265 OA
ATOM      9  C   LIG    1       25.157 -29.120   7.633  0.00  0.00    +0.151 A 
ATOM     10  N   LIG    1       24.896 -28.183   6.669  0.00  0.00    -0.322 N 
ATOM     11  C   LIG    1       24.027 -28.764   5.777  0.00  0.00    +0.202 A 
ATOM     12  N   LIG    1       23.723 -29.998   6.126  0.00  0.00    -0.218 NA
ATOM     13  C   LIG    1       24.434 -30.218   7.265  0.00  0.00    +0.168 A 
ENDROOT
BRANCH  10  14
ATOM     14  C   LIG    1       25.500 -26.878   6.518  0.00  0.00    +0.157 C 
BRANCH  14  15
ATOM     15  C   LIG    1       24.662 -25.854   5.743  0.00  0.00    +0.160 C 
BRANCH  15  16
ATOM     16  O   LIG    1       25.417 -25.471   4.581  0.00  0.00    -0.388 OA
ATOM     17  H   LIG    1       26.270 -25.950   4.663  0.00  0.00    +0.210 HD
ENDBRANCH  15  16
BRANCH  15  18
ATOM     18  C   LIG    1       24.311 -24.577   6.517  0.00  0.00    +0.188 C 
BRANCH  18  19
ATOM     19  O   LIG    1       22.896 -24.400   6.532  0.00  0.00    -0.392 OA
ATOM     20  H   LIG    1       22.610 -24.302   5.598  0.00  0.00    +0.209 HD
ENDBRANCH  18  19
ENDBRANCH  15  18
ENDBRANCH  14  15
ENDBRANCH  10  14
TORSDOF 5
ENDMDL
MODEL 9
REMARK VINA RESULT:      -5.5      2.174      6.189
REMARK  Name = *****
REMARK                            x       y       z     vdW  Elec       q    Type
REMARK                         _______ _______ _______ _____ _____    ______ ____
ROOT
ATOM      1  C   LIG    1       29.373 -21.600   8.538  0.00  0.00    +0.155 C 
ATOM      2  N   LIG    1       28.613 -20.993   7.461  0.00  0.00    -0.280 N 
ATOM      3  C   LIG    1       29.159 -19.928   6.742  0.00  0.00    +0.333 C 
ATOM      4  O   LIG    1       30.261 -19.447   7.024  0.00  0.00    -0.246 OA
ATOM      5  N   LIG    1       28.391 -19.409   5.684  0.00  0.00    -0.262 N 
ATOM      6  C   LIG    1       28.938 -18.282   4.952  0.00  0.00    +0.157 C 
ATOM      7  C   LIG    1       27.089 -19.788   5.383  0.00  0.00    +0.282 C 
ATOM      8  O   LIG    1       26.372 -19.165   4.593  0.00  0.00    -0.265 OA
ATOM      9  C   LIG    1       26.640 -20.920   6.110  0.00  0.00    +0.151 A 
ATOM     10  N   LIG    1       25.493 -21.665   6.052  0.00  0.00    -0.322 N 
ATOM     11  C   LIG    1       25.603 -22.638   7.016  0.00  0.00    +0.202 A 
ATOM     12  N   LIG    1       26.739 -22.543   7.677  0.00  0.00    -0.218 NA
ATOM     13  C   LIG    1       27.382 -21.489   7.105  0.00  0.00    +0.168 A 
ENDROOT
BRANCH  10  14
ATOM     14  C   LIG    1       24.418 -21.559   5.090  0.00  0.00    +0.157 C 
BRANCH  14  15
ATOM     15  C   LIG    1       23.102 -20.995   5.639  0.00  0.00    +0.160 C 
BRANCH  15  16
ATOM     16  O   LIG    1       22.061 -21.929   5.306  0.00  0.00    -0.388 OA
ATOM     17  H   LIG    1       21.223 -21.444   5.467  0.00  0.00    +0.210 HD
ENDBRANCH  15  16
BRANCH  15  18
ATOM     18  C   LIG    1       22.697 -19.623   5.084  0.00  0.00    +0.188 C 
BRANCH  18  19
ATOM     19  O   LIG    1       23.521 -19.297   3.967  0.00  0.00    -0.392 OA
ATOM     20  H   LIG    1       23.818 -20.145   3.572  0.00  0.00    +0.209 HD
ENDBRANCH  18  19
ENDBRANCH  15  18
ENDBRANCH  14  15
ENDBRANCH  10  14
TORSDOF 5
ENDMDL
