MODEL 1
REMARK VINA RESULT:      -3.2      0.000      0.000
REMARK  Name = *****
REMARK                            x       y       z     vdW  Elec       q    Type
REMARK                         _______ _______ _______ _____ _____    ______ ____
ROOT
ATOM      1  C   LIG    1       23.215 -17.259   4.065  0.00  0.00    +0.250 C 
ATOM      2  N   LIG    1       24.597 -17.212   3.896  0.00  0.00    -0.283 N 
ATOM      3  H   LIG    1       25.103 -18.089   3.893  0.00  0.00    +0.155 HD
ATOM      4  O   LIG    1       22.465 -16.281   4.089  0.00  0.00    -0.272 OA
ENDROOT
BRANCH   2   5
ATOM      5  C   LIG    1       25.412 -16.062   3.712  0.00  0.00    +0.034 A 
ATOM      6  C   LIG    1       24.788 -14.814   3.526  0.00  0.00    +0.037 A 
ATOM      7  C   LIG    1       25.533 -13.624   3.292  0.00  0.00    +0.074 A 
ATOM      8  C   LIG    1       26.935 -13.692   3.308  0.00  0.00    +0.064 A 
ATOM      9  C   LIG    1       27.552 -14.934   3.509  0.00  0.00    +0.021 A 
ATOM     10  C   LIG    1       26.803 -16.101   3.690  0.00  0.00    +0.024 A 
BRANCH   7  11
ATOM     11  C   LIG    1       24.782 -12.347   2.982  0.00  0.00    +0.419 C 
ATOM     12  F   LIG    1       24.735 -11.498   4.045  0.00  0.00    -0.166 F 
ATOM     13  F   LIG    1       23.483 -12.600   2.653  0.00  0.00    -0.166 F 
ATOM     14  F   LIG    1       25.281 -11.620   1.950  0.00  0.00    -0.166 F 
ENDBRANCH   7  11
BRANCH   8  15
ATOM     15  C   LIG    1       27.804 -12.571   3.111  0.00  0.00    +0.100 C 
ATOM     16  N   LIG    1       28.573 -11.700   2.986  0.00  0.00    -0.191 NA
ENDBRANCH   8  15
ENDBRANCH   2   5
BRANCH   1  18
ATOM     17  C   LIG    1       21.140 -18.744   3.711  0.00  0.00    +0.053 C 
ATOM     18  C   LIG    1       22.574 -18.682   4.226  0.00  0.00    +0.158 C 
BRANCH  18  19
ATOM     19  O   LIG    1       23.293 -19.606   3.363  0.00  0.00    -0.378 OA
ATOM     20  H   LIG    1       23.303 -20.481   3.802  0.00  0.00    +0.211 HD
ENDBRANCH  18  19
BRANCH  18  21
ATOM     21  C   LIG    1       22.718 -19.267   5.628  0.00  0.00    +0.215 C 
BRANCH  21  22
ATOM     22  S   LIG    1       23.252 -20.954   5.699  0.00  0.00    +0.000 S 
ATOM     23  O   LIG    1       23.044 -21.569   4.403  0.00  0.00    -0.169 OA
ATOM     24  O   LIG    1       22.723 -21.572   6.896  0.00  0.00    -0.169 OA
BRANCH  22  25
ATOM     25  C   LIG    1       25.008 -20.783   5.926  0.00  0.00    +0.088 A 
ATOM     26  C   LIG    1       25.657 -21.551   6.898  0.00  0.00    +0.030 A 
ATOM     27  C   LIG    1       27.036 -21.418   7.062  0.00  0.00    +0.040 A 
ATOM     28  C   LIG    1       27.740 -20.521   6.263  0.00  0.00    +0.123 A 
ATOM     29  F   LIG    1       29.063 -20.397   6.423  0.00  0.00    -0.205 F 
ATOM     30  C   LIG    1       27.093 -19.749   5.301  0.00  0.00    +0.040 A 
ATOM     31  C   LIG    1       25.714 -19.873   5.131  0.00  0.00    +0.030 A 
ENDBRANCH  22  25
ENDBRANCH  21  22
ENDBRANCH  18  21
ENDBRANCH   1  18
TORSDOF 8
ENDMDL
MODEL 2
REMARK VINA RESULT:      -1.1      1.432      2.032
REMARK  Name = *****
REMARK                            x       y       z     vdW  Elec       q    Type
REMARK                         _______ _______ _______ _____ _____    ______ ____
ROOT
ATOM      1  C   LIG    1       23.348 -16.955   4.147  0.00  0.00    +0.250 C 
ATOM      2  N   LIG    1       24.640 -16.961   3.627  0.00  0.00    -0.283 N 
ATOM      3  H   LIG    1       25.001 -17.835   3.265  0.00  0.00    +0.155 HD
ATOM      4  O   LIG    1       22.773 -15.973   4.621  0.00  0.00    -0.272 OA
ENDROOT
BRANCH   2   5
ATOM      5  C   LIG    1       25.540 -15.866   3.524  0.00  0.00    +0.034 A 
ATOM      6  C   LIG    1       25.805 -15.098   4.675  0.00  0.00    +0.037 A 
ATOM      7  C   LIG    1       26.661 -13.961   4.643  0.00  0.00    +0.074 A 
ATOM      8  C   LIG    1       27.304 -13.634   3.440  0.00  0.00    +0.064 A 
ATOM      9  C   LIG    1       27.050 -14.410   2.301  0.00  0.00    +0.021 A 
ATOM     10  C   LIG    1       26.169 -15.496   2.339  0.00  0.00    +0.024 A 
BRANCH   7  11
ATOM     11  C   LIG    1       26.796 -13.121   5.895  0.00  0.00    +0.419 C 
ATOM     12  F   LIG    1       25.827 -12.170   5.992  0.00  0.00    -0.166 F 
ATOM     13  F   LIG    1       27.980 -12.445   5.917  0.00  0.00    -0.166 F 
ATOM     14  F   LIG    1       26.754 -13.813   7.062  0.00  0.00    -0.166 F 
ENDBRANCH   7  11
BRANCH   8  15
ATOM     15  C   LIG    1       28.206 -12.533   3.274  0.00  0.00    +0.100 C 
ATOM     16  N   LIG    1       28.961 -11.666   3.066  0.00  0.00    -0.191 NA
ENDBRANCH   8  15
ENDBRANCH   2   5
BRANCH   1  18
ATOM     17  C   LIG    1       21.144 -18.169   3.594  0.00  0.00    +0.053 C 
ATOM     18  C   LIG    1       22.570 -18.318   4.113  0.00  0.00    +0.158 C 
BRANCH  18  19
ATOM     19  O   LIG    1       23.208 -19.181   3.132  0.00  0.00    -0.378 OA
ATOM     20  H   LIG    1       22.704 -20.020   3.097  0.00  0.00    +0.211 HD
ENDBRANCH  18  19
BRANCH  18  21
ATOM     21  C   LIG    1       22.638 -19.099   5.421  0.00  0.00    +0.215 C 
BRANCH  21  22
ATOM     22  S   LIG    1       23.190 -20.776   5.280  0.00  0.00    +0.000 S 
ATOM     23  O   LIG    1       23.066 -21.198   3.899  0.00  0.00    -0.169 OA
ATOM     24  O   LIG    1       22.601 -21.563   6.342  0.00  0.00    -0.169 OA
BRANCH  22  25
ATOM     25  C   LIG    1       24.928 -20.631   5.633  0.00  0.00    +0.088 A 
ATOM     26  C   LIG    1       25.752 -19.917   4.757  0.00  0.00    +0.030 A 
ATOM     27  C   LIG    1       27.112 -19.800   5.047  0.00  0.00    +0.040 A 
ATOM     28  C   LIG    1       27.625 -20.400   6.194  0.00  0.00    +0.123 A 
ATOM     29  F   LIG    1       28.930 -20.285   6.468  0.00  0.00    -0.205 F 
ATOM     30  C   LIG    1       26.806 -21.119   7.060  0.00  0.00    +0.040 A 
ATOM     31  C   LIG    1       25.446 -21.244   6.779  0.00  0.00    +0.030 A 
ENDBRANCH  22  25
ENDBRANCH  21  22
ENDBRANCH  18  21
ENDBRANCH   1  18
TORSDOF 8
ENDMDL
MODEL 3
REMARK VINA RESULT:      -0.8      2.453      3.921
REMARK  Name = *****
REMARK                            x       y       z     vdW  Elec       q    Type
REMARK                         _______ _______ _______ _____ _____    ______ ____
ROOT
ATOM      1  C   LIG    1       25.804 -19.357   4.048  0.00  0.00    +0.250 C 
ATOM      2  N   LIG    1       25.566 -18.167   3.364  0.00  0.00    -0.283 N 
ATOM      3  H   LIG    1       24.864 -18.172   2.635  0.00  0.00    +0.155 HD
ATOM      4  O   LIG    1       26.622 -19.507   4.957  0.00  0.00    -0.272 OA
ENDROOT
BRANCH   2   5
ATOM      5  C   LIG    1       26.191 -16.907   3.569  0.00  0.00    +0.034 A 
ATOM      6  C   LIG    1       25.431 -15.737   3.381  0.00  0.00    +0.037 A 
ATOM      7  C   LIG    1       25.995 -14.438   3.526  0.00  0.00    +0.074 A 
ATOM      8  C   LIG    1       27.335 -14.326   3.926  0.00  0.00    +0.064 A 
ATOM      9  C   LIG    1       28.084 -15.493   4.127  0.00  0.00    +0.021 A 
ATOM     10  C   LIG    1       27.525 -16.761   3.935  0.00  0.00    +0.024 A 
BRANCH   7  11
ATOM     11  C   LIG    1       25.142 -13.235   3.187  0.00  0.00    +0.419 C 
ATOM     12  F   LIG    1       25.755 -12.388   2.316  0.00  0.00    -0.166 F 
ATOM     13  F   LIG    1       24.868 -12.489   4.296  0.00  0.00    -0.166 F 
ATOM     14  F   LIG    1       23.934 -13.520   2.637  0.00  0.00    -0.166 F 
ENDBRANCH   7  11
BRANCH   8  15
ATOM     15  C   LIG    1       28.020 -13.084   4.130  0.00  0.00    +0.100 C 
ATOM     16  N   LIG    1       28.647 -12.115   4.316  0.00  0.00    -0.191 NA
ENDBRANCH   8  15
ENDBRANCH   2   5
BRANCH   1  18
ATOM     17  C   LIG    1       23.814 -20.230   2.663  0.00  0.00    +0.053 C 
ATOM     18  C   LIG    1       24.944 -20.598   3.619  0.00  0.00    +0.158 C 
BRANCH  18  19
ATOM     19  O   LIG    1       25.785 -21.487   2.835  0.00  0.00    -0.378 OA
ATOM     20  H   LIG    1       25.256 -21.811   2.078  0.00  0.00    +0.211 HD
ENDBRANCH  18  19
BRANCH  18  21
ATOM     21  C   LIG    1       24.464 -21.449   4.790  0.00  0.00    +0.215 C 
BRANCH  21  22
ATOM     22  S   LIG    1       23.494 -20.601   6.004  0.00  0.00    +0.000 S 
ATOM     23  O   LIG    1       24.294 -19.545   6.593  0.00  0.00    -0.169 OA
ATOM     24  O   LIG    1       22.829 -21.572   6.847  0.00  0.00    -0.169 OA
BRANCH  22  25
ATOM     25  C   LIG    1       22.243 -19.822   5.009  0.00  0.00    +0.088 A 
ATOM     26  C   LIG    1       21.221 -20.598   4.452  0.00  0.00    +0.030 A 
ATOM     27  C   LIG    1       20.239 -19.976   3.680  0.00  0.00    +0.040 A 
ATOM     28  C   LIG    1       20.295 -18.601   3.472  0.00  0.00    +0.123 A 
ATOM     29  F   LIG    1       19.350 -18.009   2.732  0.00  0.00    -0.205 F 
ATOM     30  C   LIG    1       21.317 -17.830   4.019  0.00  0.00    +0.040 A 
ATOM     31  C   LIG    1       22.306 -18.441   4.789  0.00  0.00    +0.030 A 
ENDBRANCH  22  25
ENDBRANCH  21  22
ENDBRANCH  18  21
ENDBRANCH   1  18
TORSDOF 8
ENDMDL
MODEL 4
REMARK VINA RESULT:      -0.4      4.345      6.889
REMARK  Name = *****
REMARK                            x       y       z     vdW  Elec       q    Type
REMARK                         _______ _______ _______ _____ _____    ______ ____
ROOT
ATOM      1  C   LIG    1       23.660 -14.328   3.592  0.00  0.00    +0.250 C 
ATOM      2  N   LIG    1       24.092 -15.445   4.304  0.00  0.00    -0.283 N 
ATOM      3  H   LIG    1       24.942 -15.360   4.847  0.00  0.00    +0.155 HD
ATOM      4  O   LIG    1       22.648 -14.277   2.889  0.00  0.00    -0.272 OA
ENDROOT
BRANCH   2   5
ATOM      5  C   LIG    1       23.471 -16.722   4.379  0.00  0.00    +0.034 A 
ATOM      6  C   LIG    1       24.218 -17.858   4.013  0.00  0.00    +0.037 A 
ATOM      7  C   LIG    1       23.655 -19.167   4.020  0.00  0.00    +0.074 A 
ATOM      8  C   LIG    1       22.333 -19.329   4.461  0.00  0.00    +0.064 A 
ATOM      9  C   LIG    1       21.598 -18.197   4.839  0.00  0.00    +0.021 A 
ATOM     10  C   LIG    1       22.153 -16.914   4.781  0.00  0.00    +0.024 A 
BRANCH   7  11
ATOM     11  C   LIG    1       24.488 -20.317   3.497  0.00  0.00    +0.419 C 
ATOM     12  F   LIG    1       25.311 -20.838   4.448  0.00  0.00    -0.166 F 
ATOM     13  F   LIG    1       25.303 -19.921   2.478  0.00  0.00    -0.166 F 
ATOM     14  F   LIG    1       23.780 -21.366   3.006  0.00  0.00    -0.166 F 
ENDBRANCH   7  11
BRANCH   8  15
ATOM     15  C   LIG    1       21.652 -20.587   4.540  0.00  0.00    +0.100 C 
ATOM     16  N   LIG    1       21.026 -21.572   4.603  0.00  0.00    -0.191 NA
ENDBRANCH   8  15
ENDBRANCH   2   5
BRANCH   1  18
ATOM     17  C   LIG    1       24.574 -12.224   2.421  0.00  0.00    +0.053 C 
ATOM     18  C   LIG    1       24.540 -13.035   3.712  0.00  0.00    +0.158 C 
BRANCH  18  19
ATOM     19  O   LIG    1       23.907 -12.140   4.667  0.00  0.00    -0.378 OA
ATOM     20  H   LIG    1       23.163 -12.622   5.082  0.00  0.00    +0.211 HD
ENDBRANCH  18  19
BRANCH  18  21
ATOM     21  C   LIG    1       25.933 -13.288   4.280  0.00  0.00    +0.215 C 
BRANCH  21  22
ATOM     22  S   LIG    1       27.131 -13.890   3.123  0.00  0.00    +0.000 S 
ATOM     23  O   LIG    1       28.349 -13.116   3.263  0.00  0.00    -0.169 OA
ATOM     24  O   LIG    1       26.507 -14.045   1.827  0.00  0.00    -0.169 OA
BRANCH  22  25
ATOM     25  C   LIG    1       27.469 -15.521   3.746  0.00  0.00    +0.088 A 
ATOM     26  C   LIG    1       26.793 -16.620   3.205  0.00  0.00    +0.030 A 
ATOM     27  C   LIG    1       27.072 -17.897   3.692  0.00  0.00    +0.040 A 
ATOM     28  C   LIG    1       28.009 -18.055   4.710  0.00  0.00    +0.123 A 
ATOM     29  F   LIG    1       28.273 -19.283   5.174  0.00  0.00    -0.205 F 
ATOM     30  C   LIG    1       28.674 -16.961   5.255  0.00  0.00    +0.040 A 
ATOM     31  C   LIG    1       28.401 -15.679   4.777  0.00  0.00    +0.030 A 
ENDBRANCH  22  25
ENDBRANCH  21  22
ENDBRANCH  18  21
ENDBRANCH   1  18
TORSDOF 8
ENDMDL
