MODEL 1
REMARK VINA RESULT:      21.6      0.000      0.000
REMARK  Name = *****
REMARK                            x       y       z     vdW  Elec       q    Type
REMARK                         _______ _______ _______ _____ _____    ______ ____
ROOT
ATOM      1  C   LIG    1       25.065 -13.056   3.928  0.00  0.00    +0.129 C 
ATOM      2  C   LIG    1       24.862 -14.523   3.433  0.00  0.00    +0.061 C 
ATOM      3  C   LIG    1       26.142 -15.362   3.562  0.00  0.00    +0.190 C 
ATOM      4  C   LIG    1       25.891 -16.834   3.299  0.00  0.00    +0.141 C 
ATOM      5  C   LIG    1       24.670 -17.401   3.394  0.00  0.00    +0.047 C 
ATOM      6  C   LIG    1       23.410 -16.643   3.745  0.00  0.00    +0.062 C 
ATOM      7  C   LIG    1       22.520 -17.435   4.761  0.00  0.00    +0.096 C 
ATOM      8  C   LIG    1       21.188 -16.684   4.972  0.00  0.00    +0.047 C 
ATOM      9  C   LIG    1       22.314 -18.881   4.308  0.00  0.00    -0.002 A 
ATOM     10  C   LIG    1       23.266 -19.532   3.497  0.00  0.00    +0.069 A 
ATOM     11  C   LIG    1       23.064 -20.870   3.106  0.00  0.00    +0.128 A 
ATOM     12  C   LIG    1       21.935 -21.571   3.513  0.00  0.00    +0.046 A 
ATOM     13  C   LIG    1       21.005 -20.953   4.337  0.00  0.00    +0.004 A 
ATOM     14  C   LIG    1       21.197 -19.628   4.738  0.00  0.00    +0.007 A 
ATOM     15  C   LIG    1       24.512 -18.847   3.085  0.00  0.00    +0.197 C 
ATOM     16  O   LIG    1       25.399 -19.474   2.503  0.00  0.00    -0.287 OA
ATOM     17  C   LIG    1       26.701 -15.157   4.985  0.00  0.00    +0.210 C 
ATOM     18  O   LIG    1       26.725 -16.036   5.845  0.00  0.00    -0.288 OA
ATOM     19  C   LIG    1       27.094 -13.762   5.316  0.00  0.00    +0.121 C 
ATOM     20  C   LIG    1       23.709 -15.195   4.213  0.00  0.00    +0.020 C 
ATOM     21  C   LIG    1       26.299 -12.803   4.800  0.00  0.00    +0.127 C 
ENDROOT
BRANCH  19  22
ATOM     22  C   LIG    1       28.318 -13.523   6.120  0.00  0.00    +0.248 C 
ATOM     23  O   LIG    1       28.676 -14.274   7.019  0.00  0.00    -0.270 OA
ATOM     24  N   LIG    1       29.061 -12.428   5.797  0.00  0.00    -0.325 N 
ATOM     25  H   LIG    1       28.876 -11.930   4.932  0.00  0.00    +0.145 HD
ATOM     26  H   LIG    1       29.948 -12.305   6.263  0.00  0.00    +0.145 HD
ENDBRANCH  19  22
BRANCH   1  28
ATOM     27  C   LIG    1       23.674 -11.897   2.274  0.00  0.00    +0.105 C 
ATOM     28  N   LIG    1       24.998 -11.978   2.896  0.00  0.00    -0.298 NA
ATOM     29  C   LIG    1       26.031 -12.089   1.858  0.00  0.00    +0.105 C 
ENDBRANCH   1  28
BRANCH   3  30
ATOM     30  O   LIG    1       27.083 -14.918   2.582  0.00  0.00    -0.373 OA
ATOM     31  H   LIG    1       26.568 -14.864   1.748  0.00  0.00    +0.211 HD
ENDBRANCH   3  30
BRANCH   4  32
ATOM     32  O   LIG    1       27.027 -17.518   2.878  0.00  0.00    -0.507 OA
ATOM     33  H   LIG    1       27.518 -17.828   3.673  0.00  0.00    +0.292 HD
ENDBRANCH   4  32
BRANCH   7  34
ATOM     34  O   LIG    1       23.169 -17.443   6.036  0.00  0.00    -0.384 OA
ATOM     35  H   LIG    1       23.078 -18.319   6.450  0.00  0.00    +0.211 HD
ENDBRANCH   7  34
BRANCH  11  36
ATOM     36  O   LIG    1       23.942 -21.571   2.322  0.00  0.00    -0.506 OA
ATOM     37  H   LIG    1       23.964 -22.502   2.636  0.00  0.00    +0.292 HD
ENDBRANCH  11  36
BRANCH  21  38
ATOM     38  O   LIG    1       26.565 -11.447   4.993  0.00  0.00    -0.509 OA
ATOM     39  H   LIG    1       27.077 -11.419   5.835  0.00  0.00    +0.292 HD
ENDBRANCH  21  38
TORSDOF 7
ENDMDL
