MODEL 1
REMARK VINA RESULT:      -2.1      0.000      0.000
REMARK  Name = *****
REMARK                            x       y       z     vdW  Elec       q    Type
REMARK                         _______ _______ _______ _____ _____    ______ ____
ROOT
ATOM      1  N   LIG    1       25.882 -18.916   4.348  0.00  0.00    -0.298 N 
ATOM      2  C   LIG    1       24.589 -19.493   4.543  0.00  0.00    +0.049 A 
ATOM      3  C   LIG    1       24.374 -20.539   5.466  0.00  0.00    +0.034 A 
ATOM      4  C   LIG    1       23.090 -21.087   5.662  0.00  0.00    +0.018 A 
ATOM      5  C   LIG    1       21.987 -20.624   4.952  0.00  0.00    +0.018 A 
ATOM      6  C   LIG    1       22.164 -19.596   4.035  0.00  0.00    +0.040 A 
ATOM      7  S   LIG    1       25.649 -21.268   6.458  0.00  0.00    -0.086 S 
ATOM      8  C   LIG    1       27.071 -20.296   6.037  0.00  0.00    +0.034 A 
ATOM      9  C   LIG    1       28.240 -20.618   6.760  0.00  0.00    +0.017 A 
ATOM     10  C   LIG    1       29.436 -19.953   6.534  0.00  0.00    +0.001 A 
ATOM     11  C   LIG    1       29.475 -18.964   5.567  0.00  0.00    +0.002 A 
ATOM     12  C   LIG    1       28.317 -18.644   4.845  0.00  0.00    +0.024 A 
ATOM     13  C   LIG    1       23.442 -19.050   3.845  0.00  0.00    +0.041 A 
ATOM     14  C   LIG    1       27.071 -19.279   5.056  0.00  0.00    +0.048 A 
ENDROOT
BRANCH   6  15
ATOM     15  S   LIG    1       20.735 -18.931   3.149  0.00  0.00    +0.051 S 
ATOM     16  C   LIG    1       20.807 -17.244   3.802  0.00  0.00    +0.127 C 
ATOM     17  O   LIG    1       19.538 -19.585   3.781  0.00  0.00    -0.252 OA
ENDBRANCH   6  15
BRANCH   1  18
ATOM     18  C   LIG    1       25.995 -17.830   3.337  0.00  0.00    +0.112 C 
BRANCH  18  19
ATOM     19  C   LIG    1       25.262 -16.558   3.801  0.00  0.00    +0.038 C 
BRANCH  19  22
ATOM     20  C   LIG    1       25.026 -13.079   2.342  0.00  0.00    +0.105 C 
ATOM     21  N   LIG    1       24.890 -14.134   3.347  0.00  0.00    -0.302 NA
ATOM     22  C   LIG    1       25.770 -15.288   3.073  0.00  0.00    +0.058 C 
ATOM     23  C   LIG    1       27.246 -14.988   3.413  0.00  0.00    +0.019 C 
ATOM     24  C   LIG    1       27.426 -14.454   4.831  0.00  0.00    +0.003 C 
ATOM     25  C   LIG    1       26.488 -13.283   5.098  0.00  0.00    +0.015 C 
ATOM     26  C   LIG    1       25.046 -13.613   4.712  0.00  0.00    +0.084 C 
ENDBRANCH  19  22
ENDBRANCH  18  19
ENDBRANCH   1  18
TORSDOF 4
ENDMDL
