MODEL 1
REMARK VINA RESULT:       9.1      0.000      0.000
REMARK  Name = *****
REMARK                            x       y       z     vdW  Elec       q    Type
REMARK                         _______ _______ _______ _____ _____    ______ ____
ROOT
ATOM      1  C   LIG    1       26.193 -18.822   4.287  0.00  0.00    +0.173 A 
ATOM      2  C   LIG    1       26.199 -20.040   4.993  0.00  0.00    +0.206 A 
ATOM      3  C   LIG    1       24.957 -20.603   5.371  0.00  0.00    +0.187 A 
ATOM      4  C   LIG    1       23.744 -20.156   4.816  0.00  0.00    +0.085 A 
ATOM      5  C   LIG    1       23.814 -18.951   4.140  0.00  0.00    +0.094 A 
ATOM      6  C   LIG    1       22.748 -18.261   3.425  0.00  0.00    +0.342 C 
ATOM      7  O   LIG    1       23.340 -17.189   2.823  0.00  0.00    -0.451 OA
ATOM      8  C   LIG    1       24.666 -16.912   3.359  0.00  0.00    +0.233 C 
ATOM      9  O   LIG    1       21.606 -18.628   3.280  0.00  0.00    -0.245 OA
ATOM     10  C   LIG    1       24.982 -18.238   3.958  0.00  0.00    +0.056 A 
ENDROOT
BRANCH   8  11
ATOM     11  C   LIG    1       24.556 -15.677   4.355  0.00  0.00    +0.136 C 
ATOM     12  N   LIG    1       23.173 -15.161   4.611  0.00  0.00    -0.295 NA
ATOM     13  C   LIG    1       22.278 -16.090   5.287  0.00  0.00    +0.105 C 
ATOM     14  C   LIG    1       22.576 -14.629   3.385  0.00  0.00    +0.089 C 
ATOM     15  C   LIG    1       23.344 -13.395   2.907  0.00  0.00    +0.051 C 
ATOM     16  C   LIG    1       24.840 -13.465   3.111  0.00  0.00    -0.034 A 
ATOM     17  C   LIG    1       25.624 -12.413   2.617  0.00  0.00    +0.053 A 
ATOM     18  C   LIG    1       26.966 -12.407   2.923  0.00  0.00    +0.170 A 
ATOM     19  O   LIG    1       27.849 -11.463   2.499  0.00  0.00    -0.453 OA
ATOM     20  C   LIG    1       29.067 -11.961   3.077  0.00  0.00    +0.467 C 
ATOM     21  O   LIG    1       28.875 -13.130   3.896  0.00  0.00    -0.449 OA
ATOM     22  C   LIG    1       27.538 -13.360   3.735  0.00  0.00    +0.208 A 
ATOM     23  C   LIG    1       26.786 -14.394   4.281  0.00  0.00    +0.170 A 
ATOM     24  C   LIG    1       25.426 -14.494   3.907  0.00  0.00    +0.022 A 
BRANCH  23  25
ATOM     25  O   LIG    1       27.259 -15.338   5.152  0.00  0.00    -0.491 OA
ATOM     26  C   LIG    1       27.707 -14.848   6.414  0.00  0.00    +0.277 C 
ENDBRANCH  23  25
ENDBRANCH   8  11
BRANCH   4  27
ATOM     27  N   LIG    1       22.516 -20.735   5.179  0.00  0.00    -0.354 N 
ATOM     28  H   LIG    1       21.721 -20.123   5.010  0.00  0.00    +0.142 HD
ATOM     29  H   LIG    1       22.516 -21.165   6.105  0.00  0.00    +0.142 HD
ENDBRANCH   4  27
BRANCH   1  30
ATOM     30  O   LIG    1       27.323 -18.130   3.957  0.00  0.00    -0.488 OA
BRANCH  30  32
ATOM     31  C   LIG    1       29.471 -18.184   5.007  0.00  0.00    +0.048 C 
ATOM     32  C   LIG    1       28.048 -17.659   5.095  0.00  0.00    +0.226 C 
ENDBRANCH  30  32
ENDBRANCH   1  30
BRANCH   2  33
ATOM     33  O   LIG    1       27.421 -20.532   5.376  0.00  0.00    -0.485 OA
BRANCH  33  34
ATOM     34  C   LIG    1       27.465 -21.304   6.583  0.00  0.00    +0.226 C 
ATOM     35  C   LIG    1       28.913 -21.506   7.002  0.00  0.00    +0.048 C 
ENDBRANCH  33  34
ENDBRANCH   2  33
BRANCH   3  36
ATOM     36  O   LIG    1       24.881 -21.572   6.353  0.00  0.00    -0.487 OA
BRANCH  36  37
ATOM     37  C   LIG    1       23.632 -21.434   7.058  0.00  0.00    +0.226 C 
ATOM     38  C   LIG    1       23.160 -19.988   7.062  0.00  0.00    +0.048 C 
ENDBRANCH  36  37
ENDBRANCH   3  36
TORSDOF 9
ENDMDL
