MODEL 1
REMARK VINA RESULT:      -6.0      0.000      0.000
REMARK  Name = *****
REMARK                            x       y       z     vdW  Elec       q    Type
REMARK                         _______ _______ _______ _____ _____    ______ ____
ROOT
ATOM      1  O   LIG    1       26.307 -21.261   6.250  0.00  0.00    -0.489 OA
ENDROOT
BRANCH   1   2
ATOM      2  C   LIG    1       25.249 -20.635   5.644  0.00  0.00    +0.121 A 
ATOM      3  C   LIG    1       25.312 -19.942   4.430  0.00  0.00    +0.047 A 
ATOM      4  C   LIG    1       24.160 -19.346   3.904  0.00  0.00    +0.023 A 
ATOM      5  C   LIG    1       22.953 -19.431   4.590  0.00  0.00    +0.041 A 
ATOM      6 CL   LIG    1       21.534 -18.722   3.924  0.00  0.00    -0.084 Cl
ATOM      7  C   LIG    1       22.890 -20.090   5.816  0.00  0.00    +0.023 A 
ATOM      8  C   LIG    1       24.042 -20.682   6.343  0.00  0.00    +0.047 A 
ENDBRANCH   1   2
BRANCH   1   9
ATOM      9  C   LIG    1       27.220 -20.400   6.953  0.00  0.00    +0.262 C 
BRANCH   9  10
ATOM     10  C   LIG    1       28.541 -20.363   6.171  0.00  0.00    +0.177 C 
BRANCH  10  11
ATOM     11  O   LIG    1       29.474 -21.279   6.772  0.00  0.00    -0.386 OA
ATOM     12  H   LIG    1       29.257 -21.292   7.724  0.00  0.00    +0.210 HD
ENDBRANCH  10  11
BRANCH  10  13
ATOM     13  C   LIG    1       29.178 -18.973   6.196  0.00  0.00    +0.190 C 
BRANCH  13  14
ATOM     14  O   LIG    1       29.038 -18.347   4.921  0.00  0.00    -0.392 OA
ATOM     15  H   LIG    1       28.361 -18.879   4.454  0.00  0.00    +0.209 HD
ENDBRANCH  13  14
ENDBRANCH  10  13
ENDBRANCH   9  10
ENDBRANCH   1   9
TORSDOF 6
ENDMDL
MODEL 2
REMARK VINA RESULT:      -6.0      0.147      1.345
REMARK  Name = *****
REMARK                            x       y       z     vdW  Elec       q    Type
REMARK                         _______ _______ _______ _____ _____    ______ ____
ROOT
ATOM      1  O   LIG    1       26.312 -21.305   6.305  0.00  0.00    -0.489 OA
ENDROOT
BRANCH   1   2
ATOM      2  C   LIG    1       25.169 -20.718   5.831  0.00  0.00    +0.121 A 
ATOM      3  C   LIG    1       23.929 -20.731   6.477  0.00  0.00    +0.047 A 
ATOM      4  C   LIG    1       22.830 -20.089   5.895  0.00  0.00    +0.023 A 
ATOM      5  C   LIG    1       22.962 -19.446   4.669  0.00  0.00    +0.041 A 
ATOM      6 CL   LIG    1       21.615 -18.634   3.974  0.00  0.00    -0.084 Cl
ATOM      7  C   LIG    1       24.186 -19.458   4.002  0.00  0.00    +0.023 A 
ATOM      8  C   LIG    1       25.282 -20.103   4.582  0.00  0.00    +0.047 A 
ENDBRANCH   1   2
BRANCH   1   9
ATOM      9  C   LIG    1       27.205 -20.438   7.028  0.00  0.00    +0.262 C 
BRANCH   9  10
ATOM     10  C   LIG    1       28.551 -20.414   6.290  0.00  0.00    +0.177 C 
BRANCH  10  11
ATOM     11  O   LIG    1       29.475 -21.290   6.959  0.00  0.00    -0.386 OA
ATOM     12  H   LIG    1       29.304 -21.177   7.914  0.00  0.00    +0.210 HD
ENDBRANCH  10  11
BRANCH  10  13
ATOM     13  C   LIG    1       29.169 -19.014   6.278  0.00  0.00    +0.190 C 
BRANCH  13  14
ATOM     14  O   LIG    1       29.105 -18.462   4.963  0.00  0.00    -0.392 OA
ATOM     15  H   LIG    1       28.340 -17.850   4.985  0.00  0.00    +0.209 HD
ENDBRANCH  13  14
ENDBRANCH  10  13
ENDBRANCH   9  10
ENDBRANCH   1   9
TORSDOF 6
ENDMDL
MODEL 3
REMARK VINA RESULT:      -5.0      3.452      4.494
REMARK  Name = *****
REMARK                            x       y       z     vdW  Elec       q    Type
REMARK                         _______ _______ _______ _____ _____    ______ ____
ROOT
ATOM      1  O   LIG    1       25.856 -17.374   2.870  0.00  0.00    -0.489 OA
ENDROOT
BRANCH   1   2
ATOM      2  C   LIG    1       25.229 -18.363   3.582  0.00  0.00    +0.121 A 
ATOM      3  C   LIG    1       25.866 -19.470   4.154  0.00  0.00    +0.047 A 
ATOM      4  C   LIG    1       25.119 -20.416   4.866  0.00  0.00    +0.023 A 
ATOM      5  C   LIG    1       23.743 -20.266   4.998  0.00  0.00    +0.041 A 
ATOM      6 CL   LIG    1       22.835 -21.416   5.899  0.00  0.00    -0.084 Cl
ATOM      7  C   LIG    1       23.097 -19.185   4.402  0.00  0.00    +0.023 A 
ATOM      8  C   LIG    1       23.843 -18.242   3.687  0.00  0.00    +0.047 A 
ENDBRANCH   1   2
BRANCH   1   9
ATOM      9  C   LIG    1       26.892 -16.664   3.571  0.00  0.00    +0.262 C 
BRANCH   9  10
ATOM     10  C   LIG    1       26.569 -15.164   3.511  0.00  0.00    +0.177 C 
BRANCH  10  11
ATOM     11  O   LIG    1       26.468 -14.754   2.136  0.00  0.00    -0.386 OA
ATOM     12  H   LIG    1       27.248 -14.188   1.970  0.00  0.00    +0.210 HD
ENDBRANCH  10  11
BRANCH  10  13
ATOM     13  C   LIG    1       27.664 -14.319   4.165  0.00  0.00    +0.190 C 
BRANCH  13  14
ATOM     14  O   LIG    1       28.227 -13.422   3.208  0.00  0.00    -0.392 OA
ATOM     15  H   LIG    1       28.964 -12.982   3.680  0.00  0.00    +0.209 HD
ENDBRANCH  13  14
ENDBRANCH  10  13
ENDBRANCH   9  10
ENDBRANCH   1   9
TORSDOF 6
ENDMDL
MODEL 4
REMARK VINA RESULT:      -4.8      3.454      4.554
REMARK  Name = *****
REMARK                            x       y       z     vdW  Elec       q    Type
REMARK                         _______ _______ _______ _____ _____    ______ ____
ROOT
ATOM      1  O   LIG    1       25.868 -17.343   3.129  0.00  0.00    -0.489 OA
ENDROOT
BRANCH   1   2
ATOM      2  C   LIG    1       24.920 -18.207   3.608  0.00  0.00    +0.121 A 
ATOM      3  C   LIG    1       23.597 -17.866   3.909  0.00  0.00    +0.047 A 
ATOM      4  C   LIG    1       22.715 -18.840   4.389  0.00  0.00    +0.023 A 
ATOM      5  C   LIG    1       23.151 -20.147   4.580  0.00  0.00    +0.041 A 
ATOM      6 CL   LIG    1       22.054 -21.347   5.142  0.00  0.00    -0.084 Cl
ATOM      7  C   LIG    1       24.476 -20.488   4.315  0.00  0.00    +0.023 A 
ATOM      8  C   LIG    1       25.358 -19.512   3.839  0.00  0.00    +0.047 A 
ENDBRANCH   1   2
BRANCH   1   9
ATOM      9  C   LIG    1       25.633 -15.949   3.395  0.00  0.00    +0.262 C 
BRANCH   9  10
ATOM     10  C   LIG    1       26.909 -15.171   3.042  0.00  0.00    +0.177 C 
BRANCH  10  11
ATOM     11  O   LIG    1       27.846 -15.279   4.128  0.00  0.00    -0.386 OA
ATOM     12  H   LIG    1       27.347 -15.040   4.934  0.00  0.00    +0.210 HD
ENDBRANCH  10  11
BRANCH  10  13
ATOM     13  C   LIG    1       26.627 -13.684   2.822  0.00  0.00    +0.190 C 
BRANCH  13  14
ATOM     14  O   LIG    1       27.835 -12.934   2.939  0.00  0.00    -0.392 OA
ATOM     15  H   LIG    1       27.792 -12.526   3.828  0.00  0.00    +0.209 HD
ENDBRANCH  13  14
ENDBRANCH  10  13
ENDBRANCH   9  10
ENDBRANCH   1   9
TORSDOF 6
ENDMDL
MODEL 5
REMARK VINA RESULT:      -4.8      3.261      4.356
REMARK  Name = *****
REMARK                            x       y       z     vdW  Elec       q    Type
REMARK                         _______ _______ _______ _____ _____    ______ ____
ROOT
ATOM      1  O   LIG    1       25.771 -17.553   2.972  0.00  0.00    -0.489 OA
ENDROOT
BRANCH   1   2
ATOM      2  C   LIG    1       25.117 -18.539   3.662  0.00  0.00    +0.121 A 
ATOM      3  C   LIG    1       25.721 -19.677   4.207  0.00  0.00    +0.047 A 
ATOM      4  C   LIG    1       24.947 -20.616   4.899  0.00  0.00    +0.023 A 
ATOM      5  C   LIG    1       23.576 -20.429   5.037  0.00  0.00    +0.041 A 
ATOM      6 CL   LIG    1       22.635 -21.572   5.913  0.00  0.00    -0.084 Cl
ATOM      7  C   LIG    1       22.962 -19.315   4.467  0.00  0.00    +0.023 A 
ATOM      8  C   LIG    1       23.735 -18.379   3.773  0.00  0.00    +0.047 A 
ENDBRANCH   1   2
BRANCH   1   9
ATOM      9  C   LIG    1       26.842 -16.903   3.680  0.00  0.00    +0.262 C 
BRANCH   9  10
ATOM     10  C   LIG    1       26.823 -15.412   3.313  0.00  0.00    +0.177 C 
BRANCH  10  11
ATOM     11  O   LIG    1       27.880 -14.736   4.016  0.00  0.00    -0.386 OA
ATOM     12  H   LIG    1       28.701 -14.953   3.533  0.00  0.00    +0.210 HD
ENDBRANCH  10  11
BRANCH  10  13
ATOM     13  C   LIG    1       25.504 -14.745   3.710  0.00  0.00    +0.190 C 
BRANCH  13  14
ATOM     14  O   LIG    1       25.725 -13.817   4.771  0.00  0.00    -0.392 OA
ATOM     15  H   LIG    1       24.845 -13.693   5.183  0.00  0.00    +0.209 HD
ENDBRANCH  13  14
ENDBRANCH  10  13
ENDBRANCH   9  10
ENDBRANCH   1   9
TORSDOF 6
ENDMDL
MODEL 6
REMARK VINA RESULT:      -4.5      4.514      5.714
REMARK  Name = *****
REMARK                            x       y       z     vdW  Elec       q    Type
REMARK                         _______ _______ _______ _____ _____    ______ ____
ROOT
ATOM      1  O   LIG    1       26.487 -16.761   3.495  0.00  0.00    -0.489 OA
ENDROOT
BRANCH   1   2
ATOM      2  C   LIG    1       25.961 -15.507   3.325  0.00  0.00    +0.121 A 
ATOM      3  C   LIG    1       26.590 -14.454   2.651  0.00  0.00    +0.047 A 
ATOM      4  C   LIG    1       25.948 -13.216   2.536  0.00  0.00    +0.023 A 
ATOM      5  C   LIG    1       24.692 -13.022   3.099  0.00  0.00    +0.041 A 
ATOM      6 CL   LIG    1       23.896 -11.507   2.929  0.00  0.00    -0.084 Cl
ATOM      7  C   LIG    1       24.074 -14.056   3.802  0.00  0.00    +0.023 A 
ATOM      8  C   LIG    1       24.717 -15.292   3.920  0.00  0.00    +0.047 A 
ENDBRANCH   1   2
BRANCH   1   9
ATOM      9  C   LIG    1       25.668 -17.849   3.032  0.00  0.00    +0.262 C 
BRANCH   9  10
ATOM     10  C   LIG    1       25.591 -18.900   4.149  0.00  0.00    +0.177 C 
BRANCH  10  11
ATOM     11  O   LIG    1       26.923 -19.311   4.506  0.00  0.00    -0.386 OA
ATOM     12  H   LIG    1       27.521 -18.647   4.110  0.00  0.00    +0.210 HD
ENDBRANCH  10  11
BRANCH  10  13
ATOM     13  C   LIG    1       24.826 -20.148   3.705  0.00  0.00    +0.190 C 
BRANCH  13  14
ATOM     14  O   LIG    1       25.224 -21.271   4.490  0.00  0.00    -0.392 OA
ATOM     15  H   LIG    1       24.638 -22.000   4.201  0.00  0.00    +0.209 HD
ENDBRANCH  13  14
ENDBRANCH  10  13
ENDBRANCH   9  10
ENDBRANCH   1   9
TORSDOF 6
ENDMDL
MODEL 7
REMARK VINA RESULT:      -4.5      3.269      5.290
REMARK  Name = *****
REMARK                            x       y       z     vdW  Elec       q    Type
REMARK                         _______ _______ _______ _____ _____    ______ ____
ROOT
ATOM      1  O   LIG    1       24.386 -21.556   6.042  0.00  0.00    -0.489 OA
ENDROOT
BRANCH   1   2
ATOM      2  C   LIG    1       25.587 -20.897   6.030  0.00  0.00    +0.121 A 
ATOM      3  C   LIG    1       26.533 -20.925   7.060  0.00  0.00    +0.047 A 
ATOM      4  C   LIG    1       27.731 -20.214   6.931  0.00  0.00    +0.023 A 
ATOM      5  C   LIG    1       27.981 -19.467   5.784  0.00  0.00    +0.041 A 
ATOM      6 CL   LIG    1       29.468 -18.619   5.618  0.00  0.00    -0.084 Cl
ATOM      7  C   LIG    1       27.030 -19.406   4.768  0.00  0.00    +0.023 A 
ATOM      8  C   LIG    1       25.831 -20.114   4.900  0.00  0.00    +0.047 A 
ENDBRANCH   1   2
BRANCH   1   9
ATOM      9  C   LIG    1       23.275 -20.816   6.578  0.00  0.00    +0.262 C 
BRANCH   9  10
ATOM     10  C   LIG    1       22.341 -20.447   5.416  0.00  0.00    +0.177 C 
BRANCH  10  11
ATOM     11  O   LIG    1       22.590 -21.331   4.308  0.00  0.00    -0.386 OA
ATOM     12  H   LIG    1       21.747 -21.799   4.149  0.00  0.00    +0.210 HD
ENDBRANCH  10  11
BRANCH  10  13
ATOM     13  C   LIG    1       22.578 -19.017   4.927  0.00  0.00    +0.190 C 
BRANCH  13  14
ATOM     14  O   LIG    1       21.529 -18.621   4.044  0.00  0.00    -0.392 OA
ATOM     15  H   LIG    1       21.517 -17.643   4.091  0.00  0.00    +0.209 HD
ENDBRANCH  13  14
ENDBRANCH  10  13
ENDBRANCH   9  10
ENDBRANCH   1   9
TORSDOF 6
ENDMDL
MODEL 8
REMARK VINA RESULT:      -4.3      4.418      5.501
REMARK  Name = *****
REMARK                            x       y       z     vdW  Elec       q    Type
REMARK                         _______ _______ _______ _____ _____    ______ ____
ROOT
ATOM      1  O   LIG    1       25.904 -17.134   3.309  0.00  0.00    -0.489 OA
ENDROOT
BRANCH   1   2
ATOM      2  C   LIG    1       25.543 -15.813   3.336  0.00  0.00    +0.121 A 
ATOM      3  C   LIG    1       26.315 -14.757   2.841  0.00  0.00    +0.047 A 
ATOM      4  C   LIG    1       25.836 -13.444   2.919  0.00  0.00    +0.023 A 
ATOM      5  C   LIG    1       24.599 -13.183   3.498  0.00  0.00    +0.041 A 
ATOM      6 CL   LIG    1       24.003 -11.571   3.565  0.00  0.00    -0.084 Cl
ATOM      7  C   LIG    1       23.839 -14.226   4.024  0.00  0.00    +0.023 A 
ATOM      8  C   LIG    1       24.320 -15.537   3.949  0.00  0.00    +0.047 A 
ENDBRANCH   1   2
BRANCH   1   9
ATOM      9  C   LIG    1       24.860 -18.073   3.624  0.00  0.00    +0.262 C 
BRANCH   9  10
ATOM     10  C   LIG    1       25.438 -19.490   3.504  0.00  0.00    +0.177 C 
BRANCH  10  11
ATOM     11  O   LIG    1       24.410 -20.385   3.045  0.00  0.00    -0.386 OA
ATOM     12  H   LIG    1       24.379 -20.278   2.074  0.00  0.00    +0.210 HD
ENDBRANCH  10  11
BRANCH  10  13
ATOM     13  C   LIG    1       25.940 -20.016   4.850  0.00  0.00    +0.190 C 
BRANCH  13  14
ATOM     14  O   LIG    1       27.366 -19.970   4.892  0.00  0.00    -0.392 OA
ATOM     15  H   LIG    1       27.584 -19.021   5.001  0.00  0.00    +0.209 HD
ENDBRANCH  13  14
ENDBRANCH  10  13
ENDBRANCH   9  10
ENDBRANCH   1   9
TORSDOF 6
ENDMDL
MODEL 9
REMARK VINA RESULT:      -4.1      4.000      5.314
REMARK  Name = *****
REMARK                            x       y       z     vdW  Elec       q    Type
REMARK                         _______ _______ _______ _____ _____    ______ ____
ROOT
ATOM      1  O   LIG    1       25.702 -17.790   3.297  0.00  0.00    -0.489 OA
ENDROOT
BRANCH   1   2
ATOM      2  C   LIG    1       25.416 -16.468   3.511  0.00  0.00    +0.121 A 
ATOM      3  C   LIG    1       26.320 -15.412   3.352  0.00  0.00    +0.047 A 
ATOM      4  C   LIG    1       25.909 -14.096   3.596  0.00  0.00    +0.023 A 
ATOM      5  C   LIG    1       24.606 -13.834   4.006  0.00  0.00    +0.041 A 
ATOM      6 CL   LIG    1       24.099 -12.212   4.275  0.00  0.00    -0.084 Cl
ATOM      7  C   LIG    1       23.709 -14.883   4.200  0.00  0.00    +0.023 A 
ATOM      8  C   LIG    1       24.122 -16.198   3.960  0.00  0.00    +0.047 A 
ENDBRANCH   1   2
BRANCH   1   9
ATOM      9  C   LIG    1       24.603 -18.702   3.475  0.00  0.00    +0.262 C 
BRANCH   9  10
ATOM     10  C   LIG    1       25.075 -19.849   4.381  0.00  0.00    +0.177 C 
BRANCH  10  11
ATOM     11  O   LIG    1       26.489 -20.043   4.204  0.00  0.00    -0.386 OA
ATOM     12  H   LIG    1       26.705 -19.646   3.338  0.00  0.00    +0.210 HD
ENDBRANCH  10  11
BRANCH  10  13
ATOM     13  C   LIG    1       24.382 -21.168   4.036  0.00  0.00    +0.190 C 
BRANCH  13  14
ATOM     14  O   LIG    1       23.032 -21.147   4.498  0.00  0.00    -0.392 OA
ATOM     15  H   LIG    1       23.096 -20.949   5.455  0.00  0.00    +0.209 HD
ENDBRANCH  13  14
ENDBRANCH  10  13
ENDBRANCH   9  10
ENDBRANCH   1   9
TORSDOF 6
ENDMDL
