MODEL 1
REMARK VINA RESULT:      -8.7      0.000      0.000
REMARK  Name = *****
REMARK                            x       y       z     vdW  Elec       q    Type
REMARK                         _______ _______ _______ _____ _____    ______ ____
ROOT
ATOM      1  C   LIG    1       25.254 -22.092   7.022  0.00  0.00    +0.118 C 
ENDROOT
BRANCH   1   2
ATOM      2  C   LIG    1       25.062 -23.576   6.643  0.00  0.00    +0.007 A 
ATOM      3  C   LIG    1       23.819 -24.238   6.581  0.00  0.00    +0.047 A 
ATOM      4 CL   LIG    1       22.288 -23.433   6.646  0.00  0.00    -0.083 Cl
ATOM      5  C   LIG    1       23.748 -25.630   6.412  0.00  0.00    +0.020 A 
ATOM      6  C   LIG    1       24.902 -26.381   6.205  0.00  0.00    +0.001 A 
ATOM      7  C   LIG    1       26.127 -25.738   6.130  0.00  0.00    +0.001 A 
ATOM      8  C   LIG    1       26.208 -24.359   6.355  0.00  0.00    +0.008 A 
ENDBRANCH   1   2
BRANCH   1   9
ATOM      9  C   LIG    1       24.580 -21.108   6.027  0.00  0.00    -0.012 A 
ATOM     10  C   LIG    1       25.139 -20.826   4.760  0.00  0.00    +0.007 A 
ATOM     11  C   LIG    1       24.498 -19.971   3.860  0.00  0.00    +0.000 A 
ATOM     12  C   LIG    1       23.295 -19.378   4.193  0.00  0.00    +0.000 A 
ATOM     13  C   LIG    1       22.716 -19.633   5.440  0.00  0.00    +0.000 A 
ATOM     14  C   LIG    1       23.362 -20.481   6.350  0.00  0.00    +0.007 A 
ENDBRANCH   1   9
BRANCH   1  15
ATOM     15  O   LIG    1       24.570 -21.854   8.275  0.00  0.00    -0.379 OA
ATOM     16  H   LIG    1       25.253 -21.676   8.944  0.00  0.00    +0.211 HD
ENDBRANCH   1  15
BRANCH   1  17
ATOM     17  C   LIG    1       26.752 -21.755   7.293  0.00  0.00    +0.060 C 
BRANCH  17  18
ATOM     18  C   LIG    1       27.074 -20.331   7.793  0.00  0.00    +0.087 C 
BRANCH  18  20
ATOM     19  C   LIG    1       29.437 -20.856   7.798  0.00  0.00    +0.104 C 
ATOM     20  N   LIG    1       28.428 -19.862   7.407  0.00  0.00    -0.308 NA
ATOM     21  C   LIG    1       28.556 -19.602   5.971  0.00  0.00    +0.104 C 
ENDBRANCH  18  20
ENDBRANCH  17  18
ENDBRANCH   1  17
TORSDOF 6
ENDMDL
MODEL 2
REMARK VINA RESULT:      -7.5      2.103      5.273
REMARK  Name = *****
REMARK                            x       y       z     vdW  Elec       q    Type
REMARK                         _______ _______ _______ _____ _____    ______ ____
ROOT
ATOM      1  C   LIG    1       25.099 -21.144   5.896  0.00  0.00    +0.118 C 
ENDROOT
BRANCH   1   2
ATOM      2  C   LIG    1       26.466 -20.670   6.436  0.00  0.00    +0.007 A 
ATOM      3  C   LIG    1       26.832 -20.652   7.797  0.00  0.00    +0.047 A 
ATOM      4 CL   LIG    1       25.922 -21.413   9.057  0.00  0.00    -0.083 Cl
ATOM      5  C   LIG    1       28.021 -20.032   8.218  0.00  0.00    +0.020 A 
ATOM      6  C   LIG    1       28.914 -19.504   7.290  0.00  0.00    +0.001 A 
ATOM      7  C   LIG    1       28.640 -19.625   5.938  0.00  0.00    +0.001 A 
ATOM      8  C   LIG    1       27.432 -20.190   5.517  0.00  0.00    +0.008 A 
ENDBRANCH   1   2
BRANCH   1   9
ATOM      9  C   LIG    1       24.811 -22.644   6.176  0.00  0.00    -0.012 A 
ATOM     10  C   LIG    1       23.503 -23.121   6.420  0.00  0.00    +0.007 A 
ATOM     11  C   LIG    1       23.255 -24.480   6.630  0.00  0.00    +0.000 A 
ATOM     12  C   LIG    1       24.292 -25.393   6.603  0.00  0.00    +0.000 A 
ATOM     13  C   LIG    1       25.599 -24.954   6.367  0.00  0.00    +0.000 A 
ATOM     14  C   LIG    1       25.853 -23.590   6.169  0.00  0.00    +0.007 A 
ENDBRANCH   1   9
BRANCH   1  15
ATOM     15  O   LIG    1       24.060 -20.442   6.620  0.00  0.00    -0.379 OA
ATOM     16  H   LIG    1       23.223 -20.899   6.431  0.00  0.00    +0.211 HD
ENDBRANCH   1  15
BRANCH   1  17
ATOM     17  C   LIG    1       24.903 -20.754   4.400  0.00  0.00    +0.060 C 
BRANCH  17  18
ATOM     18  C   LIG    1       23.476 -20.376   3.952  0.00  0.00    +0.087 C 
BRANCH  18  20
ATOM     19  C   LIG    1       22.348 -18.308   4.512  0.00  0.00    +0.104 C 
ATOM     20  N   LIG    1       23.324 -18.939   3.613  0.00  0.00    -0.308 NA
ATOM     21  C   LIG    1       24.585 -18.197   3.692  0.00  0.00    +0.104 C 
ENDBRANCH  18  20
ENDBRANCH  17  18
ENDBRANCH   1  17
TORSDOF 6
ENDMDL
MODEL 3
REMARK VINA RESULT:      -7.4      1.554      2.202
REMARK  Name = *****
REMARK                            x       y       z     vdW  Elec       q    Type
REMARK                         _______ _______ _______ _____ _____    ______ ____
ROOT
ATOM      1  C   LIG    1       25.551 -20.974   6.286  0.00  0.00    +0.118 C 
ENDROOT
BRANCH   1   2
ATOM      2  C   LIG    1       25.409 -22.511   6.246  0.00  0.00    +0.007 A 
ATOM      3  C   LIG    1       25.831 -23.386   7.267  0.00  0.00    +0.047 A 
ATOM      4 CL   LIG    1       26.321 -22.871   8.845  0.00  0.00    -0.083 Cl
ATOM      5  C   LIG    1       25.836 -24.777   7.071  0.00  0.00    +0.020 A 
ATOM      6  C   LIG    1       25.332 -25.331   5.898  0.00  0.00    +0.001 A 
ATOM      7  C   LIG    1       24.790 -24.500   4.931  0.00  0.00    +0.001 A 
ATOM      8  C   LIG    1       24.836 -23.112   5.098  0.00  0.00    +0.008 A 
ENDBRANCH   1   2
BRANCH   1   9
ATOM      9  C   LIG    1       24.489 -20.232   5.429  0.00  0.00    -0.012 A 
ATOM     10  C   LIG    1       23.139 -20.131   5.835  0.00  0.00    +0.007 A 
ATOM     11  C   LIG    1       22.205 -19.425   5.073  0.00  0.00    +0.000 A 
ATOM     12  C   LIG    1       22.584 -18.806   3.897  0.00  0.00    +0.000 A 
ATOM     13  C   LIG    1       23.912 -18.890   3.465  0.00  0.00    +0.000 A 
ATOM     14  C   LIG    1       24.849 -19.608   4.220  0.00  0.00    +0.007 A 
ENDBRANCH   1   9
BRANCH   1  15
ATOM     15  O   LIG    1       25.286 -20.532   7.639  0.00  0.00    -0.379 OA
ATOM     16  H   LIG    1       24.633 -21.146   8.017  0.00  0.00    +0.211 HD
ENDBRANCH   1  15
BRANCH   1  17
ATOM     17  C   LIG    1       27.010 -20.521   5.977  0.00  0.00    +0.060 C 
BRANCH  17  18
ATOM     18  C   LIG    1       27.903 -20.154   7.180  0.00  0.00    +0.087 C 
BRANCH  18  20
ATOM     19  C   LIG    1       29.754 -18.802   6.401  0.00  0.00    +0.104 C 
ATOM     20  N   LIG    1       29.352 -20.140   6.856  0.00  0.00    -0.308 NA
ATOM     21  C   LIG    1       30.195 -20.524   7.990  0.00  0.00    +0.104 C 
ENDBRANCH  18  20
ENDBRANCH  17  18
ENDBRANCH   1  17
TORSDOF 6
ENDMDL
MODEL 4
REMARK VINA RESULT:      -7.4      1.475      4.423
REMARK  Name = *****
REMARK                            x       y       z     vdW  Elec       q    Type
REMARK                         _______ _______ _______ _____ _____    ______ ____
ROOT
ATOM      1  C   LIG    1       25.911 -21.270   6.138  0.00  0.00    +0.118 C 
ENDROOT
BRANCH   1   2
ATOM      2  C   LIG    1       24.762 -20.415   5.564  0.00  0.00    +0.007 A 
ATOM      3  C   LIG    1       23.450 -20.375   6.080  0.00  0.00    +0.047 A 
ATOM      4 CL   LIG    1       22.986 -21.059   7.601  0.00  0.00    -0.083 Cl
ATOM      5  C   LIG    1       22.420 -19.717   5.388  0.00  0.00    +0.020 A 
ATOM      6  C   LIG    1       22.688 -19.005   4.223  0.00  0.00    +0.001 A 
ATOM      7  C   LIG    1       23.992 -18.918   3.764  0.00  0.00    +0.001 A 
ATOM      8  C   LIG    1       25.011 -19.619   4.418  0.00  0.00    +0.008 A 
ENDBRANCH   1   2
BRANCH   1   9
ATOM      9  C   LIG    1       25.617 -22.794   6.118  0.00  0.00    -0.012 A 
ATOM     10  C   LIG    1       24.976 -23.418   5.024  0.00  0.00    +0.007 A 
ATOM     11  C   LIG    1       24.755 -24.797   5.003  0.00  0.00    +0.000 A 
ATOM     12  C   LIG    1       25.162 -25.587   6.061  0.00  0.00    +0.000 A 
ATOM     13  C   LIG    1       25.796 -25.002   7.162  0.00  0.00    +0.000 A 
ATOM     14  C   LIG    1       26.008 -23.617   7.192  0.00  0.00    +0.007 A 
ENDBRANCH   1   9
BRANCH   1  15
ATOM     15  O   LIG    1       27.062 -21.120   5.272  0.00  0.00    -0.379 OA
ATOM     16  H   LIG    1       27.014 -21.830   4.610  0.00  0.00    +0.211 HD
ENDBRANCH   1  15
BRANCH   1  17
ATOM     17  C   LIG    1       26.370 -20.755   7.536  0.00  0.00    +0.060 C 
BRANCH  17  18
ATOM     18  C   LIG    1       27.668 -19.923   7.588  0.00  0.00    +0.087 C 
BRANCH  18  20
ATOM     19  C   LIG    1       29.910 -19.780   6.685  0.00  0.00    +0.104 C 
ATOM     20  N   LIG    1       28.877 -20.691   7.197  0.00  0.00    -0.308 NA
ATOM     21  C   LIG    1       29.443 -21.469   8.301  0.00  0.00    +0.104 C 
ENDBRANCH  18  20
ENDBRANCH  17  18
ENDBRANCH   1  17
TORSDOF 6
ENDMDL
MODEL 5
REMARK VINA RESULT:      -7.4      1.724      5.105
REMARK  Name = *****
REMARK                            x       y       z     vdW  Elec       q    Type
REMARK                         _______ _______ _______ _____ _____    ______ ____
ROOT
ATOM      1  C   LIG    1       26.407 -21.052   7.314  0.00  0.00    +0.118 C 
ENDROOT
BRANCH   1   2
ATOM      2  C   LIG    1       25.475 -20.671   6.143  0.00  0.00    +0.007 A 
ATOM      3  C   LIG    1       24.079 -20.865   6.129  0.00  0.00    +0.047 A 
ATOM      4 CL   LIG    1       23.146 -21.301   7.520  0.00  0.00    -0.083 Cl
ATOM      5  C   LIG    1       23.333 -20.664   4.956  0.00  0.00    +0.020 A 
ATOM      6  C   LIG    1       23.939 -20.176   3.803  0.00  0.00    +0.001 A 
ATOM      7  C   LIG    1       25.286 -19.853   3.827  0.00  0.00    +0.001 A 
ATOM      8  C   LIG    1       26.044 -20.105   4.976  0.00  0.00    +0.008 A 
ENDBRANCH   1   2
BRANCH   1   9
ATOM      9  C   LIG    1       27.865 -20.550   7.131  0.00  0.00    -0.012 A 
ATOM     10  C   LIG    1       28.187 -19.493   6.250  0.00  0.00    +0.007 A 
ATOM     11  C   LIG    1       29.498 -19.026   6.128  0.00  0.00    +0.000 A 
ATOM     12  C   LIG    1       30.516 -19.593   6.871  0.00  0.00    +0.000 A 
ATOM     13  C   LIG    1       30.232 -20.644   7.749  0.00  0.00    +0.000 A 
ATOM     14  C   LIG    1       28.921 -21.123   7.866  0.00  0.00    +0.007 A 
ENDBRANCH   1   9
BRANCH   1  15
ATOM     15  O   LIG    1       25.943 -20.366   8.501  0.00  0.00    -0.379 OA
ATOM     16  H   LIG    1       26.249 -20.882   9.266  0.00  0.00    +0.211 HD
ENDBRANCH   1  15
BRANCH   1  17
ATOM     17  C   LIG    1       26.322 -22.572   7.648  0.00  0.00    +0.060 C 
BRANCH  17  18
ATOM     18  C   LIG    1       26.047 -23.536   6.476  0.00  0.00    +0.087 C 
BRANCH  18  20
ATOM     19  C   LIG    1       23.926 -24.702   6.446  0.00  0.00    +0.104 C 
ATOM     20  N   LIG    1       25.327 -24.769   6.883  0.00  0.00    -0.308 NA
ATOM     21  C   LIG    1       25.931 -25.989   6.342  0.00  0.00    +0.104 C 
ENDBRANCH  18  20
ENDBRANCH  17  18
ENDBRANCH   1  17
TORSDOF 6
ENDMDL
MODEL 6
REMARK VINA RESULT:      -7.4      1.784      5.128
REMARK  Name = *****
REMARK                            x       y       z     vdW  Elec       q    Type
REMARK                         _______ _______ _______ _____ _____    ______ ____
ROOT
ATOM      1  C   LIG    1       26.503 -20.943   6.986  0.00  0.00    +0.118 C 
ENDROOT
BRANCH   1   2
ATOM      2  C   LIG    1       25.472 -20.494   5.928  0.00  0.00    +0.007 A 
ATOM      3  C   LIG    1       24.073 -20.596   6.072  0.00  0.00    +0.047 A 
ATOM      4 CL   LIG    1       23.277 -20.982   7.560  0.00  0.00    -0.083 Cl
ATOM      5  C   LIG    1       23.215 -20.338   4.991  0.00  0.00    +0.020 A 
ATOM      6  C   LIG    1       23.718 -19.882   3.777  0.00  0.00    +0.001 A 
ATOM      7  C   LIG    1       25.077 -19.647   3.649  0.00  0.00    +0.001 A 
ATOM      8  C   LIG    1       25.942 -19.956   4.704  0.00  0.00    +0.008 A 
ENDBRANCH   1   2
BRANCH   1   9
ATOM      9  C   LIG    1       27.803 -20.095   6.981  0.00  0.00    -0.012 A 
ATOM     10  C   LIG    1       28.521 -19.820   8.167  0.00  0.00    +0.007 A 
ATOM     11  C   LIG    1       29.712 -19.089   8.141  0.00  0.00    +0.000 A 
ATOM     12  C   LIG    1       30.217 -18.616   6.945  0.00  0.00    +0.000 A 
ATOM     13  C   LIG    1       29.530 -18.868   5.753  0.00  0.00    +0.000 A 
ATOM     14  C   LIG    1       28.329 -19.590   5.777  0.00  0.00    +0.007 A 
ENDBRANCH   1   9
BRANCH   1  15
ATOM     15  O   LIG    1       25.934 -20.713   8.297  0.00  0.00    -0.379 OA
ATOM     16  H   LIG    1       26.579 -21.038   8.949  0.00  0.00    +0.211 HD
ENDBRANCH   1  15
BRANCH   1  17
ATOM     17  C   LIG    1       26.775 -22.476   6.912  0.00  0.00    +0.060 C 
BRANCH  17  18
ATOM     18  C   LIG    1       25.665 -23.413   7.432  0.00  0.00    +0.087 C 
BRANCH  18  20
ATOM     19  C   LIG    1       25.787 -25.588   6.376  0.00  0.00    +0.104 C 
ATOM     20  N   LIG    1       25.094 -24.293   6.381  0.00  0.00    -0.308 NA
ATOM     21  C   LIG    1       23.658 -24.527   6.548  0.00  0.00    +0.104 C 
ENDBRANCH  18  20
ENDBRANCH  17  18
ENDBRANCH   1  17
TORSDOF 6
ENDMDL
MODEL 7
REMARK VINA RESULT:      -7.4      2.107      4.617
REMARK  Name = *****
REMARK                            x       y       z     vdW  Elec       q    Type
REMARK                         _______ _______ _______ _____ _____    ______ ____
ROOT
ATOM      1  C   LIG    1       25.001 -21.475   5.890  0.00  0.00    +0.118 C 
ENDROOT
BRANCH   1   2
ATOM      2  C   LIG    1       26.343 -20.921   6.415  0.00  0.00    +0.007 A 
ATOM      3  C   LIG    1       26.720 -20.875   7.773  0.00  0.00    +0.047 A 
ATOM      4 CL   LIG    1       25.864 -21.678   9.045  0.00  0.00    -0.083 Cl
ATOM      5  C   LIG    1       27.875 -20.186   8.180  0.00  0.00    +0.020 A 
ATOM      6  C   LIG    1       28.729 -19.615   7.242  0.00  0.00    +0.001 A 
ATOM      7  C   LIG    1       28.452 -19.760   5.892  0.00  0.00    +0.001 A 
ATOM      8  C   LIG    1       27.273 -20.394   5.485  0.00  0.00    +0.008 A 
ENDBRANCH   1   2
BRANCH   1   9
ATOM      9  C   LIG    1       24.103 -20.395   5.229  0.00  0.00    -0.012 A 
ATOM     10  C   LIG    1       22.854 -20.024   5.777  0.00  0.00    +0.007 A 
ATOM     11  C   LIG    1       22.077 -19.020   5.193  0.00  0.00    +0.000 A 
ATOM     12  C   LIG    1       22.516 -18.364   4.059  0.00  0.00    +0.000 A 
ATOM     13  C   LIG    1       23.746 -18.709   3.489  0.00  0.00    +0.000 A 
ATOM     14  C   LIG    1       24.523 -19.723   4.065  0.00  0.00    +0.007 A 
ENDBRANCH   1   9
BRANCH   1  15
ATOM     15  O   LIG    1       25.286 -22.404   4.817  0.00  0.00    -0.379 OA
ATOM     16  H   LIG    1       25.967 -21.994   4.257  0.00  0.00    +0.211 HD
ENDBRANCH   1  15
BRANCH   1  17
ATOM     17  C   LIG    1       24.256 -22.307   6.976  0.00  0.00    +0.060 C 
BRANCH  17  18
ATOM     18  C   LIG    1       23.670 -23.667   6.543  0.00  0.00    +0.087 C 
BRANCH  18  20
ATOM     19  C   LIG    1       25.728 -24.786   7.151  0.00  0.00    +0.104 C 
ATOM     20  N   LIG    1       24.701 -24.643   6.111  0.00  0.00    -0.308 NA
ATOM     21  C   LIG    1       24.147 -25.966   5.811  0.00  0.00    +0.104 C 
ENDBRANCH  18  20
ENDBRANCH  17  18
ENDBRANCH   1  17
TORSDOF 6
ENDMDL
MODEL 8
REMARK VINA RESULT:      -7.0      2.168      5.443
REMARK  Name = *****
REMARK                            x       y       z     vdW  Elec       q    Type
REMARK                         _______ _______ _______ _____ _____    ______ ____
ROOT
ATOM      1  C   LIG    1       24.498 -21.820   6.851  0.00  0.00    +0.118 C 
ENDROOT
BRANCH   1   2
ATOM      2  C   LIG    1       25.824 -21.030   6.878  0.00  0.00    +0.007 A 
ATOM      3  C   LIG    1       26.461 -20.488   5.743  0.00  0.00    +0.047 A 
ATOM      4 CL   LIG    1       25.728 -20.376   4.179  0.00  0.00    -0.083 Cl
ATOM      5  C   LIG    1       27.755 -19.947   5.830  0.00  0.00    +0.020 A 
ATOM      6  C   LIG    1       28.403 -19.846   7.057  0.00  0.00    +0.001 A 
ATOM      7  C   LIG    1       27.746 -20.252   8.208  0.00  0.00    +0.001 A 
ATOM      8  C   LIG    1       26.481 -20.843   8.119  0.00  0.00    +0.008 A 
ENDBRANCH   1   2
BRANCH   1   9
ATOM      9  C   LIG    1       24.695 -23.354   6.711  0.00  0.00    -0.012 A 
ATOM     10  C   LIG    1       23.612 -24.227   6.458  0.00  0.00    +0.007 A 
ATOM     11  C   LIG    1       23.812 -25.600   6.294  0.00  0.00    +0.000 A 
ATOM     12  C   LIG    1       25.083 -26.138   6.376  0.00  0.00    +0.000 A 
ATOM     13  C   LIG    1       26.176 -25.302   6.628  0.00  0.00    +0.000 A 
ATOM     14  C   LIG    1       25.977 -23.926   6.806  0.00  0.00    +0.007 A 
ENDBRANCH   1   9
BRANCH   1  15
ATOM     15  O   LIG    1       23.853 -21.662   8.138  0.00  0.00    -0.379 OA
ATOM     16  H   LIG    1       23.135 -22.316   8.179  0.00  0.00    +0.211 HD
ENDBRANCH   1  15
BRANCH   1  17
ATOM     17  C   LIG    1       23.499 -21.235   5.808  0.00  0.00    +0.060 C 
BRANCH  17  18
ATOM     18  C   LIG    1       22.911 -19.840   6.102  0.00  0.00    +0.087 C 
BRANCH  18  20
ATOM     19  C   LIG    1       22.760 -18.495   4.095  0.00  0.00    +0.104 C 
ATOM     20  N   LIG    1       22.010 -19.342   5.033  0.00  0.00    -0.308 NA
ATOM     21  C   LIG    1       21.364 -20.420   4.280  0.00  0.00    +0.104 C 
ENDBRANCH  18  20
ENDBRANCH  17  18
ENDBRANCH   1  17
TORSDOF 6
ENDMDL
MODEL 9
REMARK VINA RESULT:      -6.9      2.355      4.607
REMARK  Name = *****
REMARK                            x       y       z     vdW  Elec       q    Type
REMARK                         _______ _______ _______ _____ _____    ______ ____
ROOT
ATOM      1  C   LIG    1       24.866 -21.948   5.944  0.00  0.00    +0.118 C 
ENDROOT
BRANCH   1   2
ATOM      2  C   LIG    1       26.175 -21.381   6.536  0.00  0.00    +0.007 A 
ATOM      3  C   LIG    1       26.989 -20.414   5.911  0.00  0.00    +0.047 A 
ATOM      4 CL   LIG    1       26.518 -19.503   4.516  0.00  0.00    -0.083 Cl
ATOM      5  C   LIG    1       28.255 -20.091   6.428  0.00  0.00    +0.020 A 
ATOM      6  C   LIG    1       28.697 -20.647   7.624  0.00  0.00    +0.001 A 
ATOM      7  C   LIG    1       27.861 -21.500   8.327  0.00  0.00    +0.001 A 
ATOM      8  C   LIG    1       26.624 -21.869   7.788  0.00  0.00    +0.008 A 
ENDBRANCH   1   2
BRANCH   1   9
ATOM      9  C   LIG    1       23.957 -20.864   5.304  0.00  0.00    -0.012 A 
ATOM     10  C   LIG    1       23.100 -20.053   6.082  0.00  0.00    +0.007 A 
ATOM     11  C   LIG    1       22.318 -19.055   5.495  0.00  0.00    +0.000 A 
ATOM     12  C   LIG    1       22.368 -18.837   4.131  0.00  0.00    +0.000 A 
ATOM     13  C   LIG    1       23.204 -19.624   3.332  0.00  0.00    +0.000 A 
ATOM     14  C   LIG    1       23.980 -20.634   3.915  0.00  0.00    +0.007 A 
ENDBRANCH   1   9
BRANCH   1  15
ATOM     15  O   LIG    1       25.211 -22.819   4.840  0.00  0.00    -0.379 OA
ATOM     16  H   LIG    1       25.602 -23.623   5.223  0.00  0.00    +0.211 HD
ENDBRANCH   1  15
BRANCH   1  17
ATOM     17  C   LIG    1       24.113 -22.849   6.969  0.00  0.00    +0.060 C 
BRANCH  17  18
ATOM     18  C   LIG    1       23.650 -24.236   6.479  0.00  0.00    +0.087 C 
BRANCH  18  20
ATOM     19  C   LIG    1       25.719 -25.346   7.067  0.00  0.00    +0.104 C 
ATOM     20  N   LIG    1       24.760 -25.089   5.984  0.00  0.00    -0.308 NA
ATOM     21  C   LIG    1       24.300 -26.372   5.449  0.00  0.00    +0.104 C 
ENDBRANCH  18  20
ENDBRANCH  17  18
ENDBRANCH   1  17
TORSDOF 6
ENDMDL
