MODEL 1
REMARK VINA RESULT:      -7.9      0.000      0.000
REMARK  Name = *****
REMARK                            x       y       z     vdW  Elec       q    Type
REMARK                         _______ _______ _______ _____ _____    ______ ____
ROOT
ATOM      1  N   LIG    1       30.192 -19.149   8.333  0.00  0.00    -0.234 N 
ATOM      2  C   LIG    1       31.229 -19.949   8.794  0.00  0.00    +0.408 C 
ATOM      3  O   LIG    1       31.364 -21.158   8.720  0.00  0.00    -0.226 OA
ATOM      4  O   LIG    1       32.184 -19.168   9.399  0.00  0.00    -0.443 OA
ATOM      5  C   LIG    1       31.675 -17.835   9.529  0.00  0.00    +0.221 C 
ATOM      6  C   LIG    1       30.510 -17.772   8.569  0.00  0.00    +0.164 C 
ENDROOT
BRANCH   1  10
ATOM      7  C   LIG    1       25.630 -21.128   8.261  0.00  0.00    +0.044 C 
ATOM      8  C   LIG    1       26.796 -20.537   7.526  0.00  0.00    -0.049 A 
ATOM      9  C   LIG    1       27.934 -20.115   8.237  0.00  0.00    +0.027 A 
ATOM     10  C   LIG    1       29.053 -19.565   7.588  0.00  0.00    +0.040 A 
ATOM     11  C   LIG    1       28.995 -19.444   6.195  0.00  0.00    +0.024 A 
ATOM     12  C   LIG    1       27.863 -19.844   5.478  0.00  0.00    +0.002 A 
ATOM     13  C   LIG    1       26.767 -20.389   6.139  0.00  0.00    +0.003 A 
ENDBRANCH   1  10
BRANCH   5  14
ATOM     14  C   LIG    1       31.261 -17.606  10.982  0.00  0.00    +0.202 C 
BRANCH  14  15
ATOM     15  O   LIG    1       30.190 -16.666  11.039  0.00  0.00    -0.391 OA
ATOM     16  H   LIG    1       30.580 -15.814  11.312  0.00  0.00    +0.210 HD
ENDBRANCH  14  15
ENDBRANCH   5  14
TORSDOF 3
ENDMDL
MODEL 2
REMARK VINA RESULT:      -7.7      1.366      2.373
REMARK  Name = *****
REMARK                            x       y       z     vdW  Elec       q    Type
REMARK                         _______ _______ _______ _____ _____    ______ ____
ROOT
ATOM      1  N   LIG    1       29.287 -19.940   7.552  0.00  0.00    -0.234 N 
ATOM      2  C   LIG    1       30.183 -20.755   8.230  0.00  0.00    +0.408 C 
ATOM      3  O   LIG    1       29.982 -21.804   8.818  0.00  0.00    -0.226 OA
ATOM      4  O   LIG    1       31.444 -20.213   8.167  0.00  0.00    -0.443 OA
ATOM      5  C   LIG    1       31.352 -18.896   7.609  0.00  0.00    +0.221 C 
ATOM      6  C   LIG    1       29.997 -18.853   6.943  0.00  0.00    +0.164 C 
ENDROOT
BRANCH   1  10
ATOM      7  C   LIG    1       25.487 -20.307   4.364  0.00  0.00    +0.044 C 
ATOM      8  C   LIG    1       26.011 -20.379   5.769  0.00  0.00    -0.049 A 
ATOM      9  C   LIG    1       27.374 -20.141   6.023  0.00  0.00    +0.027 A 
ATOM     10  C   LIG    1       27.905 -20.188   7.324  0.00  0.00    +0.040 A 
ATOM     11  C   LIG    1       27.024 -20.488   8.369  0.00  0.00    +0.024 A 
ATOM     12  C   LIG    1       25.670 -20.744   8.127  0.00  0.00    +0.002 A 
ATOM     13  C   LIG    1       25.164 -20.689   6.832  0.00  0.00    +0.003 A 
ENDBRANCH   1  10
BRANCH   5  14
ATOM     14  C   LIG    1       31.494 -17.873   8.735  0.00  0.00    +0.202 C 
BRANCH  14  15
ATOM     15  O   LIG    1       32.171 -18.465   9.843  0.00  0.00    -0.391 OA
ATOM     16  H   LIG    1       32.694 -17.754  10.262  0.00  0.00    +0.210 HD
ENDBRANCH  14  15
ENDBRANCH   5  14
TORSDOF 3
ENDMDL
MODEL 3
REMARK VINA RESULT:      -7.4      3.492      5.907
REMARK  Name = *****
REMARK                            x       y       z     vdW  Elec       q    Type
REMARK                         _______ _______ _______ _____ _____    ______ ____
ROOT
ATOM      1  N   LIG    1       26.722 -20.553   7.163  0.00  0.00    -0.234 N 
ATOM      2  C   LIG    1       25.803 -20.591   8.202  0.00  0.00    +0.408 C 
ATOM      3  O   LIG    1       25.992 -20.502   9.404  0.00  0.00    -0.226 OA
ATOM      4  O   LIG    1       24.536 -20.751   7.697  0.00  0.00    -0.443 OA
ATOM      5  C   LIG    1       24.631 -21.035   6.295  0.00  0.00    +0.221 C 
ATOM      6  C   LIG    1       26.028 -20.608   5.910  0.00  0.00    +0.164 C 
ENDROOT
BRANCH   1  10
ATOM      7  C   LIG    1       31.126 -21.839   9.084  0.00  0.00    +0.044 C 
ATOM      8  C   LIG    1       30.312 -20.944   8.196  0.00  0.00    -0.049 A 
ATOM      9  C   LIG    1       28.925 -21.147   8.076  0.00  0.00    +0.027 A 
ATOM     10  C   LIG    1       28.124 -20.326   7.263  0.00  0.00    +0.040 A 
ATOM     11  C   LIG    1       28.759 -19.293   6.564  0.00  0.00    +0.024 A 
ATOM     12  C   LIG    1       30.139 -19.093   6.662  0.00  0.00    +0.002 A 
ATOM     13  C   LIG    1       30.914 -19.914   7.475  0.00  0.00    +0.003 A 
ENDBRANCH   1  10
BRANCH   5  14
ATOM     14  C   LIG    1       24.384 -22.527   6.078  0.00  0.00    +0.202 C 
BRANCH  14  15
ATOM     15  O   LIG    1       24.706 -22.880   4.734  0.00  0.00    -0.391 OA
ATOM     16  H   LIG    1       24.394 -23.796   4.604  0.00  0.00    +0.210 HD
ENDBRANCH  14  15
ENDBRANCH   5  14
TORSDOF 3
ENDMDL
MODEL 4
REMARK VINA RESULT:      -7.2      3.523      5.264
REMARK  Name = *****
REMARK                            x       y       z     vdW  Elec       q    Type
REMARK                         _______ _______ _______ _____ _____    ______ ____
ROOT
ATOM      1  N   LIG    1       26.504 -21.635   7.407  0.00  0.00    -0.234 N 
ATOM      2  C   LIG    1       26.693 -20.724   8.437  0.00  0.00    +0.408 C 
ATOM      3  O   LIG    1       25.898 -20.325   9.271  0.00  0.00    -0.226 OA
ATOM      4  O   LIG    1       27.990 -20.270   8.424  0.00  0.00    -0.443 OA
ATOM      5  C   LIG    1       28.629 -20.735   7.228  0.00  0.00    +0.221 C 
ATOM      6  C   LIG    1       27.749 -21.859   6.733  0.00  0.00    +0.164 C 
ENDROOT
BRANCH   1  10
ATOM      7  C   LIG    1       24.398 -25.954   6.125  0.00  0.00    +0.044 C 
ATOM      8  C   LIG    1       24.261 -24.508   6.500  0.00  0.00    -0.049 A 
ATOM      9  C   LIG    1       25.408 -23.744   6.783  0.00  0.00    +0.027 A 
ATOM     10  C   LIG    1       25.327 -22.384   7.128  0.00  0.00    +0.040 A 
ATOM     11  C   LIG    1       24.052 -21.809   7.188  0.00  0.00    +0.024 A 
ATOM     12  C   LIG    1       22.903 -22.562   6.926  0.00  0.00    +0.002 A 
ATOM     13  C   LIG    1       23.006 -23.906   6.582  0.00  0.00    +0.003 A 
ENDBRANCH   1  10
BRANCH   5  14
ATOM     14  C   LIG    1       28.726 -19.575   6.240  0.00  0.00    +0.202 C 
BRANCH  14  15
ATOM     15  O   LIG    1       28.116 -19.941   5.003  0.00  0.00    -0.391 OA
ATOM     16  H   LIG    1       27.612 -20.760   5.172  0.00  0.00    +0.210 HD
ENDBRANCH  14  15
ENDBRANCH   5  14
TORSDOF 3
ENDMDL
MODEL 5
REMARK VINA RESULT:      -7.2      2.721      4.282
REMARK  Name = *****
REMARK                            x       y       z     vdW  Elec       q    Type
REMARK                         _______ _______ _______ _____ _____    ______ ____
ROOT
ATOM      1  N   LIG    1       27.039 -20.711   6.970  0.00  0.00    -0.234 N 
ATOM      2  C   LIG    1       27.465 -21.373   8.113  0.00  0.00    +0.408 C 
ATOM      3  O   LIG    1       26.806 -21.924   8.979  0.00  0.00    -0.226 OA
ATOM      4  O   LIG    1       28.837 -21.346   8.182  0.00  0.00    -0.443 OA
ATOM      5  C   LIG    1       29.332 -20.465   7.165  0.00  0.00    +0.221 C 
ATOM      6  C   LIG    1       28.178 -20.298   6.205  0.00  0.00    +0.164 C 
ENDROOT
BRANCH   1  10
ATOM      7  C   LIG    1       23.904 -19.629   3.264  0.00  0.00    +0.044 C 
ATOM      8  C   LIG    1       24.132 -20.057   4.684  0.00  0.00    -0.049 A 
ATOM      9  C   LIG    1       25.442 -20.194   5.174  0.00  0.00    +0.027 A 
ATOM     10  C   LIG    1       25.702 -20.583   6.500  0.00  0.00    +0.040 A 
ATOM     11  C   LIG    1       24.599 -20.838   7.324  0.00  0.00    +0.024 A 
ATOM     12  C   LIG    1       23.291 -20.721   6.843  0.00  0.00    +0.002 A 
ATOM     13  C   LIG    1       23.057 -20.332   5.529  0.00  0.00    +0.003 A 
ENDBRANCH   1  10
BRANCH   5  14
ATOM     14  C   LIG    1       29.757 -19.150   7.818  0.00  0.00    +0.202 C 
BRANCH  14  15
ATOM     15  O   LIG    1       30.380 -18.308   6.850  0.00  0.00    -0.391 OA
ATOM     16  H   LIG    1       29.675 -18.014   6.242  0.00  0.00    +0.210 HD
ENDBRANCH  14  15
ENDBRANCH   5  14
TORSDOF 3
ENDMDL
MODEL 6
REMARK VINA RESULT:      -7.0      2.838      4.052
REMARK  Name = *****
REMARK                            x       y       z     vdW  Elec       q    Type
REMARK                         _______ _______ _______ _____ _____    ______ ____
ROOT
ATOM      1  N   LIG    1       27.180 -20.440   6.726  0.00  0.00    -0.234 N 
ATOM      2  C   LIG    1       27.455 -20.331   8.082  0.00  0.00    +0.408 C 
ATOM      3  O   LIG    1       26.689 -20.356   9.030  0.00  0.00    -0.226 OA
ATOM      4  O   LIG    1       28.807 -20.179   8.272  0.00  0.00    -0.443 OA
ATOM      5  C   LIG    1       29.431 -19.974   6.997  0.00  0.00    +0.221 C 
ATOM      6  C   LIG    1       28.410 -20.444   5.989  0.00  0.00    +0.164 C 
ENDROOT
BRANCH   1  10
ATOM      7  C   LIG    1       22.823 -22.839   6.768  0.00  0.00    +0.044 C 
ATOM      8  C   LIG    1       23.753 -21.852   6.124  0.00  0.00    -0.049 A 
ATOM      9  C   LIG    1       25.009 -21.591   6.699  0.00  0.00    +0.027 A 
ATOM     10  C   LIG    1       25.914 -20.683   6.123  0.00  0.00    +0.040 A 
ATOM     11  C   LIG    1       25.517 -20.035   4.948  0.00  0.00    +0.024 A 
ATOM     12  C   LIG    1       24.264 -20.273   4.376  0.00  0.00    +0.002 A 
ATOM     13  C   LIG    1       23.384 -21.178   4.960  0.00  0.00    +0.003 A 
ENDBRANCH   1  10
BRANCH   5  14
ATOM     14  C   LIG    1       29.776 -18.493   6.851  0.00  0.00    +0.202 C 
BRANCH  14  15
ATOM     15  O   LIG    1       29.850 -18.148   5.469  0.00  0.00    -0.391 OA
ATOM     16  H   LIG    1       30.125 -17.212   5.429  0.00  0.00    +0.210 HD
ENDBRANCH  14  15
ENDBRANCH   5  14
TORSDOF 3
ENDMDL
MODEL 7
REMARK VINA RESULT:      -7.0      5.959      7.587
REMARK  Name = *****
REMARK                            x       y       z     vdW  Elec       q    Type
REMARK                         _______ _______ _______ _____ _____    ______ ____
ROOT
ATOM      1  N   LIG    1       24.736 -23.215   6.077  0.00  0.00    -0.234 N 
ATOM      2  C   LIG    1       25.891 -23.392   6.827  0.00  0.00    +0.408 C 
ATOM      3  O   LIG    1       26.705 -22.564   7.200  0.00  0.00    -0.226 OA
ATOM      4  O   LIG    1       26.042 -24.721   7.139  0.00  0.00    -0.443 OA
ATOM      5  C   LIG    1       25.074 -25.481   6.406  0.00  0.00    +0.221 C 
ATOM      6  C   LIG    1       24.048 -24.467   5.957  0.00  0.00    +0.164 C 
ENDROOT
BRANCH   1  10
ATOM      7  C   LIG    1       25.263 -19.022   3.455  0.00  0.00    +0.044 C 
ATOM      8  C   LIG    1       24.423 -19.905   4.330  0.00  0.00    -0.049 A 
ATOM      9  C   LIG    1       24.937 -21.129   4.792  0.00  0.00    +0.027 A 
ATOM     10  C   LIG    1       24.189 -21.983   5.622  0.00  0.00    +0.040 A 
ATOM     11  C   LIG    1       22.897 -21.572   5.971  0.00  0.00    +0.024 A 
ATOM     12  C   LIG    1       22.368 -20.365   5.503  0.00  0.00    +0.002 A 
ATOM     13  C   LIG    1       23.126 -19.534   4.686  0.00  0.00    +0.003 A 
ENDBRANCH   1  10
BRANCH   5  14
ATOM     14  C   LIG    1       25.774 -26.175   5.239  0.00  0.00    +0.202 C 
BRANCH  14  15
ATOM     15  O   LIG    1       27.044 -26.669   5.661  0.00  0.00    -0.391 OA
ATOM     16  H   LIG    1       27.709 -26.279   5.062  0.00  0.00    +0.210 HD
ENDBRANCH  14  15
ENDBRANCH   5  14
TORSDOF 3
ENDMDL
MODEL 8
REMARK VINA RESULT:      -6.9      3.920      6.446
REMARK  Name = *****
REMARK                            x       y       z     vdW  Elec       q    Type
REMARK                         _______ _______ _______ _____ _____    ______ ____
ROOT
ATOM      1  N   LIG    1       26.162 -21.400   7.210  0.00  0.00    -0.234 N 
ATOM      2  C   LIG    1       25.364 -21.473   8.342  0.00  0.00    +0.408 C 
ATOM      3  O   LIG    1       25.632 -21.190   9.498  0.00  0.00    -0.226 OA
ATOM      4  O   LIG    1       24.117 -21.941   8.003  0.00  0.00    -0.443 OA
ATOM      5  C   LIG    1       24.148 -22.388   6.641  0.00  0.00    +0.221 C 
ATOM      6  C   LIG    1       25.389 -21.755   6.056  0.00  0.00    +0.164 C 
ENDROOT
BRANCH   1  10
ATOM      7  C   LIG    1       29.391 -18.187   5.212  0.00  0.00    +0.044 C 
ATOM      8  C   LIG    1       29.105 -19.317   6.158  0.00  0.00    -0.049 A 
ATOM      9  C   LIG    1       27.801 -19.832   6.262  0.00  0.00    +0.027 A 
ATOM     10  C   LIG    1       27.491 -20.896   7.127  0.00  0.00    +0.040 A 
ATOM     11  C   LIG    1       28.533 -21.427   7.895  0.00  0.00    +0.024 A 
ATOM     12  C   LIG    1       29.831 -20.912   7.813  0.00  0.00    +0.002 A 
ATOM     13  C   LIG    1       30.117 -19.861   6.948  0.00  0.00    +0.003 A 
ENDBRANCH   1  10
BRANCH   5  14
ATOM     14  C   LIG    1       24.193 -23.915   6.625  0.00  0.00    +0.202 C 
BRANCH  14  15
ATOM     15  O   LIG    1       22.867 -24.438   6.592  0.00  0.00    -0.391 OA
ATOM     16  H   LIG    1       22.264 -23.677   6.695  0.00  0.00    +0.210 HD
ENDBRANCH  14  15
ENDBRANCH   5  14
TORSDOF 3
ENDMDL
MODEL 9
REMARK VINA RESULT:      -6.9      3.545      5.301
REMARK  Name = *****
REMARK                            x       y       z     vdW  Elec       q    Type
REMARK                         _______ _______ _______ _____ _____    ______ ____
ROOT
ATOM      1  N   LIG    1       26.296 -21.517   7.025  0.00  0.00    -0.234 N 
ATOM      2  C   LIG    1       26.676 -20.539   6.117  0.00  0.00    +0.408 C 
ATOM      3  O   LIG    1       26.238 -20.307   5.002  0.00  0.00    -0.226 OA
ATOM      4  O   LIG    1       27.691 -19.781   6.648  0.00  0.00    -0.443 OA
ATOM      5  C   LIG    1       28.142 -20.399   7.860  0.00  0.00    +0.221 C 
ATOM      6  C   LIG    1       27.033 -21.351   8.243  0.00  0.00    +0.164 C 
ENDROOT
BRANCH   1  10
ATOM      7  C   LIG    1       24.806 -26.197   6.237  0.00  0.00    +0.044 C 
ATOM      8  C   LIG    1       24.471 -24.758   6.501  0.00  0.00    -0.049 A 
ATOM      9  C   LIG    1       25.502 -23.812   6.647  0.00  0.00    +0.027 A 
ATOM     10  C   LIG    1       25.233 -22.453   6.885  0.00  0.00    +0.040 A 
ATOM     11  C   LIG    1       23.890 -22.069   6.980  0.00  0.00    +0.024 A 
ATOM     12  C   LIG    1       22.857 -23.003   6.854  0.00  0.00    +0.002 A 
ATOM     13  C   LIG    1       23.145 -24.342   6.615  0.00  0.00    +0.003 A 
ENDBRANCH   1  10
BRANCH   5  14
ATOM     14  C   LIG    1       29.468 -21.108   7.586  0.00  0.00    +0.202 C 
BRANCH  14  15
ATOM     15  O   LIG    1       30.073 -21.494   8.819  0.00  0.00    -0.391 OA
ATOM     16  H   LIG    1       30.463 -20.686   9.204  0.00  0.00    +0.210 HD
ENDBRANCH  14  15
ENDBRANCH   5  14
TORSDOF 3
ENDMDL
