MODEL 1
REMARK VINA RESULT:      -7.0      0.000      0.000
REMARK  Name = *****
REMARK                            x       y       z     vdW  Elec       q    Type
REMARK                         _______ _______ _______ _____ _____    ______ ____
ROOT
ATOM      1  C   LIG    1       27.686 -21.824   7.850  0.00  0.00    +0.287 C 
ENDROOT
BRANCH   1   2
ATOM      2  N   LIG    1       26.257 -22.015   7.737  0.00  0.00    -0.291 N 
ATOM      3  C   LIG    1       25.616 -23.043   7.108  0.00  0.00    +0.171 A 
ATOM      4  N   LIG    1       26.183 -24.072   6.439  0.00  0.00    -0.196 NA
ATOM      5  C   LIG    1       25.315 -24.903   5.934  0.00  0.00    +0.195 C 
ATOM      6  N   LIG    1       23.945 -24.774   6.086  0.00  0.00    -0.293 N 
ATOM      7  H   LIG    1       23.329 -25.481   5.721  0.00  0.00    +0.172 HD
ATOM      8  C   LIG    1       23.319 -23.744   6.778  0.00  0.00    +0.280 C 
ATOM      9  O   LIG    1       22.096 -23.694   6.903  0.00  0.00    -0.265 OA
ATOM     10  C   LIG    1       24.269 -22.796   7.311  0.00  0.00    +0.172 A 
ATOM     11  N   LIG    1       24.079 -21.612   7.982  0.00  0.00    -0.229 NA
ATOM     12  C   LIG    1       25.292 -21.164   8.214  0.00  0.00    +0.203 A 
BRANCH   5  13
ATOM     13  N   LIG    1       25.738 -25.969   5.211  0.00  0.00    -0.329 N 
ATOM     14  H   LIG    1       25.092 -26.324   4.518  0.00  0.00    +0.145 HD
ATOM     15  H   LIG    1       26.668 -25.816   4.832  0.00  0.00    +0.145 HD
ENDBRANCH   5  13
ENDBRANCH   1   2
BRANCH   1  16
ATOM     16  O   LIG    1       27.982 -20.485   7.462  0.00  0.00    -0.356 OA
BRANCH  16  17
ATOM     17  C   LIG    1       28.249 -20.380   6.062  0.00  0.00    +0.203 C 
BRANCH  17  18
ATOM     18  C   LIG    1       27.144 -19.551   5.404  0.00  0.00    +0.260 C 
BRANCH  18  19
ATOM     19  O   LIG    1       26.086 -20.368   4.872  0.00  0.00    -0.461 OA
BRANCH  19  20
ATOM     20  C   LIG    1       25.247 -19.773   3.981  0.00  0.00    +0.324 C 
ATOM     21  O   LIG    1       25.547 -18.807   3.288  0.00  0.00    -0.249 OA
BRANCH  20  22
ATOM     22  C   LIG    1       23.940 -20.583   3.810  0.00  0.00    +0.163 C 
BRANCH  22  24
ATOM     23  C   LIG    1       21.669 -21.171   4.858  0.00  0.00    +0.009 C 
ATOM     24  C   LIG    1       22.803 -20.140   4.767  0.00  0.00    +0.011 C 
ATOM     25  C   LIG    1       22.194 -18.801   4.330  0.00  0.00    +0.009 C 
ENDBRANCH  22  24
BRANCH  22  26
ATOM     26  N   LIG    1       24.264 -22.019   3.992  0.00  0.00    -0.318 NA
ATOM     27  H   LIG    1       24.368 -22.205   4.993  0.00  0.00    +0.119 HD
ATOM     28  H   LIG    1       23.467 -22.577   3.683  0.00  0.00    +0.119 HD
ENDBRANCH  22  26
ENDBRANCH  20  22
ENDBRANCH  19  20
ENDBRANCH  18  19
ENDBRANCH  17  18
ENDBRANCH  16  17
ENDBRANCH   1  16
TORSDOF 10
ENDMDL
MODEL 2
REMARK VINA RESULT:      -5.9      2.593      6.101
REMARK  Name = *****
REMARK                            x       y       z     vdW  Elec       q    Type
REMARK                         _______ _______ _______ _____ _____    ______ ____
ROOT
ATOM      1  C   LIG    1       25.283 -20.960   6.330  0.00  0.00    +0.287 C 
ENDROOT
BRANCH   1   2
ATOM      2  N   LIG    1       26.463 -21.153   7.144  0.00  0.00    -0.291 N 
ATOM      3  C   LIG    1       27.708 -20.644   6.915  0.00  0.00    +0.171 A 
ATOM      4  N   LIG    1       28.099 -19.882   5.868  0.00  0.00    -0.196 NA
ATOM      5  C   LIG    1       29.358 -19.547   5.913  0.00  0.00    +0.195 C 
ATOM      6  N   LIG    1       30.215 -19.903   6.941  0.00  0.00    -0.293 N 
ATOM      7  H   LIG    1       31.162 -19.563   6.946  0.00  0.00    +0.172 HD
ATOM      8  C   LIG    1       29.854 -20.669   8.042  0.00  0.00    +0.280 C 
ATOM      9  O   LIG    1       30.652 -20.933   8.940  0.00  0.00    -0.265 OA
ATOM     10  C   LIG    1       28.470 -21.078   7.986  0.00  0.00    +0.172 A 
ATOM     11  N   LIG    1       27.738 -21.892   8.815  0.00  0.00    -0.229 NA
ATOM     12  C   LIG    1       26.540 -21.925   8.276  0.00  0.00    +0.203 A 
BRANCH   5  13
ATOM     13  N   LIG    1       29.898 -18.806   4.914  0.00  0.00    -0.329 N 
ATOM     14  H   LIG    1       29.510 -18.950   3.991  0.00  0.00    +0.145 HD
ATOM     15  H   LIG    1       29.945 -17.822   5.164  0.00  0.00    +0.145 HD
ENDBRANCH   5  13
ENDBRANCH   1   2
BRANCH   1  16
ATOM     16  O   LIG    1       24.160 -21.443   7.063  0.00  0.00    -0.356 OA
BRANCH  16  17
ATOM     17  C   LIG    1       23.116 -21.902   6.202  0.00  0.00    +0.203 C 
BRANCH  17  18
ATOM     18  C   LIG    1       22.703 -23.313   6.626  0.00  0.00    +0.260 C 
BRANCH  18  19
ATOM     19  O   LIG    1       23.831 -24.133   6.980  0.00  0.00    -0.461 OA
BRANCH  19  20
ATOM     20  C   LIG    1       24.443 -24.797   5.963  0.00  0.00    +0.324 C 
ATOM     21  O   LIG    1       24.969 -24.251   4.998  0.00  0.00    -0.249 OA
BRANCH  20  22
ATOM     22  C   LIG    1       24.566 -26.309   6.269  0.00  0.00    +0.163 C 
BRANCH  22  24
ATOM     23  C   LIG    1       26.634 -27.443   5.250  0.00  0.00    +0.009 C 
ATOM     24  C   LIG    1       26.025 -26.782   6.494  0.00  0.00    +0.011 C 
ATOM     25  C   LIG    1       26.115 -27.782   7.655  0.00  0.00    +0.009 C 
ENDBRANCH  22  24
BRANCH  22  26
ATOM     26  N   LIG    1       23.927 -27.054   5.156  0.00  0.00    -0.318 NA
ATOM     27  H   LIG    1       23.315 -27.771   5.553  0.00  0.00    +0.119 HD
ATOM     28  H   LIG    1       23.318 -26.416   4.642  0.00  0.00    +0.119 HD
ENDBRANCH  22  26
ENDBRANCH  20  22
ENDBRANCH  19  20
ENDBRANCH  18  19
ENDBRANCH  17  18
ENDBRANCH  16  17
ENDBRANCH   1  16
TORSDOF 10
ENDMDL
MODEL 3
REMARK VINA RESULT:      -5.8      2.317      5.327
REMARK  Name = *****
REMARK                            x       y       z     vdW  Elec       q    Type
REMARK                         _______ _______ _______ _____ _____    ______ ____
ROOT
ATOM      1  C   LIG    1       25.258 -23.608   6.132  0.00  0.00    +0.287 C 
ENDROOT
BRANCH   1   2
ATOM      2  N   LIG    1       24.181 -22.667   5.917  0.00  0.00    -0.291 N 
ATOM      3  C   LIG    1       24.252 -21.479   5.249  0.00  0.00    +0.171 A 
ATOM      4  N   LIG    1       25.348 -20.928   4.678  0.00  0.00    -0.196 NA
ATOM      5  C   LIG    1       25.112 -19.777   4.112  0.00  0.00    +0.195 C 
ATOM      6  N   LIG    1       23.864 -19.181   4.066  0.00  0.00    -0.293 N 
ATOM      7  H   LIG    1       23.736 -18.318   3.564  0.00  0.00    +0.172 HD
ATOM      8  C   LIG    1       22.709 -19.717   4.623  0.00  0.00    +0.280 C 
ATOM      9  O   LIG    1       21.620 -19.155   4.529  0.00  0.00    -0.265 OA
ATOM     10  C   LIG    1       22.963 -20.976   5.286  0.00  0.00    +0.172 A 
ATOM     11  N   LIG    1       22.135 -21.790   6.018  0.00  0.00    -0.229 NA
ATOM     12  C   LIG    1       22.900 -22.791   6.391  0.00  0.00    +0.203 A 
BRANCH   5  13
ATOM     13  N   LIG    1       26.124 -19.092   3.523  0.00  0.00    -0.329 N 
ATOM     14  H   LIG    1       26.044 -18.084   3.529  0.00  0.00    +0.145 HD
ATOM     15  H   LIG    1       27.030 -19.410   3.854  0.00  0.00    +0.145 HD
ENDBRANCH   5  13
ENDBRANCH   1   2
BRANCH   1  16
ATOM     16  O   LIG    1       26.211 -22.996   6.997  0.00  0.00    -0.356 OA
BRANCH  16  17
ATOM     17  C   LIG    1       25.607 -22.498   8.192  0.00  0.00    +0.203 C 
BRANCH  17  18
ATOM     18  C   LIG    1       26.138 -21.091   8.472  0.00  0.00    +0.260 C 
BRANCH  18  19
ATOM     19  O   LIG    1       27.053 -20.637   7.458  0.00  0.00    -0.461 OA
BRANCH  19  20
ATOM     20  C   LIG    1       28.370 -20.910   7.661  0.00  0.00    +0.324 C 
ATOM     21  O   LIG    1       28.791 -21.720   8.481  0.00  0.00    -0.249 OA
BRANCH  20  22
ATOM     22  C   LIG    1       29.260 -20.218   6.600  0.00  0.00    +0.163 C 
BRANCH  22  24
ATOM     23  C   LIG    1       31.574 -19.161   6.951  0.00  0.00    +0.009 C 
ATOM     24  C   LIG    1       30.060 -19.010   7.150  0.00  0.00    +0.011 C 
ATOM     25  C   LIG    1       29.796 -18.800   8.647  0.00  0.00    +0.009 C 
ENDBRANCH  22  24
BRANCH  22  26
ATOM     26  N   LIG    1       28.390 -19.814   5.468  0.00  0.00    -0.318 NA
ATOM     27  H   LIG    1       28.786 -18.975   5.037  0.00  0.00    +0.119 HD
ATOM     28  H   LIG    1       28.425 -20.542   4.752  0.00  0.00    +0.119 HD
ENDBRANCH  22  26
ENDBRANCH  20  22
ENDBRANCH  19  20
ENDBRANCH  18  19
ENDBRANCH  17  18
ENDBRANCH  16  17
ENDBRANCH   1  16
TORSDOF 10
ENDMDL
MODEL 4
REMARK VINA RESULT:      -5.8      1.645      2.455
REMARK  Name = *****
REMARK                            x       y       z     vdW  Elec       q    Type
REMARK                         _______ _______ _______ _____ _____    ______ ____
ROOT
ATOM      1  C   LIG    1       25.916 -22.948   7.645  0.00  0.00    +0.287 C 
ENDROOT
BRANCH   1   2
ATOM      2  N   LIG    1       25.091 -23.980   7.055  0.00  0.00    -0.291 N 
ATOM      3  C   LIG    1       25.520 -25.113   6.428  0.00  0.00    +0.171 A 
ATOM      4  N   LIG    1       26.801 -25.487   6.203  0.00  0.00    -0.196 NA
ATOM      5  C   LIG    1       26.905 -26.623   5.572  0.00  0.00    +0.195 C 
ATOM      6  N   LIG    1       25.822 -27.396   5.190  0.00  0.00    -0.293 N 
ATOM      7  H   LIG    1       25.971 -28.292   4.756  0.00  0.00    +0.172 HD
ATOM      8  C   LIG    1       24.492 -27.060   5.414  0.00  0.00    +0.280 C 
ATOM      9  O   LIG    1       23.569 -27.799   5.075  0.00  0.00    -0.265 OA
ATOM     10  C   LIG    1       24.361 -25.785   6.080  0.00  0.00    +0.172 A 
ATOM     11  N   LIG    1       23.247 -25.056   6.416  0.00  0.00    -0.229 NA
ATOM     12  C   LIG    1       23.721 -23.973   6.991  0.00  0.00    +0.203 A 
BRANCH   5  13
ATOM     13  N   LIG    1       28.130 -27.111   5.252  0.00  0.00    -0.329 N 
ATOM     14  H   LIG    1       28.792 -26.444   4.877  0.00  0.00    +0.145 HD
ATOM     15  H   LIG    1       28.522 -27.659   6.012  0.00  0.00    +0.145 HD
ENDBRANCH   5  13
ENDBRANCH   1   2
BRANCH   1  16
ATOM     16  O   LIG    1       26.563 -22.246   6.587  0.00  0.00    -0.356 OA
BRANCH  16  17
ATOM     17  C   LIG    1       27.004 -20.950   6.997  0.00  0.00    +0.203 C 
BRANCH  17  18
ATOM     18  C   LIG    1       26.861 -19.979   5.823  0.00  0.00    +0.260 C 
BRANCH  18  19
ATOM     19  O   LIG    1       26.285 -20.603   4.661  0.00  0.00    -0.461 OA
BRANCH  19  20
ATOM     20  C   LIG    1       25.244 -19.953   4.075  0.00  0.00    +0.324 C 
ATOM     21  O   LIG    1       25.331 -18.859   3.526  0.00  0.00    -0.249 OA
BRANCH  20  22
ATOM     22  C   LIG    1       23.982 -20.847   4.016  0.00  0.00    +0.163 C 
BRANCH  22  24
ATOM     23  C   LIG    1       22.366 -18.968   4.696  0.00  0.00    +0.009 C 
ATOM     24  C   LIG    1       22.854 -20.396   4.979  0.00  0.00    +0.011 C 
ATOM     25  C   LIG    1       23.310 -20.460   6.443  0.00  0.00    +0.009 C 
ENDBRANCH  22  24
BRANCH  22  26
ATOM     26  N   LIG    1       24.398 -22.243   4.295  0.00  0.00    -0.318 NA
ATOM     27  H   LIG    1       24.385 -22.768   3.417  0.00  0.00    +0.119 HD
ATOM     28  H   LIG    1       25.370 -22.239   4.608  0.00  0.00    +0.119 HD
ENDBRANCH  22  26
ENDBRANCH  20  22
ENDBRANCH  19  20
ENDBRANCH  18  19
ENDBRANCH  17  18
ENDBRANCH  16  17
ENDBRANCH   1  16
TORSDOF 10
ENDMDL
MODEL 5
REMARK VINA RESULT:      -5.5      2.101      4.959
REMARK  Name = *****
REMARK                            x       y       z     vdW  Elec       q    Type
REMARK                         _______ _______ _______ _____ _____    ______ ____
ROOT
ATOM      1  C   LIG    1       26.681 -20.410   7.852  0.00  0.00    +0.287 C 
ENDROOT
BRANCH   1   2
ATOM      2  N   LIG    1       25.325 -20.566   7.375  0.00  0.00    -0.291 N 
ATOM      3  C   LIG    1       24.886 -20.415   6.091  0.00  0.00    +0.171 A 
ATOM      4  N   LIG    1       25.622 -20.060   5.013  0.00  0.00    -0.196 NA
ATOM      5  C   LIG    1       24.926 -19.989   3.913  0.00  0.00    +0.195 C 
ATOM      6  N   LIG    1       23.574 -20.276   3.835  0.00  0.00    -0.293 N 
ATOM      7  H   LIG    1       23.107 -20.258   2.944  0.00  0.00    +0.172 HD
ATOM      8  C   LIG    1       22.783 -20.660   4.911  0.00  0.00    +0.280 C 
ATOM      9  O   LIG    1       21.591 -20.928   4.777  0.00  0.00    -0.265 OA
ATOM     10  C   LIG    1       23.534 -20.707   6.144  0.00  0.00    +0.172 A 
ATOM     11  N   LIG    1       23.132 -20.959   7.432  0.00  0.00    -0.229 NA
ATOM     12  C   LIG    1       24.230 -20.857   8.148  0.00  0.00    +0.203 A 
BRANCH   5  13
ATOM     13  N   LIG    1       25.526 -19.616   2.755  0.00  0.00    -0.329 N 
ATOM     14  H   LIG    1       24.957 -19.666   1.921  0.00  0.00    +0.145 HD
ATOM     15  H   LIG    1       25.994 -18.719   2.851  0.00  0.00    +0.145 HD
ENDBRANCH   5  13
ENDBRANCH   1   2
BRANCH   1  16
ATOM     16  O   LIG    1       27.138 -21.682   8.302  0.00  0.00    -0.356 OA
BRANCH  16  17
ATOM     17  C   LIG    1       27.124 -22.657   7.256  0.00  0.00    +0.203 C 
BRANCH  17  18
ATOM     18  C   LIG    1       26.008 -23.666   7.529  0.00  0.00    +0.260 C 
BRANCH  18  19
ATOM     19  O   LIG    1       25.184 -23.900   6.372  0.00  0.00    -0.461 OA
BRANCH  19  20
ATOM     20  C   LIG    1       24.054 -24.632   6.569  0.00  0.00    +0.324 C 
ATOM     21  O   LIG    1       22.946 -24.150   6.780  0.00  0.00    -0.249 OA
BRANCH  20  22
ATOM     22  C   LIG    1       24.302 -26.136   6.300  0.00  0.00    +0.163 C 
BRANCH  22  24
ATOM     23  C   LIG    1       26.287 -27.163   5.033  0.00  0.00    +0.009 C 
ATOM     24  C   LIG    1       25.798 -26.538   6.347  0.00  0.00    +0.011 C 
ATOM     25  C   LIG    1       26.073 -27.538   7.479  0.00  0.00    +0.009 C 
ENDBRANCH  22  24
BRANCH  22  26
ATOM     26  N   LIG    1       23.698 -26.472   4.988  0.00  0.00    -0.318 NA
ATOM     27  H   LIG    1       24.430 -26.438   4.274  0.00  0.00    +0.119 HD
ATOM     28  H   LIG    1       23.375 -27.440   5.014  0.00  0.00    +0.119 HD
ENDBRANCH  22  26
ENDBRANCH  20  22
ENDBRANCH  19  20
ENDBRANCH  18  19
ENDBRANCH  17  18
ENDBRANCH  16  17
ENDBRANCH   1  16
TORSDOF 10
ENDMDL
MODEL 6
REMARK VINA RESULT:      -5.3      2.006      5.026
REMARK  Name = *****
REMARK                            x       y       z     vdW  Elec       q    Type
REMARK                         _______ _______ _______ _____ _____    ______ ____
ROOT
ATOM      1  C   LIG    1       25.962 -20.588   8.591  0.00  0.00    +0.287 C 
ENDROOT
BRANCH   1   2
ATOM      2  N   LIG    1       26.023 -20.417   7.157  0.00  0.00    -0.291 N 
ATOM      3  C   LIG    1       25.036 -20.697   6.256  0.00  0.00    +0.171 A 
ATOM      4  N   LIG    1       23.815 -21.217   6.517  0.00  0.00    -0.196 NA
ATOM      5  C   LIG    1       23.084 -21.381   5.451  0.00  0.00    +0.195 C 
ATOM      6  N   LIG    1       23.491 -21.034   4.174  0.00  0.00    -0.293 N 
ATOM      7  H   LIG    1       22.857 -21.132   3.399  0.00  0.00    +0.172 HD
ATOM      8  C   LIG    1       24.727 -20.482   3.861  0.00  0.00    +0.280 C 
ATOM      9  O   LIG    1       25.026 -20.167   2.710  0.00  0.00    -0.265 OA
ATOM     10  C   LIG    1       25.563 -20.329   5.030  0.00  0.00    +0.172 A 
ATOM     11  N   LIG    1       26.862 -19.902   5.157  0.00  0.00    -0.229 NA
ATOM     12  C   LIG    1       27.111 -19.978   6.445  0.00  0.00    +0.203 A 
BRANCH   5  13
ATOM     13  N   LIG    1       21.844 -21.922   5.556  0.00  0.00    -0.329 N 
ATOM     14  H   LIG    1       21.729 -22.643   6.256  0.00  0.00    +0.145 HD
ATOM     15  H   LIG    1       21.129 -21.202   5.621  0.00  0.00    +0.145 HD
ENDBRANCH   5  13
ENDBRANCH   1   2
BRANCH   1  16
ATOM     16  O   LIG    1       25.936 -21.985   8.867  0.00  0.00    -0.356 OA
BRANCH  16  17
ATOM     17  C   LIG    1       26.633 -22.740   7.874  0.00  0.00    +0.203 C 
BRANCH  17  18
ATOM     18  C   LIG    1       25.895 -24.060   7.640  0.00  0.00    +0.260 C 
BRANCH  18  19
ATOM     19  O   LIG    1       25.336 -24.151   6.317  0.00  0.00    -0.461 OA
BRANCH  19  20
ATOM     20  C   LIG    1       24.185 -24.863   6.191  0.00  0.00    +0.324 C 
ATOM     21  O   LIG    1       23.157 -24.634   6.820  0.00  0.00    -0.249 OA
BRANCH  20  22
ATOM     22  C   LIG    1       24.270 -25.872   5.021  0.00  0.00    +0.163 C 
BRANCH  22  24
ATOM     23  C   LIG    1       24.779 -27.573   6.877  0.00  0.00    +0.009 C 
ATOM     24  C   LIG    1       24.963 -27.207   5.398  0.00  0.00    +0.011 C 
ATOM     25  C   LIG    1       26.469 -27.157   5.105  0.00  0.00    +0.009 C 
ENDBRANCH  22  24
BRANCH  22  26
ATOM     26  N   LIG    1       24.969 -25.206   3.893  0.00  0.00    -0.318 NA
ATOM     27  H   LIG    1       25.359 -24.323   4.229  0.00  0.00    +0.119 HD
ATOM     28  H   LIG    1       25.766 -25.780   3.618  0.00  0.00    +0.119 HD
ENDBRANCH  22  26
ENDBRANCH  20  22
ENDBRANCH  19  20
ENDBRANCH  18  19
ENDBRANCH  17  18
ENDBRANCH  16  17
ENDBRANCH   1  16
TORSDOF 10
ENDMDL
MODEL 7
REMARK VINA RESULT:      -4.9      2.225      4.705
REMARK  Name = *****
REMARK                            x       y       z     vdW  Elec       q    Type
REMARK                         _______ _______ _______ _____ _____    ______ ____
ROOT
ATOM      1  C   LIG    1       25.775 -22.277   6.369  0.00  0.00    +0.287 C 
ENDROOT
BRANCH   1   2
ATOM      2  N   LIG    1       24.967 -23.475   6.413  0.00  0.00    -0.291 N 
ATOM      3  C   LIG    1       25.387 -24.756   6.195  0.00  0.00    +0.171 A 
ATOM      4  N   LIG    1       26.634 -25.161   5.865  0.00  0.00    -0.196 NA
ATOM      5  C   LIG    1       26.736 -26.452   5.713  0.00  0.00    +0.195 C 
ATOM      6  N   LIG    1       25.687 -27.336   5.899  0.00  0.00    -0.293 N 
ATOM      7  H   LIG    1       25.845 -28.327   5.823  0.00  0.00    +0.172 HD
ATOM      8  C   LIG    1       24.395 -26.967   6.254  0.00  0.00    +0.280 C 
ATOM      9  O   LIG    1       23.507 -27.799   6.432  0.00  0.00    -0.265 OA
ATOM     10  C   LIG    1       24.259 -25.535   6.389  0.00  0.00    +0.172 A 
ATOM     11  N   LIG    1       23.158 -24.757   6.647  0.00  0.00    -0.229 NA
ATOM     12  C   LIG    1       23.615 -23.524   6.645  0.00  0.00    +0.203 A 
BRANCH   5  13
ATOM     13  N   LIG    1       27.923 -27.000   5.353  0.00  0.00    -0.329 N 
ATOM     14  H   LIG    1       28.159 -27.881   5.791  0.00  0.00    +0.145 HD
ATOM     15  H   LIG    1       28.028 -27.029   4.343  0.00  0.00    +0.145 HD
ENDBRANCH   5  13
ENDBRANCH   1   2
BRANCH   1  16
ATOM     16  O   LIG    1       24.978 -21.229   5.826  0.00  0.00    -0.356 OA
BRANCH  16  17
ATOM     17  C   LIG    1       25.553 -20.677   4.640  0.00  0.00    +0.203 C 
BRANCH  17  18
ATOM     18  C   LIG    1       26.629 -19.663   5.032  0.00  0.00    +0.260 C 
BRANCH  18  19
ATOM     19  O   LIG    1       27.562 -20.193   5.991  0.00  0.00    -0.461 OA
BRANCH  19  20
ATOM     20  C   LIG    1       28.714 -19.493   6.170  0.00  0.00    +0.324 C 
ATOM     21  O   LIG    1       29.268 -18.836   5.295  0.00  0.00    -0.249 OA
BRANCH  20  22
ATOM     22  C   LIG    1       29.134 -19.470   7.660  0.00  0.00    +0.163 C 
BRANCH  22  24
ATOM     23  C   LIG    1       30.677 -21.392   8.382  0.00  0.00    +0.009 C 
ATOM     24  C   LIG    1       30.592 -19.936   7.903  0.00  0.00    +0.011 C 
ATOM     25  C   LIG    1       31.296 -19.053   8.942  0.00  0.00    +0.009 C 
ENDBRANCH  22  24
BRANCH  22  26
ATOM     26  N   LIG    1       28.171 -20.304   8.420  0.00  0.00    -0.318 NA
ATOM     27  H   LIG    1       27.222 -20.004   8.181  0.00  0.00    +0.119 HD
ATOM     28  H   LIG    1       28.250 -21.270   8.099  0.00  0.00    +0.119 HD
ENDBRANCH  22  26
ENDBRANCH  20  22
ENDBRANCH  19  20
ENDBRANCH  18  19
ENDBRANCH  17  18
ENDBRANCH  16  17
ENDBRANCH   1  16
TORSDOF 10
ENDMDL
MODEL 8
REMARK VINA RESULT:      -4.8      2.810      5.415
REMARK  Name = *****
REMARK                            x       y       z     vdW  Elec       q    Type
REMARK                         _______ _______ _______ _____ _____    ______ ____
ROOT
ATOM      1  C   LIG    1       24.401 -23.027   7.326  0.00  0.00    +0.287 C 
ENDROOT
BRANCH   1   2
ATOM      2  N   LIG    1       24.703 -23.928   6.236  0.00  0.00    -0.291 N 
ATOM      3  C   LIG    1       25.215 -25.189   6.334  0.00  0.00    +0.171 A 
ATOM      4  N   LIG    1       25.573 -25.840   7.465  0.00  0.00    -0.196 NA
ATOM      5  C   LIG    1       26.040 -27.037   7.248  0.00  0.00    +0.195 C 
ATOM      6  N   LIG    1       26.139 -27.611   5.992  0.00  0.00    -0.293 N 
ATOM      7  H   LIG    1       26.455 -28.562   5.896  0.00  0.00    +0.172 HD
ATOM      8  C   LIG    1       25.769 -26.988   4.806  0.00  0.00    +0.280 C 
ATOM      9  O   LIG    1       25.854 -27.557   3.719  0.00  0.00    -0.265 OA
ATOM     10  C   LIG    1       25.283 -25.646   5.029  0.00  0.00    +0.172 A 
ATOM     11  N   LIG    1       24.893 -24.672   4.144  0.00  0.00    -0.229 NA
ATOM     12  C   LIG    1       24.561 -23.650   4.900  0.00  0.00    +0.203 A 
BRANCH   5  13
ATOM     13  N   LIG    1       26.466 -27.797   8.287  0.00  0.00    -0.329 N 
ATOM     14  H   LIG    1       27.353 -27.537   8.698  0.00  0.00    +0.145 HD
ATOM     15  H   LIG    1       25.737 -27.915   8.985  0.00  0.00    +0.145 HD
ENDBRANCH   5  13
ENDBRANCH   1   2
BRANCH   1  16
ATOM     16  O   LIG    1       25.307 -21.931   7.253  0.00  0.00    -0.356 OA
BRANCH  16  17
ATOM     17  C   LIG    1       25.876 -21.620   8.527  0.00  0.00    +0.203 C 
BRANCH  17  18
ATOM     18  C   LIG    1       26.516 -20.232   8.463  0.00  0.00    +0.260 C 
BRANCH  18  19
ATOM     19  O   LIG    1       27.951 -20.292   8.371  0.00  0.00    -0.461 OA
BRANCH  19  20
ATOM     20  C   LIG    1       28.490 -20.086   7.140  0.00  0.00    +0.324 C 
ATOM     21  O   LIG    1       27.846 -19.770   6.146  0.00  0.00    -0.249 OA
BRANCH  20  22
ATOM     22  C   LIG    1       30.037 -20.109   7.191  0.00  0.00    +0.163 C 
BRANCH  22  24
ATOM     23  C   LIG    1       31.522 -18.888   8.895  0.00  0.00    +0.009 C 
ATOM     24  C   LIG    1       30.613 -20.096   8.630  0.00  0.00    +0.011 C 
ATOM     25  C   LIG    1       31.419 -21.370   8.921  0.00  0.00    +0.009 C 
ENDBRANCH  22  24
BRANCH  22  26
ATOM     26  N   LIG    1       30.538 -18.955   6.404  0.00  0.00    -0.318 NA
ATOM     27  H   LIG    1       29.812 -18.234   6.385  0.00  0.00    +0.119 HD
ATOM     28  H   LIG    1       31.332 -18.543   6.895  0.00  0.00    +0.119 HD
ENDBRANCH  22  26
ENDBRANCH  20  22
ENDBRANCH  19  20
ENDBRANCH  18  19
ENDBRANCH  17  18
ENDBRANCH  16  17
ENDBRANCH   1  16
TORSDOF 10
ENDMDL
MODEL 9
REMARK VINA RESULT:      -4.8      2.053      6.042
REMARK  Name = *****
REMARK                            x       y       z     vdW  Elec       q    Type
REMARK                         _______ _______ _______ _____ _____    ______ ____
ROOT
ATOM      1  C   LIG    1       23.895 -20.831   4.811  0.00  0.00    +0.287 C 
ENDROOT
BRANCH   1   2
ATOM      2  N   LIG    1       25.172 -20.159   4.727  0.00  0.00    -0.291 N 
ATOM      3  C   LIG    1       26.232 -20.305   5.574  0.00  0.00    +0.171 A 
ATOM      4  N   LIG    1       26.293 -21.082   6.680  0.00  0.00    -0.196 NA
ATOM      5  C   LIG    1       27.439 -21.014   7.298  0.00  0.00    +0.195 C 
ATOM      6  N   LIG    1       28.507 -20.249   6.860  0.00  0.00    -0.293 N 
ATOM      7  H   LIG    1       29.385 -20.284   7.351  0.00  0.00    +0.172 HD
ATOM      8  C   LIG    1       28.496 -19.450   5.724  0.00  0.00    +0.280 C 
ATOM      9  O   LIG    1       29.485 -18.811   5.369  0.00  0.00    -0.265 OA
ATOM     10  C   LIG    1       27.219 -19.488   5.050  0.00  0.00    +0.172 A 
ATOM     11  N   LIG    1       26.760 -18.800   3.953  0.00  0.00    -0.229 NA
ATOM     12  C   LIG    1       25.525 -19.219   3.792  0.00  0.00    +0.203 A 
BRANCH   5  13
ATOM     13  N   LIG    1       27.636 -21.719   8.439  0.00  0.00    -0.329 N 
ATOM     14  H   LIG    1       27.024 -22.510   8.587  0.00  0.00    +0.145 HD
ATOM     15  H   LIG    1       28.615 -21.958   8.564  0.00  0.00    +0.145 HD
ENDBRANCH   5  13
ENDBRANCH   1   2
BRANCH   1  16
ATOM     16  O   LIG    1       24.094 -22.069   5.487  0.00  0.00    -0.356 OA
BRANCH  16  17
ATOM     17  C   LIG    1       23.178 -22.242   6.571  0.00  0.00    +0.203 C 
BRANCH  17  18
ATOM     18  C   LIG    1       22.691 -23.692   6.587  0.00  0.00    +0.260 C 
BRANCH  18  19
ATOM     19  O   LIG    1       23.711 -24.610   7.020  0.00  0.00    -0.461 OA
BRANCH  19  20
ATOM     20  C   LIG    1       24.223 -25.441   6.074  0.00  0.00    +0.324 C 
ATOM     21  O   LIG    1       23.546 -26.154   5.339  0.00  0.00    -0.249 OA
BRANCH  20  22
ATOM     22  C   LIG    1       25.747 -25.233   5.905  0.00  0.00    +0.163 C 
BRANCH  22  24
ATOM     23  C   LIG    1       26.785 -27.369   4.925  0.00  0.00    +0.009 C 
ATOM     24  C   LIG    1       26.584 -26.509   6.180  0.00  0.00    +0.011 C 
ATOM     25  C   LIG    1       25.929 -27.385   7.256  0.00  0.00    +0.009 C 
ENDBRANCH  22  24
BRANCH  22  26
ATOM     26  N   LIG    1       26.158 -24.120   6.796  0.00  0.00    -0.318 NA
ATOM     27  H   LIG    1       25.917 -24.368   7.759  0.00  0.00    +0.119 HD
ATOM     28  H   LIG    1       27.176 -24.040   6.772  0.00  0.00    +0.119 HD
ENDBRANCH  22  26
ENDBRANCH  20  22
ENDBRANCH  19  20
ENDBRANCH  18  19
ENDBRANCH  17  18
ENDBRANCH  16  17
ENDBRANCH   1  16
TORSDOF 10
ENDMDL
