MODEL 1
REMARK VINA RESULT:      -9.3      0.000      0.000
REMARK  Name = *****
REMARK                            x       y       z     vdW  Elec       q    Type
REMARK                         _______ _______ _______ _____ _____    ______ ____
ROOT
ATOM      1  N   LIG    1       25.471 -21.705   6.127  0.00  0.00    -0.299 N 
ATOM      2  C   LIG    1       25.126 -23.077   6.178  0.00  0.00    +0.037 A 
ATOM      3  C   LIG    1       23.829 -23.521   6.546  0.00  0.00    -0.026 A 
ATOM      4  C   LIG    1       23.592 -24.906   6.706  0.00  0.00    +0.005 A 
ATOM      5  C   LIG    1       24.579 -25.855   6.468  0.00  0.00    +0.000 A 
ATOM      6  C   LIG    1       25.817 -25.435   5.992  0.00  0.00    +0.002 A 
ATOM      7  C   LIG    1       22.621 -22.627   6.745  0.00  0.00    +0.041 C 
ATOM      8  C   LIG    1       22.827 -21.137   7.003  0.00  0.00    +0.041 C 
ATOM      9  C   LIG    1       23.419 -20.432   5.813  0.00  0.00    -0.026 A 
ATOM     10  C   LIG    1       22.695 -19.445   5.128  0.00  0.00    +0.005 A 
ATOM     11  C   LIG    1       23.227 -18.828   3.997  0.00  0.00    +0.000 A 
ATOM     12  C   LIG    1       24.483 -19.205   3.530  0.00  0.00    +0.002 A 
ATOM     13  C   LIG    1       25.218 -20.166   4.223  0.00  0.00    +0.024 A 
ATOM     14  C   LIG    1       26.069 -24.071   5.838  0.00  0.00    +0.024 A 
ATOM     15  C   LIG    1       24.716 -20.768   5.387  0.00  0.00    +0.037 A 
ENDROOT
BRANCH   1  16
ATOM     16  C   LIG    1       26.884 -21.321   6.414  0.00  0.00    +0.115 C 
BRANCH  16  18
ATOM     17  C   LIG    1       25.904 -20.566   8.616  0.00  0.00    +0.010 C 
ATOM     18  C   LIG    1       27.181 -21.071   7.926  0.00  0.00    +0.018 C 
BRANCH  18  19
ATOM     19  C   LIG    1       28.338 -20.060   8.132  0.00  0.00    +0.088 C 
BRANCH  19  20
ATOM     20  N   LIG    1       29.585 -20.313   7.365  0.00  0.00    -0.308 NA
ATOM     21  C   LIG    1       30.668 -20.641   8.302  0.00  0.00    +0.104 C 
ATOM     22  C   LIG    1       29.977 -19.155   6.557  0.00  0.00    +0.104 C 
ENDBRANCH  19  20
ENDBRANCH  18  19
ENDBRANCH  16  18
ENDBRANCH   1  16
TORSDOF 4
ENDMDL
MODEL 2
REMARK VINA RESULT:      -7.9      1.612      5.304
REMARK  Name = *****
REMARK                            x       y       z     vdW  Elec       q    Type
REMARK                         _______ _______ _______ _____ _____    ______ ____
ROOT
ATOM      1  N   LIG    1       26.215 -21.800   6.555  0.00  0.00    -0.299 N 
ATOM      2  C   LIG    1       27.431 -21.132   6.831  0.00  0.00    +0.037 A 
ATOM      3  C   LIG    1       27.957 -20.128   5.977  0.00  0.00    -0.026 A 
ATOM      4  C   LIG    1       29.240 -19.597   6.242  0.00  0.00    +0.005 A 
ATOM      5  C   LIG    1       29.990 -19.995   7.343  0.00  0.00    +0.000 A 
ATOM      6  C   LIG    1       29.431 -20.891   8.249  0.00  0.00    +0.002 A 
ATOM      7  C   LIG    1       27.231 -19.514   4.796  0.00  0.00    +0.041 C 
ATOM      8  C   LIG    1       26.054 -20.259   4.172  0.00  0.00    +0.041 C 
ATOM      9  C   LIG    1       24.884 -20.360   5.112  0.00  0.00    -0.026 A 
ATOM     10  C   LIG    1       23.667 -19.728   4.816  0.00  0.00    +0.005 A 
ATOM     11  C   LIG    1       22.600 -19.783   5.712  0.00  0.00    +0.000 A 
ATOM     12  C   LIG    1       22.746 -20.458   6.920  0.00  0.00    +0.002 A 
ATOM     13  C   LIG    1       23.944 -21.111   7.207  0.00  0.00    +0.024 A 
ATOM     14  C   LIG    1       28.169 -21.430   7.997  0.00  0.00    +0.024 A 
ATOM     15  C   LIG    1       25.015 -21.101   6.300  0.00  0.00    +0.037 A 
ENDROOT
BRANCH   1  16
ATOM     16  C   LIG    1       26.060 -23.209   7.026  0.00  0.00    +0.115 C 
BRANCH  16  18
ATOM     17  C   LIG    1       23.866 -24.375   6.568  0.00  0.00    +0.010 C 
ATOM     18  C   LIG    1       25.285 -24.130   6.031  0.00  0.00    +0.018 C 
BRANCH  18  19
ATOM     19  C   LIG    1       26.013 -25.481   5.804  0.00  0.00    +0.088 C 
BRANCH  19  20
ATOM     20  N   LIG    1       25.290 -26.704   6.236  0.00  0.00    -0.308 NA
ATOM     21  C   LIG    1       26.009 -27.315   7.362  0.00  0.00    +0.104 C 
ATOM     22  C   LIG    1       25.167 -27.682   5.151  0.00  0.00    +0.104 C 
ENDBRANCH  19  20
ENDBRANCH  18  19
ENDBRANCH  16  18
ENDBRANCH   1  16
TORSDOF 4
ENDMDL
MODEL 3
REMARK VINA RESULT:      -7.5      1.235      1.971
REMARK  Name = *****
REMARK                            x       y       z     vdW  Elec       q    Type
REMARK                         _______ _______ _______ _____ _____    ______ ____
ROOT
ATOM      1  N   LIG    1       25.132 -21.540   5.460  0.00  0.00    -0.299 N 
ATOM      2  C   LIG    1       24.723 -22.882   5.643  0.00  0.00    +0.037 A 
ATOM      3  C   LIG    1       23.602 -23.232   6.441  0.00  0.00    -0.026 A 
ATOM      4  C   LIG    1       23.330 -24.597   6.688  0.00  0.00    +0.005 A 
ATOM      5  C   LIG    1       24.099 -25.615   6.136  0.00  0.00    +0.000 A 
ATOM      6  C   LIG    1       25.125 -25.282   5.258  0.00  0.00    +0.002 A 
ATOM      7  C   LIG    1       22.608 -22.253   7.034  0.00  0.00    +0.041 C 
ATOM      8  C   LIG    1       23.003 -20.787   7.187  0.00  0.00    +0.041 C 
ATOM      9  C   LIG    1       23.201 -20.110   5.858  0.00  0.00    -0.026 A 
ATOM     10  C   LIG    1       22.363 -19.061   5.454  0.00  0.00    +0.005 A 
ATOM     11  C   LIG    1       22.518 -18.468   4.201  0.00  0.00    +0.000 A 
ATOM     12  C   LIG    1       23.504 -18.932   3.335  0.00  0.00    +0.002 A 
ATOM     13  C   LIG    1       24.358 -19.957   3.743  0.00  0.00    +0.024 A 
ATOM     14  C   LIG    1       25.412 -23.939   5.011  0.00  0.00    +0.024 A 
ATOM     15  C   LIG    1       24.243 -20.537   5.016  0.00  0.00    +0.037 A 
ENDROOT
BRANCH   1  16
ATOM     16  C   LIG    1       26.583 -21.268   5.238  0.00  0.00    +0.115 C 
BRANCH  16  18
ATOM     17  C   LIG    1       28.327 -19.505   5.722  0.00  0.00    +0.010 C 
ATOM     18  C   LIG    1       27.245 -20.396   6.352  0.00  0.00    +0.018 C 
BRANCH  18  19
ATOM     19  C   LIG    1       27.856 -21.263   7.483  0.00  0.00    +0.088 C 
BRANCH  19  20
ATOM     20  N   LIG    1       27.016 -21.464   8.692  0.00  0.00    -0.308 NA
ATOM     21  C   LIG    1       26.316 -22.751   8.584  0.00  0.00    +0.104 C 
ATOM     22  C   LIG    1       26.035 -20.390   8.863  0.00  0.00    +0.104 C 
ENDBRANCH  19  20
ENDBRANCH  18  19
ENDBRANCH  16  18
ENDBRANCH   1  16
TORSDOF 4
ENDMDL
MODEL 4
REMARK VINA RESULT:      -6.6      1.504      5.446
REMARK  Name = *****
REMARK                            x       y       z     vdW  Elec       q    Type
REMARK                         _______ _______ _______ _____ _____    ______ ____
ROOT
ATOM      1  N   LIG    1       25.662 -21.120   5.476  0.00  0.00    -0.299 N 
ATOM      2  C   LIG    1       26.750 -20.636   6.239  0.00  0.00    +0.037 A 
ATOM      3  C   LIG    1       26.673 -20.460   7.646  0.00  0.00    -0.026 A 
ATOM      4  C   LIG    1       27.751 -19.847   8.326  0.00  0.00    +0.005 A 
ATOM      5  C   LIG    1       28.908 -19.450   7.667  0.00  0.00    +0.000 A 
ATOM      6  C   LIG    1       29.039 -19.727   6.311  0.00  0.00    +0.002 A 
ATOM      7  C   LIG    1       25.529 -20.925   8.525  0.00  0.00    +0.041 C 
ATOM      8  C   LIG    1       24.170 -21.215   7.894  0.00  0.00    +0.041 C 
ATOM      9  C   LIG    1       24.218 -22.397   6.963  0.00  0.00    -0.026 A 
ATOM     10  C   LIG    1       23.492 -23.564   7.246  0.00  0.00    +0.005 A 
ATOM     11  C   LIG    1       23.576 -24.674   6.407  0.00  0.00    +0.000 A 
ATOM     12  C   LIG    1       24.400 -24.633   5.286  0.00  0.00    +0.002 A 
ATOM     13  C   LIG    1       25.102 -23.465   4.986  0.00  0.00    +0.024 A 
ATOM     14  C   LIG    1       27.981 -20.323   5.624  0.00  0.00    +0.024 A 
ATOM     15  C   LIG    1       24.997 -22.324   5.796  0.00  0.00    +0.037 A 
ENDROOT
BRANCH   1  16
ATOM     16  C   LIG    1       25.531 -20.660   4.062  0.00  0.00    +0.115 C 
BRANCH  16  18
ATOM     17  C   LIG    1       25.259 -18.229   3.430  0.00  0.00    +0.010 C 
ATOM     18  C   LIG    1       24.507 -19.498   3.863  0.00  0.00    +0.018 C 
BRANCH  18  19
ATOM     19  C   LIG    1       23.685 -19.221   5.148  0.00  0.00    +0.088 C 
BRANCH  19  20
ATOM     20  N   LIG    1       22.211 -19.372   5.037  0.00  0.00    -0.308 NA
ATOM     21  C   LIG    1       21.894 -20.766   4.698  0.00  0.00    +0.104 C 
ATOM     22  C   LIG    1       21.643 -18.483   4.020  0.00  0.00    +0.104 C 
ENDBRANCH  19  20
ENDBRANCH  18  19
ENDBRANCH  16  18
ENDBRANCH   1  16
TORSDOF 4
ENDMDL
MODEL 5
REMARK VINA RESULT:      -6.3      1.668      5.881
REMARK  Name = *****
REMARK                            x       y       z     vdW  Elec       q    Type
REMARK                         _______ _______ _______ _____ _____    ______ ____
ROOT
ATOM      1  N   LIG    1       25.559 -21.256   5.852  0.00  0.00    -0.299 N 
ATOM      2  C   LIG    1       26.796 -20.610   6.085  0.00  0.00    +0.037 A 
ATOM      3  C   LIG    1       27.534 -20.794   7.284  0.00  0.00    -0.026 A 
ATOM      4  C   LIG    1       28.694 -20.017   7.508  0.00  0.00    +0.005 A 
ATOM      5  C   LIG    1       29.163 -19.106   6.569  0.00  0.00    +0.000 A 
ATOM      6  C   LIG    1       28.513 -19.006   5.343  0.00  0.00    +0.002 A 
ATOM      7  C   LIG    1       27.216 -21.812   8.361  0.00  0.00    +0.041 C 
ATOM      8  C   LIG    1       25.811 -22.404   8.440  0.00  0.00    +0.041 C 
ATOM      9  C   LIG    1       25.486 -23.254   7.241  0.00  0.00    -0.026 A 
ATOM     10  C   LIG    1       25.258 -24.631   7.377  0.00  0.00    +0.005 A 
ATOM     11  C   LIG    1       25.005 -25.424   6.259  0.00  0.00    +0.000 A 
ATOM     12  C   LIG    1       24.993 -24.849   4.992  0.00  0.00    +0.002 A 
ATOM     13  C   LIG    1       25.192 -23.475   4.854  0.00  0.00    +0.024 A 
ATOM     14  C   LIG    1       27.362 -19.761   5.111  0.00  0.00    +0.024 A 
ATOM     15  C   LIG    1       25.407 -22.655   5.972  0.00  0.00    +0.037 A 
ENDROOT
BRANCH   1  16
ATOM     16  C   LIG    1       24.552 -20.564   4.994  0.00  0.00    +0.115 C 
BRANCH  16  18
ATOM     17  C   LIG    1       23.137 -20.731   7.081  0.00  0.00    +0.010 C 
ATOM     18  C   LIG    1       23.368 -19.929   5.790  0.00  0.00    +0.018 C 
BRANCH  18  19
ATOM     19  C   LIG    1       22.065 -19.876   4.951  0.00  0.00    +0.088 C 
BRANCH  19  20
ATOM     20  N   LIG    1       21.937 -18.747   3.995  0.00  0.00    -0.308 NA
ATOM     21  C   LIG    1       22.298 -17.496   4.675  0.00  0.00    +0.104 C 
ATOM     22  C   LIG    1       20.578 -18.633   3.458  0.00  0.00    +0.104 C 
ENDBRANCH  19  20
ENDBRANCH  18  19
ENDBRANCH  16  18
ENDBRANCH   1  16
TORSDOF 4
ENDMDL
