MODEL 1
REMARK VINA RESULT:      -8.2      0.000      0.000
REMARK  Name = *****
REMARK                            x       y       z     vdW  Elec       q    Type
REMARK                         _______ _______ _______ _____ _____    ______ ____
ROOT
ATOM      1  C   LIG    1       25.682 -19.895   4.100  0.00  0.00    +0.134 C 
ATOM      2  N   LIG    1       25.119 -20.315   5.380  0.00  0.00    -0.279 N 
ATOM      3  C   LIG    1       25.958 -21.227   6.200  0.00  0.00    +0.249 C 
ATOM      4  S   LIG    1       25.306 -21.787   7.800  0.00  0.00    -0.007 S 
ATOM      5  O   LIG    1       25.848 -23.098   8.108  0.00  0.00    -0.172 OA
ATOM      6  O   LIG    1       25.333 -20.715   8.778  0.00  0.00    -0.172 OA
ATOM      7  C   LIG    1       23.617 -22.021   7.342  0.00  0.00    +0.177 C 
ATOM      8  C   LIG    1       23.076 -20.745   6.749  0.00  0.00    +0.118 C 
ATOM      9  C   LIG    1       23.729 -20.364   5.436  0.00  0.00    +0.218 C 
ATOM     10  O   LIG    1       23.018 -20.022   4.491  0.00  0.00    -0.276 OA
ENDROOT
BRANCH   3  11
ATOM     11  C   LIG    1       27.364 -20.703   6.457  0.00  0.00    -0.006 A 
ATOM     12  C   LIG    1       27.858 -19.574   5.781  0.00  0.00    +0.008 A 
ATOM     13  C   LIG    1       29.150 -19.104   6.026  0.00  0.00    +0.020 A 
ATOM     14  C   LIG    1       29.960 -19.757   6.951  0.00  0.00    +0.041 A 
ATOM     15 CL   LIG    1       31.552 -19.180   7.252  0.00  0.00    -0.084 Cl
ATOM     16  C   LIG    1       29.487 -20.873   7.637  0.00  0.00    +0.020 A 
ATOM     17  C   LIG    1       28.195 -21.344   7.394  0.00  0.00    +0.008 A 
ENDBRANCH   3  11
TORSDOF 1
ENDMDL
MODEL 2
REMARK VINA RESULT:      -7.5      3.502      5.134
REMARK  Name = *****
REMARK                            x       y       z     vdW  Elec       q    Type
REMARK                         _______ _______ _______ _____ _____    ______ ____
ROOT
ATOM      1  C   LIG    1       24.649 -23.631   5.023  0.00  0.00    +0.134 C 
ATOM      2  N   LIG    1       25.223 -22.956   6.184  0.00  0.00    -0.279 N 
ATOM      3  C   LIG    1       25.687 -21.560   5.971  0.00  0.00    +0.249 C 
ATOM      4  S   LIG    1       26.416 -20.673   7.377  0.00  0.00    -0.007 S 
ATOM      5  O   LIG    1       27.379 -19.705   6.887  0.00  0.00    -0.172 OA
ATOM      6  O   LIG    1       25.398 -20.297   8.341  0.00  0.00    -0.172 OA
ATOM      7  C   LIG    1       27.334 -21.999   8.093  0.00  0.00    +0.177 C 
ATOM      8  C   LIG    1       26.410 -23.158   8.371  0.00  0.00    +0.118 C 
ATOM      9  C   LIG    1       25.835 -23.787   7.119  0.00  0.00    +0.218 C 
ATOM     10  O   LIG    1       25.843 -25.013   7.006  0.00  0.00    -0.276 OA
ENDROOT
BRANCH   3  11
ATOM     11  C   LIG    1       24.626 -20.645   5.375  0.00  0.00    -0.006 A 
ATOM     12  C   LIG    1       24.867 -19.919   4.196  0.00  0.00    +0.008 A 
ATOM     13  C   LIG    1       23.884 -19.083   3.660  0.00  0.00    +0.020 A 
ATOM     14  C   LIG    1       22.652 -18.966   4.296  0.00  0.00    +0.041 A 
ATOM     15 CL   LIG    1       21.443 -17.935   3.638  0.00  0.00    -0.084 Cl
ATOM     16  C   LIG    1       22.390 -19.683   5.462  0.00  0.00    +0.020 A 
ATOM     17  C   LIG    1       23.372 -20.520   5.999  0.00  0.00    +0.008 A 
ENDBRANCH   3  11
TORSDOF 1
ENDMDL
MODEL 3
REMARK VINA RESULT:      -7.4      4.073      6.342
REMARK  Name = *****
REMARK                            x       y       z     vdW  Elec       q    Type
REMARK                         _______ _______ _______ _____ _____    ______ ____
ROOT
ATOM      1  C   LIG    1       29.926 -22.392   8.544  0.00  0.00    +0.134 C 
ATOM      2  N   LIG    1       30.247 -20.969   8.468  0.00  0.00    -0.279 N 
ATOM      3  C   LIG    1       29.620 -20.212   7.354  0.00  0.00    +0.249 C 
ATOM      4  S   LIG    1       29.989 -18.440   7.206  0.00  0.00    -0.007 S 
ATOM      5  O   LIG    1       29.907 -18.047   5.811  0.00  0.00    -0.172 OA
ATOM      6  O   LIG    1       29.314 -17.678   8.240  0.00  0.00    -0.172 OA
ATOM      7  C   LIG    1       31.701 -18.479   7.632  0.00  0.00    +0.177 C 
ATOM      8  C   LIG    1       31.870 -19.141   8.976  0.00  0.00    +0.118 C 
ATOM      9  C   LIG    1       31.491 -20.608   8.979  0.00  0.00    +0.218 C 
ATOM     10  O   LIG    1       32.247 -21.420   9.513  0.00  0.00    -0.276 OA
ENDROOT
BRANCH   3  11
ATOM     11  C   LIG    1       28.106 -20.353   7.292  0.00  0.00    -0.006 A 
ATOM     12  C   LIG    1       27.331 -20.438   8.462  0.00  0.00    +0.008 A 
ATOM     13  C   LIG    1       25.942 -20.567   8.391  0.00  0.00    +0.020 A 
ATOM     14  C   LIG    1       25.314 -20.609   7.149  0.00  0.00    +0.041 A 
ATOM     15 CL   LIG    1       23.604 -20.771   7.060  0.00  0.00    -0.084 Cl
ATOM     16  C   LIG    1       26.062 -20.519   5.977  0.00  0.00    +0.020 A 
ATOM     17  C   LIG    1       27.452 -20.390   6.047  0.00  0.00    +0.008 A 
ENDBRANCH   3  11
TORSDOF 1
ENDMDL
MODEL 4
REMARK VINA RESULT:      -7.3      3.650      5.126
REMARK  Name = *****
REMARK                            x       y       z     vdW  Elec       q    Type
REMARK                         _______ _______ _______ _____ _____    ______ ____
ROOT
ATOM      1  C   LIG    1       24.337 -21.476   4.342  0.00  0.00    +0.134 C 
ATOM      2  N   LIG    1       25.467 -21.285   5.247  0.00  0.00    -0.279 N 
ATOM      3  C   LIG    1       25.371 -21.953   6.570  0.00  0.00    +0.249 C 
ATOM      4  S   LIG    1       26.744 -21.745   7.740  0.00  0.00    -0.007 S 
ATOM      5  O   LIG    1       26.237 -21.831   9.097  0.00  0.00    -0.172 OA
ATOM      6  O   LIG    1       27.905 -22.509   7.323  0.00  0.00    -0.172 OA
ATOM      7  C   LIG    1       27.112 -20.046   7.432  0.00  0.00    +0.177 C 
ATOM      8  C   LIG    1       27.380 -19.848   5.962  0.00  0.00    +0.118 C 
ATOM      9  C   LIG    1       26.166 -20.091   5.088  0.00  0.00    +0.218 C 
ATOM     10  O   LIG    1       25.890 -19.276   4.208  0.00  0.00    -0.276 OA
ENDROOT
BRANCH   3  11
ATOM     11  C   LIG    1       25.089 -23.447   6.485  0.00  0.00    -0.006 A 
ATOM     12  C   LIG    1       23.774 -23.944   6.512  0.00  0.00    +0.008 A 
ATOM     13  C   LIG    1       23.529 -25.317   6.433  0.00  0.00    +0.020 A 
ATOM     14  C   LIG    1       24.595 -26.205   6.323  0.00  0.00    +0.041 A 
ATOM     15 CL   LIG    1       24.294 -27.896   6.228  0.00  0.00    -0.084 Cl
ATOM     16  C   LIG    1       25.905 -25.732   6.287  0.00  0.00    +0.020 A 
ATOM     17  C   LIG    1       26.152 -24.359   6.366  0.00  0.00    +0.008 A 
ENDBRANCH   3  11
TORSDOF 1
ENDMDL
MODEL 5
REMARK VINA RESULT:      -7.2      1.990      2.929
REMARK  Name = *****
REMARK                            x       y       z     vdW  Elec       q    Type
REMARK                         _______ _______ _______ _____ _____    ______ ____
ROOT
ATOM      1  C   LIG    1       26.246 -24.491   6.877  0.00  0.00    +0.134 C 
ATOM      2  N   LIG    1       25.098 -23.613   6.667  0.00  0.00    -0.279 N 
ATOM      3  C   LIG    1       25.154 -22.287   7.334  0.00  0.00    +0.249 C 
ATOM      4  S   LIG    1       23.752 -21.155   7.113  0.00  0.00    -0.007 S 
ATOM      5  O   LIG    1       23.632 -20.303   8.283  0.00  0.00    -0.172 OA
ATOM      6  O   LIG    1       23.738 -20.595   5.774  0.00  0.00    -0.172 OA
ATOM      7  C   LIG    1       22.436 -22.328   7.191  0.00  0.00    +0.177 C 
ATOM      8  C   LIG    1       22.662 -23.406   6.162  0.00  0.00    +0.118 C 
ATOM      9  C   LIG    1       23.886 -24.257   6.435  0.00  0.00    +0.218 C 
ATOM     10  O   LIG    1       23.793 -25.482   6.356  0.00  0.00    -0.276 OA
ENDROOT
BRANCH   3  11
ATOM     11  C   LIG    1       26.414 -21.493   7.018  0.00  0.00    -0.006 A 
ATOM     12  C   LIG    1       26.492 -20.667   5.883  0.00  0.00    +0.008 A 
ATOM     13  C   LIG    1       27.654 -19.943   5.605  0.00  0.00    +0.020 A 
ATOM     14  C   LIG    1       28.749 -20.037   6.460  0.00  0.00    +0.041 A 
ATOM     15 CL   LIG    1       30.181 -19.149   6.117  0.00  0.00    -0.084 Cl
ATOM     16  C   LIG    1       28.690 -20.845   7.594  0.00  0.00    +0.020 A 
ATOM     17  C   LIG    1       27.528 -21.568   7.873  0.00  0.00    +0.008 A 
ENDBRANCH   3  11
TORSDOF 1
ENDMDL
MODEL 6
REMARK VINA RESULT:      -6.7      7.986      9.614
REMARK  Name = *****
REMARK                            x       y       z     vdW  Elec       q    Type
REMARK                         _______ _______ _______ _____ _____    ______ ____
ROOT
ATOM      1  C   LIG    1       26.474 -28.661   9.792  0.00  0.00    +0.134 C 
ATOM      2  N   LIG    1       26.334 -29.726   8.802  0.00  0.00    -0.279 N 
ATOM      3  C   LIG    1       25.200 -29.595   7.851  0.00  0.00    +0.249 C 
ATOM      4  S   LIG    1       24.973 -30.893   6.602  0.00  0.00    -0.007 S 
ATOM      5  O   LIG    1       23.564 -30.996   6.267  0.00  0.00    -0.172 OA
ATOM      6  O   LIG    1       25.985 -30.804   5.567  0.00  0.00    -0.172 OA
ATOM      7  C   LIG    1       25.373 -32.299   7.591  0.00  0.00    +0.177 C 
ATOM      8  C   LIG    1       26.740 -32.114   8.198  0.00  0.00    +0.118 C 
ATOM      9  C   LIG    1       26.810 -30.974   9.194  0.00  0.00    +0.218 C 
ATOM     10  O   LIG    1       27.364 -31.159  10.278  0.00  0.00    -0.276 OA
ENDROOT
BRANCH   3  11
ATOM     11  C   LIG    1       25.168 -28.264   7.113  0.00  0.00    -0.006 A 
ATOM     12  C   LIG    1       26.141 -27.276   7.346  0.00  0.00    +0.008 A 
ATOM     13  C   LIG    1       26.100 -26.059   6.662  0.00  0.00    +0.020 A 
ATOM     14  C   LIG    1       25.087 -25.818   5.738  0.00  0.00    +0.041 A 
ATOM     15 CL   LIG    1       25.034 -24.319   4.897  0.00  0.00    -0.084 Cl
ATOM     16  C   LIG    1       24.117 -26.787   5.487  0.00  0.00    +0.020 A 
ATOM     17  C   LIG    1       24.157 -28.005   6.170  0.00  0.00    +0.008 A 
ENDBRANCH   3  11
TORSDOF 1
ENDMDL
MODEL 7
REMARK VINA RESULT:      -6.7      4.062      5.372
REMARK  Name = *****
REMARK                            x       y       z     vdW  Elec       q    Type
REMARK                         _______ _______ _______ _____ _____    ______ ____
ROOT
ATOM      1  C   LIG    1       27.457 -22.388   7.305  0.00  0.00    +0.134 C 
ATOM      2  N   LIG    1       26.039 -22.043   7.371  0.00  0.00    -0.279 N 
ATOM      3  C   LIG    1       25.193 -22.523   6.249  0.00  0.00    +0.249 C 
ATOM      4  S   LIG    1       23.423 -22.119   6.274  0.00  0.00    -0.007 S 
ATOM      5  O   LIG    1       22.931 -22.027   4.912  0.00  0.00    -0.172 OA
ATOM      6  O   LIG    1       22.722 -22.906   7.273  0.00  0.00    -0.172 OA
ATOM      7  C   LIG    1       23.525 -20.472   6.899  0.00  0.00    +0.177 C 
ATOM      8  C   LIG    1       24.284 -20.474   8.201  0.00  0.00    +0.118 C 
ATOM      9  C   LIG    1       25.740 -20.867   8.053  0.00  0.00    +0.218 C 
ATOM     10  O   LIG    1       26.603 -20.190   8.613  0.00  0.00    -0.276 OA
ENDROOT
BRANCH   3  11
ATOM     11  C   LIG    1       25.299 -24.020   5.995  0.00  0.00    -0.006 A 
ATOM     12  C   LIG    1       25.005 -24.570   4.735  0.00  0.00    +0.008 A 
ATOM     13  C   LIG    1       25.106 -25.946   4.516  0.00  0.00    +0.020 A 
ATOM     14  C   LIG    1       25.505 -26.785   5.553  0.00  0.00    +0.041 A 
ATOM     15 CL   LIG    1       25.627 -28.479   5.285  0.00  0.00    -0.084 Cl
ATOM     16  C   LIG    1       25.808 -26.259   6.808  0.00  0.00    +0.020 A 
ATOM     17  C   LIG    1       25.707 -24.883   7.028  0.00  0.00    +0.008 A 
ENDBRANCH   3  11
TORSDOF 1
ENDMDL
MODEL 8
REMARK VINA RESULT:      -6.4      3.218      5.216
REMARK  Name = *****
REMARK                            x       y       z     vdW  Elec       q    Type
REMARK                         _______ _______ _______ _____ _____    ______ ____
ROOT
ATOM      1  C   LIG    1       27.465 -18.939   5.012  0.00  0.00    +0.134 C 
ATOM      2  N   LIG    1       27.674 -20.037   5.952  0.00  0.00    -0.279 N 
ATOM      3  C   LIG    1       26.566 -20.308   6.904  0.00  0.00    +0.249 C 
ATOM      4  S   LIG    1       26.772 -21.658   8.100  0.00  0.00    -0.007 S 
ATOM      5  O   LIG    1       26.013 -21.358   9.300  0.00  0.00    -0.172 OA
ATOM      6  O   LIG    1       26.667 -22.952   7.450  0.00  0.00    -0.172 OA
ATOM      7  C   LIG    1       28.476 -21.419   8.493  0.00  0.00    +0.177 C 
ATOM      8  C   LIG    1       29.293 -21.446   7.227  0.00  0.00    +0.118 C 
ATOM      9  C   LIG    1       29.000 -20.290   6.293  0.00  0.00    +0.218 C 
ATOM     10  O   LIG    1       29.939 -19.669   5.795  0.00  0.00    -0.276 OA
ENDROOT
BRANCH   3  11
ATOM     11  C   LIG    1       25.216 -20.518   6.232  0.00  0.00    -0.006 A 
ATOM     12  C   LIG    1       25.112 -20.682   4.839  0.00  0.00    +0.008 A 
ATOM     13  C   LIG    1       23.867 -20.875   4.235  0.00  0.00    +0.020 A 
ATOM     14  C   LIG    1       22.715 -20.906   5.017  0.00  0.00    +0.041 A 
ATOM     15 CL   LIG    1       21.182 -21.140   4.274  0.00  0.00    -0.084 Cl
ATOM     16  C   LIG    1       22.798 -20.752   6.400  0.00  0.00    +0.020 A 
ATOM     17  C   LIG    1       24.042 -20.560   7.005  0.00  0.00    +0.008 A 
ENDBRANCH   3  11
TORSDOF 1
ENDMDL
MODEL 9
REMARK VINA RESULT:      -6.3      8.590     10.003
REMARK  Name = *****
REMARK                            x       y       z     vdW  Elec       q    Type
REMARK                         _______ _______ _______ _____ _____    ______ ____
ROOT
ATOM      1  C   LIG    1       25.925 -31.474   5.527  0.00  0.00    +0.134 C 
ATOM      2  N   LIG    1       25.129 -31.523   6.750  0.00  0.00    -0.279 N 
ATOM      3  C   LIG    1       25.370 -30.440   7.737  0.00  0.00    +0.249 C 
ATOM      4  S   LIG    1       24.412 -30.454   9.279  0.00  0.00    -0.007 S 
ATOM      5  O   LIG    1       25.192 -29.834  10.335  0.00  0.00    -0.172 OA
ATOM      6  O   LIG    1       23.033 -30.070   9.041  0.00  0.00    -0.172 OA
ATOM      7  C   LIG    1       24.415 -32.192   9.588  0.00  0.00    +0.177 C 
ATOM      8  C   LIG    1       23.861 -32.917   8.388  0.00  0.00    +0.118 C 
ATOM      9  C   LIG    1       24.730 -32.795   7.153  0.00  0.00    +0.218 C 
ATOM     10  O   LIG    1       24.982 -33.805   6.496  0.00  0.00    -0.276 OA
ENDROOT
BRANCH   3  11
ATOM     11  C   LIG    1       25.244 -29.039   7.154  0.00  0.00    -0.006 A 
ATOM     12  C   LIG    1       24.316 -28.752   6.137  0.00  0.00    +0.008 A 
ATOM     13  C   LIG    1       24.210 -27.462   5.611  0.00  0.00    +0.020 A 
ATOM     14  C   LIG    1       25.030 -26.447   6.098  0.00  0.00    +0.041 A 
ATOM     15 CL   LIG    1       24.902 -24.859   5.448  0.00  0.00    -0.084 Cl
ATOM     16  C   LIG    1       25.951 -26.709   7.109  0.00  0.00    +0.020 A 
ATOM     17  C   LIG    1       26.057 -27.998   7.637  0.00  0.00    +0.008 A 
ENDBRANCH   3  11
TORSDOF 1
ENDMDL
