MODEL 1
REMARK VINA RESULT:       4.8      0.000      0.000
REMARK  Name = *****
REMARK                            x       y       z     vdW  Elec       q    Type
REMARK                         _______ _______ _______ _____ _____    ______ ____
ROOT
ATOM      1  C   LIG    1       25.917 -13.696   4.411  0.00  0.00    -0.043 A 
ATOM      2  C   LIG    1       27.082 -14.469   4.361  0.00  0.00    +0.021 A 
ATOM      3  C   LIG    1       27.039 -15.828   4.011  0.00  0.00    +0.057 A 
ATOM      4  I   LIG    1       28.775 -16.943   4.436  0.00  0.00    -0.040 I 
ATOM      5  C   LIG    1       25.846 -16.412   3.549  0.00  0.00    +0.154 A 
ATOM      6  C   LIG    1       24.670 -15.650   3.642  0.00  0.00    +0.057 A 
ATOM      7  I   LIG    1       22.778 -16.483   3.266  0.00  0.00    -0.040 I 
ATOM      8  C   LIG    1       24.703 -14.307   4.070  0.00  0.00    +0.021 A 
ENDROOT
BRANCH   1   9
ATOM      9  C   LIG    1       25.981 -12.267   4.922  0.00  0.00    +0.065 C 
BRANCH   9  10
ATOM     10  CA  LIG    1       24.703 -11.452   4.631  0.00  0.00    +0.165 C 
BRANCH  10  11
ATOM     11  N   LIG    1       23.524 -11.941   5.417  0.00  0.00    -0.318 NA
ATOM     12  H1  LIG    1       23.613 -11.607   6.383  0.00  0.00    +0.119 HD
ATOM     13  H2  LIG    1       22.704 -11.438   5.062  0.00  0.00    +0.119 HD
ENDBRANCH  10  11
BRANCH  10  14
ATOM     14  C   LIG    1       24.348 -11.526   3.130  0.00  0.00    +0.322 C 
ATOM     15  O   LIG    1       23.210 -11.539   2.680  0.00  0.00    -0.249 OA
BRANCH  14  16
ATOM     16  OXT LIG    1       25.458 -11.586   2.359  0.00  0.00    -0.479 OA
ATOM     17  HXT LIG    1       25.820 -10.666   2.324  0.00  0.00    +0.295 HD
ENDBRANCH  14  16
ENDBRANCH  10  14
ENDBRANCH   9  10
ENDBRANCH   1   9
BRANCH   5  18
ATOM     18  O   LIG    1       25.787 -17.712   3.071  0.00  0.00    -0.454 OA
BRANCH  18  19
ATOM     19  C   LIG    1       25.490 -18.727   3.974  0.00  0.00    +0.131 A 
ATOM     20  C   LIG    1       24.144 -19.123   4.075  0.00  0.00    +0.064 A 
ATOM     21  C   LIG    1       23.765 -20.105   4.991  0.00  0.00    +0.059 A 
ATOM     22  I   LIG    1       21.756 -20.715   5.023  0.00  0.00    -0.040 I 
ATOM     23  C   LIG    1       24.711 -20.668   5.862  0.00  0.00    +0.143 A 
ATOM     24  C   LIG    1       26.041 -20.279   5.752  0.00  0.00    +0.059 A 
ATOM     25  I   LIG    1       27.501 -21.015   7.062  0.00  0.00    -0.040 I 
ATOM     26  C   LIG    1       26.445 -19.350   4.785  0.00  0.00    +0.064 A 
BRANCH  23  27
ATOM     27  O   LIG    1       24.300 -21.572   6.813  0.00  0.00    -0.505 OA
ATOM     28  H   LIG    1       25.046 -21.711   7.431  0.00  0.00    +0.292 HD
ENDBRANCH  23  27
ENDBRANCH  18  19
ENDBRANCH   5  18
TORSDOF 8
ENDMDL
MODEL 2
REMARK VINA RESULT:       5.2      2.079      2.294
REMARK  Name = *****
REMARK                            x       y       z     vdW  Elec       q    Type
REMARK                         _______ _______ _______ _____ _____    ______ ____
ROOT
ATOM      1  C   LIG    1       26.069 -14.038   4.228  0.00  0.00    -0.043 A 
ATOM      2  C   LIG    1       27.159 -14.915   4.184  0.00  0.00    +0.021 A 
ATOM      3  C   LIG    1       26.988 -16.268   3.852  0.00  0.00    +0.057 A 
ATOM      4  I   LIG    1       28.618 -17.532   4.284  0.00  0.00    -0.040 I 
ATOM      5  C   LIG    1       25.744 -16.746   3.403  0.00  0.00    +0.154 A 
ATOM      6  C   LIG    1       24.644 -15.879   3.492  0.00  0.00    +0.057 A 
ATOM      7  I   LIG    1       22.681 -16.540   3.136  0.00  0.00    -0.040 I 
ATOM      8  C   LIG    1       24.802 -14.539   3.901  0.00  0.00    +0.021 A 
ENDROOT
BRANCH   1   9
ATOM      9  C   LIG    1       26.267 -12.614   4.719  0.00  0.00    +0.065 C 
BRANCH   9  10
ATOM     10  CA  LIG    1       27.357 -11.842   3.945  0.00  0.00    +0.165 C 
BRANCH  10  11
ATOM     11  N   LIG    1       27.196 -11.965   2.460  0.00  0.00    -0.318 NA
ATOM     12  H1  LIG    1       27.048 -11.027   2.068  0.00  0.00    +0.119 HD
ATOM     13  H2  LIG    1       28.109 -12.242   2.086  0.00  0.00    +0.119 HD
ENDBRANCH  10  11
BRANCH  10  14
ATOM     14  C   LIG    1       28.759 -12.367   4.324  0.00  0.00    +0.322 C 
ATOM     15  O   LIG    1       29.364 -13.243   3.722  0.00  0.00    -0.249 OA
BRANCH  14  16
ATOM     16  OXT LIG    1       29.243 -11.745   5.424  0.00  0.00    -0.479 OA
ATOM     17  HXT LIG    1       29.258 -10.779   5.209  0.00  0.00    +0.295 HD
ENDBRANCH  14  16
ENDBRANCH  10  14
ENDBRANCH   9  10
ENDBRANCH   1   9
BRANCH   5  18
ATOM     18  O   LIG    1       25.564 -18.041   2.943  0.00  0.00    -0.454 OA
BRANCH  18  19
ATOM     19  C   LIG    1       25.034 -18.979   3.823  0.00  0.00    +0.131 A 
ATOM     20  C   LIG    1       23.636 -19.142   3.821  0.00  0.00    +0.064 A 
ATOM     21  C   LIG    1       23.030 -20.034   4.707  0.00  0.00    +0.059 A 
ATOM     22  I   LIG    1       20.949 -20.298   4.586  0.00  0.00    -0.040 I 
ATOM     23  C   LIG    1       23.799 -20.734   5.650  0.00  0.00    +0.143 A 
ATOM     24  C   LIG    1       25.180 -20.575   5.641  0.00  0.00    +0.059 A 
ATOM     25  I   LIG    1       26.392 -21.525   7.061  0.00  0.00    -0.040 I 
ATOM     26  C   LIG    1       25.805 -19.741   4.707  0.00  0.00    +0.064 A 
BRANCH  23  27
ATOM     27  O   LIG    1       23.171 -21.542   6.567  0.00  0.00    -0.505 OA
ATOM     28  H   LIG    1       23.657 -21.464   7.413  0.00  0.00    +0.292 HD
ENDBRANCH  23  27
ENDBRANCH  18  19
ENDBRANCH   5  18
TORSDOF 8
ENDMDL
MODEL 3
REMARK VINA RESULT:       6.7      2.871      7.423
REMARK  Name = *****
REMARK                            x       y       z     vdW  Elec       q    Type
REMARK                         _______ _______ _______ _____ _____    ______ ____
ROOT
ATOM      1  C   LIG    1       25.716 -20.256   4.926  0.00  0.00    -0.043 A 
ATOM      2  C   LIG    1       25.001 -19.419   4.061  0.00  0.00    +0.021 A 
ATOM      3  C   LIG    1       25.544 -18.205   3.611  0.00  0.00    +0.057 A 
ATOM      4  I   LIG    1       24.184 -16.866   2.718  0.00  0.00    -0.040 I 
ATOM      5  C   LIG    1       26.880 -17.869   3.891  0.00  0.00    +0.154 A 
ATOM      6  C   LIG    1       27.581 -18.684   4.795  0.00  0.00    +0.057 A 
ATOM      7  I   LIG    1       29.475 -18.149   5.530  0.00  0.00    -0.040 I 
ATOM      8  C   LIG    1       27.006 -19.864   5.308  0.00  0.00    +0.021 A 
ENDROOT
BRANCH   1   9
ATOM      9  C   LIG    1       25.050 -21.495   5.498  0.00  0.00    +0.065 C 
BRANCH   9  10
ATOM     10  CA  LIG    1       23.536 -21.571   5.203  0.00  0.00    +0.165 C 
BRANCH  10  11
ATOM     11  N   LIG    1       23.238 -21.509   3.735  0.00  0.00    -0.318 NA
ATOM     12  H1  LIG    1       23.798 -20.757   3.319  0.00  0.00    +0.119 HD
ATOM     13  H2  LIG    1       23.628 -22.361   3.319  0.00  0.00    +0.119 HD
ENDBRANCH  10  11
BRANCH  10  14
ATOM     14  C   LIG    1       22.794 -20.408   5.897  0.00  0.00    +0.322 C 
ATOM     15  O   LIG    1       22.958 -20.070   7.062  0.00  0.00    -0.249 OA
BRANCH  14  16
ATOM     16  OXT LIG    1       21.921 -19.804   5.059  0.00  0.00    -0.479 OA
ATOM     17  HXT LIG    1       21.305 -20.512   4.745  0.00  0.00    +0.295 HD
ENDBRANCH  14  16
ENDBRANCH  10  14
ENDBRANCH   9  10
ENDBRANCH   1   9
BRANCH   5  18
ATOM     18  O   LIG    1       27.494 -16.745   3.361  0.00  0.00    -0.454 OA
BRANCH  18  19
ATOM     19  C   LIG    1       27.058 -15.497   3.792  0.00  0.00    +0.131 A 
ATOM     20  C   LIG    1       28.036 -14.602   4.263  0.00  0.00    +0.064 A 
ATOM     21  C   LIG    1       27.667 -13.348   4.751  0.00  0.00    +0.059 A 
ATOM     22  I   LIG    1       29.186 -12.026   5.350  0.00  0.00    -0.040 I 
ATOM     23  C   LIG    1       26.313 -12.987   4.835  0.00  0.00    +0.143 A 
ATOM     24  C   LIG    1       25.352 -13.872   4.361  0.00  0.00    +0.059 A 
ATOM     25  I   LIG    1       23.307 -13.442   4.516  0.00  0.00    -0.040 I 
ATOM     26  C   LIG    1       25.716 -15.101   3.798  0.00  0.00    +0.064 A 
BRANCH  23  27
ATOM     27  O   LIG    1       25.969 -11.781   5.398  0.00  0.00    -0.505 OA
ATOM     28  H   LIG    1       25.099 -11.521   5.032  0.00  0.00    +0.292 HD
ENDBRANCH  23  27
ENDBRANCH  18  19
ENDBRANCH   5  18
TORSDOF 8
ENDMDL
MODEL 4
REMARK VINA RESULT:       7.0      2.858      7.106
REMARK  Name = *****
REMARK                            x       y       z     vdW  Elec       q    Type
REMARK                         _______ _______ _______ _____ _____    ______ ____
ROOT
ATOM      1  C   LIG    1       25.574 -20.354   4.865  0.00  0.00    -0.043 A 
ATOM      2  C   LIG    1       24.932 -19.422   4.041  0.00  0.00    +0.021 A 
ATOM      3  C   LIG    1       25.566 -18.228   3.665  0.00  0.00    +0.057 A 
ATOM      4  I   LIG    1       24.318 -16.748   2.834  0.00  0.00    -0.040 I 
ATOM      5  C   LIG    1       26.919 -18.005   3.976  0.00  0.00    +0.154 A 
ATOM      6  C   LIG    1       27.547 -18.916   4.840  0.00  0.00    +0.057 A 
ATOM      7  I   LIG    1       29.465 -18.560   5.622  0.00  0.00    -0.040 I 
ATOM      8  C   LIG    1       26.883 -20.078   5.281  0.00  0.00    +0.021 A 
ENDROOT
BRANCH   1   9
ATOM      9  C   LIG    1       24.813 -21.572   5.361  0.00  0.00    +0.065 C 
BRANCH   9  10
ATOM     10  CA  LIG    1       23.288 -21.478   5.137  0.00  0.00    +0.165 C 
BRANCH  10  11
ATOM     11  N   LIG    1       22.925 -21.471   3.683  0.00  0.00    -0.318 NA
ATOM     12  H1  LIG    1       23.674 -21.937   3.157  0.00  0.00    +0.119 HD
ATOM     13  H2  LIG    1       22.125 -22.104   3.576  0.00  0.00    +0.119 HD
ENDBRANCH  10  11
BRANCH  10  14
ATOM     14  C   LIG    1       22.729 -20.191   5.781  0.00  0.00    +0.322 C 
ATOM     15  O   LIG    1       22.009 -19.380   5.214  0.00  0.00    -0.249 OA
BRANCH  14  16
ATOM     16  OXT LIG    1       23.143 -20.054   7.062  0.00  0.00    -0.479 OA
ATOM     17  HXT LIG    1       23.784 -20.790   7.225  0.00  0.00    +0.295 HD
ENDBRANCH  14  16
ENDBRANCH  10  14
ENDBRANCH   9  10
ENDBRANCH   1   9
BRANCH   5  18
ATOM     18  O   LIG    1       27.619 -16.901   3.514  0.00  0.00    -0.454 OA
BRANCH  18  19
ATOM     19  C   LIG    1       27.245 -15.646   3.985  0.00  0.00    +0.131 A 
ATOM     20  C   LIG    1       25.869 -15.409   4.158  0.00  0.00    +0.064 A 
ATOM     21  C   LIG    1       25.417 -14.160   4.586  0.00  0.00    +0.059 A 
ATOM     22  I   LIG    1       23.358 -13.905   4.915  0.00  0.00    -0.040 I 
ATOM     23  C   LIG    1       26.323 -13.108   4.790  0.00  0.00    +0.143 A 
ATOM     24  C   LIG    1       27.682 -13.350   4.625  0.00  0.00    +0.059 A 
ATOM     25  I   LIG    1       29.093 -11.816   4.839  0.00  0.00    -0.040 I 
ATOM     26  C   LIG    1       28.152 -14.620   4.271  0.00  0.00    +0.064 A 
BRANCH  23  27
ATOM     27  O   LIG    1       25.848 -11.864   5.129  0.00  0.00    -0.505 OA
ATOM     28  H   LIG    1       25.840 -11.318   4.317  0.00  0.00    +0.292 HD
ENDBRANCH  23  27
ENDBRANCH  18  19
ENDBRANCH   5  18
TORSDOF 8
ENDMDL
MODEL 5
REMARK VINA RESULT:       7.3      3.033      7.111
REMARK  Name = *****
REMARK                            x       y       z     vdW  Elec       q    Type
REMARK                         _______ _______ _______ _____ _____    ______ ____
ROOT
ATOM      1  C   LIG    1       24.160 -19.917   4.268  0.00  0.00    -0.043 A 
ATOM      2  C   LIG    1       25.158 -18.949   4.103  0.00  0.00    +0.021 A 
ATOM      3  C   LIG    1       24.842 -17.641   3.701  0.00  0.00    +0.057 A 
ATOM      4  I   LIG    1       26.464 -16.464   3.051  0.00  0.00    -0.040 I 
ATOM      5  C   LIG    1       23.503 -17.224   3.604  0.00  0.00    +0.154 A 
ATOM      6  C   LIG    1       22.505 -18.205   3.724  0.00  0.00    +0.057 A 
ATOM      7  I   LIG    1       20.487 -17.788   3.315  0.00  0.00    -0.040 I 
ATOM      8  C   LIG    1       22.829 -19.537   4.051  0.00  0.00    +0.021 A 
ENDROOT
BRANCH   1   9
ATOM      9  C   LIG    1       24.547 -21.353   4.573  0.00  0.00    +0.065 C 
BRANCH   9  10
ATOM     10  CA  LIG    1       25.167 -21.539   5.975  0.00  0.00    +0.165 C 
BRANCH  10  11
ATOM     11  N   LIG    1       24.292 -20.990   7.062  0.00  0.00    -0.318 NA
ATOM     12  H1  LIG    1       24.844 -20.925   7.924  0.00  0.00    +0.119 HD
ATOM     13  H2  LIG    1       24.102 -20.012   6.821  0.00  0.00    +0.119 HD
ENDBRANCH  10  11
BRANCH  10  14
ATOM     14  C   LIG    1       26.537 -20.832   6.054  0.00  0.00    +0.322 C 
ATOM     15  O   LIG    1       27.001 -20.315   7.062  0.00  0.00    -0.249 OA
BRANCH  14  16
ATOM     16  OXT LIG    1       27.172 -20.841   4.859  0.00  0.00    -0.479 OA
ATOM     17  HXT LIG    1       28.070 -20.459   5.021  0.00  0.00    +0.295 HD
ENDBRANCH  14  16
ENDBRANCH  10  14
ENDBRANCH   9  10
ENDBRANCH   1   9
BRANCH   5  18
ATOM     18  O   LIG    1       23.148 -15.911   3.337  0.00  0.00    -0.454 OA
BRANCH  18  19
ATOM     19  C   LIG    1       23.887 -14.899   3.940  0.00  0.00    +0.131 A 
ATOM     20  C   LIG    1       23.170 -13.908   4.636  0.00  0.00    +0.064 A 
ATOM     21  C   LIG    1       23.842 -12.838   5.230  0.00  0.00    +0.059 A 
ATOM     22  I   LIG    1       22.720 -11.447   6.333  0.00  0.00    -0.040 I 
ATOM     23  C   LIG    1       25.232 -12.705   5.090  0.00  0.00    +0.143 A 
ATOM     24  C   LIG    1       25.936 -13.692   4.408  0.00  0.00    +0.059 A 
ATOM     25  I   LIG    1       28.000 -13.531   4.091  0.00  0.00    -0.040 I 
ATOM     26  C   LIG    1       25.282 -14.808   3.874  0.00  0.00    +0.064 A 
BRANCH  23  27
ATOM     27  O   LIG    1       25.861 -11.600   5.611  0.00  0.00    -0.505 OA
ATOM     28  H   LIG    1       26.540 -11.314   4.967  0.00  0.00    +0.292 HD
ENDBRANCH  23  27
ENDBRANCH  18  19
ENDBRANCH   5  18
TORSDOF 8
ENDMDL
MODEL 6
REMARK VINA RESULT:       7.4      1.240      2.465
REMARK  Name = *****
REMARK                            x       y       z     vdW  Elec       q    Type
REMARK                         _______ _______ _______ _____ _____    ______ ____
ROOT
ATOM      1  C   LIG    1       26.867 -14.198   4.004  0.00  0.00    -0.043 A 
ATOM      2  C   LIG    1       27.794 -15.242   4.096  0.00  0.00    +0.021 A 
ATOM      3  C   LIG    1       27.424 -16.569   3.826  0.00  0.00    +0.057 A 
ATOM      4  I   LIG    1       28.783 -18.049   4.458  0.00  0.00    -0.040 I 
ATOM      5  C   LIG    1       26.152 -16.867   3.304  0.00  0.00    +0.154 A 
ATOM      6  C   LIG    1       25.209 -15.827   3.256  0.00  0.00    +0.057 A 
ATOM      7  I   LIG    1       23.194 -16.183   2.778  0.00  0.00    -0.040 I 
ATOM      8  C   LIG    1       25.560 -14.507   3.602  0.00  0.00    +0.021 A 
ENDROOT
BRANCH   1   9
ATOM      9  C   LIG    1       27.266 -12.796   4.430  0.00  0.00    +0.065 C 
BRANCH   9  10
ATOM     10  CA  LIG    1       26.272 -12.147   5.418  0.00  0.00    +0.165 C 
BRANCH  10  11
ATOM     11  N   LIG    1       26.089 -12.964   6.661  0.00  0.00    -0.318 NA
ATOM     12  H1  LIG    1       26.856 -13.642   6.723  0.00  0.00    +0.119 HD
ATOM     13  H2  LIG    1       26.257 -12.336   7.454  0.00  0.00    +0.119 HD
ENDBRANCH  10  11
BRANCH  10  14
ATOM     14  C   LIG    1       24.891 -11.966   4.750  0.00  0.00    +0.322 C 
ATOM     15  O   LIG    1       24.716 -11.651   3.580  0.00  0.00    -0.249 OA
BRANCH  14  16
ATOM     16  OXT LIG    1       23.883 -12.188   5.624  0.00  0.00    -0.479 OA
ATOM     17  HXT LIG    1       24.198 -12.900   6.234  0.00  0.00    +0.295 HD
ENDBRANCH  14  16
ENDBRANCH  10  14
ENDBRANCH   9  10
ENDBRANCH   1   9
BRANCH   5  18
ATOM     18  O   LIG    1       25.790 -18.143   2.903  0.00  0.00    -0.454 OA
BRANCH  18  19
ATOM     19  C   LIG    1       25.057 -18.924   3.790  0.00  0.00    +0.131 A 
ATOM     20  C   LIG    1       25.780 -19.680   4.730  0.00  0.00    +0.064 A 
ATOM     21  C   LIG    1       25.113 -20.519   5.624  0.00  0.00    +0.059 A 
ATOM     22  I   LIG    1       26.248 -21.547   7.061  0.00  0.00    -0.040 I 
ATOM     23  C   LIG    1       23.718 -20.665   5.556  0.00  0.00    +0.143 A 
ATOM     24  C   LIG    1       23.008 -19.909   4.632  0.00  0.00    +0.059 A 
ATOM     25  I   LIG    1       20.935 -20.121   4.417  0.00  0.00    -0.040 I 
ATOM     26  C   LIG    1       23.660 -19.007   3.782  0.00  0.00    +0.064 A 
BRANCH  23  27
ATOM     27  O   LIG    1       23.092 -21.560   6.390  0.00  0.00    -0.505 OA
ATOM     28  H   LIG    1       23.491 -21.468   7.278  0.00  0.00    +0.292 HD
ENDBRANCH  23  27
ENDBRANCH  18  19
ENDBRANCH   5  18
TORSDOF 8
ENDMDL
MODEL 7
REMARK VINA RESULT:       7.6      3.108      7.281
REMARK  Name = *****
REMARK                            x       y       z     vdW  Elec       q    Type
REMARK                         _______ _______ _______ _____ _____    ______ ____
ROOT
ATOM      1  C   LIG    1       25.530 -19.569   4.359  0.00  0.00    -0.043 A 
ATOM      2  C   LIG    1       26.254 -18.429   3.995  0.00  0.00    +0.021 A 
ATOM      3  C   LIG    1       25.603 -17.254   3.588  0.00  0.00    +0.057 A 
ATOM      4  I   LIG    1       26.814 -15.815   2.638  0.00  0.00    -0.040 I 
ATOM      5  C   LIG    1       24.205 -17.138   3.684  0.00  0.00    +0.154 A 
ATOM      6  C   LIG    1       23.477 -18.295   4.005  0.00  0.00    +0.057 A 
ATOM      7  I   LIG    1       21.379 -18.348   3.900  0.00  0.00    -0.040 I 
ATOM      8  C   LIG    1       24.130 -19.499   4.338  0.00  0.00    +0.021 A 
ENDROOT
BRANCH   1   9
ATOM      9  C   LIG    1       26.264 -20.863   4.666  0.00  0.00    +0.065 C 
BRANCH   9  10
ATOM     10  CA  LIG    1       26.804 -20.936   6.111  0.00  0.00    +0.165 C 
BRANCH  10  11
ATOM     11  N   LIG    1       26.001 -20.101   7.062  0.00  0.00    -0.318 NA
ATOM     12  H1  LIG    1       26.508 -20.040   7.952  0.00  0.00    +0.119 HD
ATOM     13  H2  LIG    1       26.026 -19.140   6.704  0.00  0.00    +0.119 HD
ENDBRANCH  10  11
BRANCH  10  14
ATOM     14  C   LIG    1       28.270 -20.454   6.162  0.00  0.00    +0.322 C 
ATOM     15  O   LIG    1       28.646 -19.326   5.871  0.00  0.00    -0.249 OA
BRANCH  14  16
ATOM     16  OXT LIG    1       29.105 -21.441   6.559  0.00  0.00    -0.479 OA
ATOM     17  HXT LIG    1       29.732 -21.591   5.808  0.00  0.00    +0.295 HD
ENDBRANCH  14  16
ENDBRANCH  10  14
ENDBRANCH   9  10
ENDBRANCH   1   9
BRANCH   5  18
ATOM     18  O   LIG    1       23.534 -15.955   3.416  0.00  0.00    -0.454 OA
BRANCH  18  19
ATOM     19  C   LIG    1       24.002 -14.789   4.011  0.00  0.00    +0.131 A 
ATOM     20  C   LIG    1       25.395 -14.596   4.039  0.00  0.00    +0.064 A 
ATOM     21  C   LIG    1       25.939 -13.470   4.658  0.00  0.00    +0.059 A 
ATOM     22  I   LIG    1       28.020 -13.198   4.579  0.00  0.00    -0.040 I 
ATOM     23  C   LIG    1       25.108 -12.548   5.312  0.00  0.00    +0.143 A 
ATOM     24  C   LIG    1       23.732 -12.738   5.275  0.00  0.00    +0.059 A 
ATOM     25  I   LIG    1       22.428 -11.449   6.288  0.00  0.00    -0.040 I 
ATOM     26  C   LIG    1       23.171 -13.824   4.591  0.00  0.00    +0.064 A 
BRANCH  23  27
ATOM     27  O   LIG    1       25.672 -11.491   5.987  0.00  0.00    -0.505 OA
ATOM     28  H   LIG    1       26.220 -11.860   6.710  0.00  0.00    +0.292 HD
ENDBRANCH  23  27
ENDBRANCH  18  19
ENDBRANCH   5  18
TORSDOF 8
ENDMDL
