MODEL 1
REMARK VINA RESULT:       6.1      0.000      0.000
REMARK  Name = *****
REMARK                            x       y       z     vdW  Elec       q    Type
REMARK                         _______ _______ _______ _____ _____    ______ ____
ROOT
ATOM      1  C   LIG    1       25.585 -17.344   2.531  0.00  0.00    +0.086 C 
ENDROOT
BRANCH   1   2
ATOM      2  N   LIG    1       26.829 -16.661   2.959  0.00  0.00    -0.302 NA
ATOM      3  C   LIG    1       27.163 -15.500   2.121  0.00  0.00    +0.086 C 
ATOM      4  C   LIG    1       26.242 -14.296   2.330  0.00  0.00    +0.038 C 
ATOM      5  C   LIG    1       26.059 -13.869   3.826  0.00  0.00    +0.095 C 
ATOM      6  C   LIG    1       25.819 -15.150   4.673  0.00  0.00    +0.038 C 
ATOM      7  C   LIG    1       26.846 -16.247   4.365  0.00  0.00    +0.086 C 
BRANCH   5   8
ATOM      8  C   LIG    1       27.272 -13.036   4.322  0.00  0.00    -0.030 A 
ATOM      9  C   LIG    1       27.411 -12.724   5.688  0.00  0.00    +0.005 A 
ATOM     10  C   LIG    1       28.494 -11.963   6.149  0.00  0.00    +0.000 A 
ATOM     11  C   LIG    1       29.465 -11.502   5.264  0.00  0.00    +0.000 A 
ATOM     12  C   LIG    1       29.367 -11.820   3.919  0.00  0.00    +0.000 A 
ATOM     13  C   LIG    1       28.296 -12.588   3.462  0.00  0.00    +0.005 A 
ENDBRANCH   5   8
BRANCH   5  14
ATOM     14  C   LIG    1       24.737 -13.064   3.904  0.00  0.00    +0.315 C 
ATOM     15  O   LIG    1       23.933 -13.152   4.823  0.00  0.00    -0.250 OA
BRANCH  14  16
ATOM     16  O   LIG    1       24.533 -12.174   2.905  0.00  0.00    -0.480 OA
ATOM     17  H   LIG    1       24.800 -11.259   3.113  0.00  0.00    +0.295 HD
ENDBRANCH  14  16
ENDBRANCH   5  14
ENDBRANCH   1   2
BRANCH   1  18
ATOM     18  C   LIG    1       25.723 -18.871   2.686  0.00  0.00    +0.046 C 
BRANCH  18  19
ATOM     19  C   LIG    1       24.808 -19.586   3.730  0.00  0.00    +0.108 C 
BRANCH  19  20
ATOM     20  C   LIG    1       25.688 -20.088   4.909  0.00  0.00    -0.023 A 
ATOM     21  C   LIG    1       25.194 -20.942   5.917  0.00  0.00    +0.005 A 
ATOM     22  C   LIG    1       26.007 -21.368   6.972  0.00  0.00    +0.000 A 
ATOM     23  C   LIG    1       27.332 -20.956   7.044  0.00  0.00    +0.000 A 
ATOM     24  C   LIG    1       27.848 -20.120   6.058  0.00  0.00    +0.000 A 
ATOM     25  C   LIG    1       27.037 -19.691   5.002  0.00  0.00    +0.005 A 
ENDBRANCH  19  20
BRANCH  19  26
ATOM     26  C   LIG    1       23.658 -18.635   4.196  0.00  0.00    -0.023 A 
ATOM     27  C   LIG    1       22.434 -19.146   4.672  0.00  0.00    +0.005 A 
ATOM     28  C   LIG    1       21.375 -18.296   5.016  0.00  0.00    +0.000 A 
ATOM     29  C   LIG    1       21.502 -16.917   4.877  0.00  0.00    +0.000 A 
ATOM     30  C   LIG    1       22.692 -16.384   4.405  0.00  0.00    +0.000 A 
ATOM     31  C   LIG    1       23.752 -17.230   4.068  0.00  0.00    +0.005 A 
ENDBRANCH  19  26
BRANCH  19  33
ATOM     32  N   LIG    1       23.591 -21.571   2.409  0.00  0.00    -0.195 NA
ATOM     33  C   LIG    1       24.118 -20.729   2.995  0.00  0.00    +0.079 C 
ENDBRANCH  19  33
ENDBRANCH  18  19
ENDBRANCH   1  18
TORSDOF 9
ENDMDL
