MODEL 1
REMARK VINA RESULT:     -10.4      0.000      0.000
REMARK  Name = *****
REMARK                            x       y       z     vdW  Elec       q    Type
REMARK                         _______ _______ _______ _____ _____    ______ ____
ROOT
ATOM      1  C   LIG    1       25.962 -21.182   6.632  0.00  0.00    +0.136 C 
ATOM      2  N   LIG    1       25.478 -20.553   5.490  0.00  0.00    -0.295 N 
ATOM      3  C   LIG    1       24.151 -20.743   4.915  0.00  0.00    +0.154 C 
ATOM      4  C   LIG    1       26.300 -19.717   4.759  0.00  0.00    +0.296 C 
ATOM      5  O   LIG    1       26.026 -19.228   3.660  0.00  0.00    -0.264 OA
ATOM      6  C   LIG    1       27.620 -19.391   5.325  0.00  0.00    +0.213 C 
ATOM      7  C   LIG    1       27.961 -20.020   6.458  0.00  0.00    +0.173 C 
ATOM      8  N   LIG    1       27.158 -20.951   7.099  0.00  0.00    -0.223 NA
ENDROOT
BRANCH   1   9
ATOM      9  C   LIG    1       25.088 -22.282   7.377  0.00  0.00    +0.087 C 
ATOM     10  C   LIG    1       25.440 -22.258   8.884  0.00  0.00    +0.039 C 
ATOM     11  C   LIG    1       23.578 -21.955   7.303  0.00  0.00    +0.039 C 
BRANCH   9  13
ATOM     12  C   LIG    1       24.343 -24.554   6.560  0.00  0.00    +0.301 C 
ATOM     13  N   LIG    1       25.340 -23.629   6.841  0.00  0.00    -0.295 N 
ATOM     14  H   LIG    1       26.285 -23.952   6.718  0.00  0.00    +0.150 HD
ATOM     15  O   LIG    1       23.168 -24.335   6.826  0.00  0.00    -0.265 OA
BRANCH  12  19
ATOM     16  C   LIG    1       24.653 -29.255   5.415  0.00  0.00    +0.111 C 
ATOM     17  C   LIG    1       24.937 -27.807   5.345  0.00  0.00    +0.215 A 
ATOM     18  O   LIG    1       24.289 -26.996   6.240  0.00  0.00    -0.417 OA
ATOM     19  C   LIG    1       24.803 -25.765   5.899  0.00  0.00    +0.304 A 
ATOM     20  N   LIG    1       25.669 -25.820   4.923  0.00  0.00    -0.102 NA
ATOM     21  N   LIG    1       25.745 -27.149   4.543  0.00  0.00    -0.112 NA
ENDBRANCH  12  19
ENDBRANCH   9  13
ENDBRANCH   1   9
BRANCH   6  22
ATOM     22  O   LIG    1       28.400 -18.499   4.619  0.00  0.00    -0.501 OA
ATOM     23  H   LIG    1       29.093 -18.198   5.241  0.00  0.00    +0.292 HD
ENDBRANCH   6  22
BRANCH   7  24
ATOM     24  C   LIG    1       29.333 -19.768   7.041  0.00  0.00    +0.238 C 
ATOM     25  N   LIG    1       29.913 -18.644   7.223  0.00  0.00    -0.244 NA
BRANCH  24  26
ATOM     26  O   LIG    1       29.933 -20.946   7.347  0.00  0.00    -0.491 OA
ATOM     27  H   LIG    1       30.803 -20.766   7.753  0.00  0.00    +0.294 HD
ENDBRANCH  24  26
BRANCH  25  28
ATOM     28  C   LIG    1       31.278 -18.615   7.738  0.00  0.00    +0.180 C 
BRANCH  28  29
ATOM     29  C   LIG    1       31.345 -17.779   9.008  0.00  0.00    -0.026 A 
ATOM     30  C   LIG    1       30.388 -17.937  10.027  0.00  0.00    +0.008 A 
ATOM     31  C   LIG    1       30.501 -17.229  11.229  0.00  0.00    +0.039 A 
ATOM     32  C   LIG    1       31.569 -16.362  11.416  0.00  0.00    +0.123 A 
ATOM     33  F   LIG    1       31.708 -15.722  12.585  0.00  0.00    -0.205 F 
ATOM     34  C   LIG    1       32.504 -16.159  10.409  0.00  0.00    +0.039 A 
ATOM     35  C   LIG    1       32.387 -16.858   9.203  0.00  0.00    +0.008 A 
ENDBRANCH  28  29
ENDBRANCH  25  28
ENDBRANCH   7  24
TORSDOF 8
ENDMDL
MODEL 2
REMARK VINA RESULT:      -9.2      6.380     10.284
REMARK  Name = *****
REMARK                            x       y       z     vdW  Elec       q    Type
REMARK                         _______ _______ _______ _____ _____    ______ ____
ROOT
ATOM      1  C   LIG    1       25.065 -30.897   9.060  0.00  0.00    +0.136 C 
ATOM      2  N   LIG    1       25.695 -31.972   8.442  0.00  0.00    -0.295 N 
ATOM      3  C   LIG    1       26.147 -33.188   9.110  0.00  0.00    +0.154 C 
ATOM      4  C   LIG    1       26.005 -31.914   7.097  0.00  0.00    +0.296 C 
ATOM      5  O   LIG    1       26.689 -32.738   6.485  0.00  0.00    -0.264 OA
ATOM      6  C   LIG    1       25.494 -30.766   6.327  0.00  0.00    +0.213 C 
ATOM      7  C   LIG    1       24.856 -29.813   7.020  0.00  0.00    +0.173 C 
ATOM      8  N   LIG    1       24.673 -29.846   8.394  0.00  0.00    -0.223 NA
ENDROOT
BRANCH   1   9
ATOM      9  C   LIG    1       24.866 -30.878  10.637  0.00  0.00    +0.087 C 
ATOM     10  C   LIG    1       24.031 -29.631  11.017  0.00  0.00    +0.039 C 
ATOM     11  C   LIG    1       24.037 -32.090  11.121  0.00  0.00    +0.039 C 
BRANCH   9  13
ATOM     12  C   LIG    1       26.994 -29.725  11.367  0.00  0.00    +0.301 C 
ATOM     13  N   LIG    1       26.156 -30.833  11.345  0.00  0.00    -0.295 N 
ATOM     14  H   LIG    1       26.510 -31.658  11.798  0.00  0.00    +0.150 HD
ATOM     15  O   LIG    1       26.747 -28.720  10.712  0.00  0.00    -0.265 OA
BRANCH  12  19
ATOM     16  C   LIG    1       31.611 -29.583  12.838  0.00  0.00    +0.111 C 
ATOM     17  C   LIG    1       30.147 -29.757  12.936  0.00  0.00    +0.215 A 
ATOM     18  O   LIG    1       29.417 -29.594  11.788  0.00  0.00    -0.417 OA
ATOM     19  C   LIG    1       28.144 -29.847  12.247  0.00  0.00    +0.304 A 
ATOM     20  N   LIG    1       28.103 -30.142  13.519  0.00  0.00    -0.102 NA
ATOM     21  N   LIG    1       29.406 -30.065  13.979  0.00  0.00    -0.112 NA
ENDBRANCH  12  19
ENDBRANCH   9  13
ENDBRANCH   1   9
BRANCH   6  22
ATOM     22  O   LIG    1       25.751 -30.759   4.972  0.00  0.00    -0.501 OA
ATOM     23  H   LIG    1       26.379 -30.024   4.823  0.00  0.00    +0.292 HD
ENDBRANCH   6  22
BRANCH   7  24
ATOM     24  C   LIG    1       24.373 -28.585   6.284  0.00  0.00    +0.238 C 
ATOM     25  N   LIG    1       24.742 -27.373   6.454  0.00  0.00    -0.244 NA
BRANCH  24  26
ATOM     26  O   LIG    1       23.421 -28.928   5.380  0.00  0.00    -0.491 OA
ATOM     27  H   LIG    1       22.969 -28.119   5.068  0.00  0.00    +0.294 HD
ENDBRANCH  24  26
BRANCH  25  28
ATOM     28  C   LIG    1       24.100 -26.311   5.686  0.00  0.00    +0.180 C 
BRANCH  28  29
ATOM     29  C   LIG    1       24.341 -24.962   6.346  0.00  0.00    -0.026 A 
ATOM     30  C   LIG    1       25.639 -24.559   6.711  0.00  0.00    +0.008 A 
ATOM     31  C   LIG    1       25.870 -23.284   7.240  0.00  0.00    +0.039 A 
ATOM     32  C   LIG    1       24.805 -22.409   7.405  0.00  0.00    +0.123 A 
ATOM     33  F   LIG    1       25.029 -21.169   7.862  0.00  0.00    -0.205 F 
ATOM     34  C   LIG    1       23.509 -22.798   7.089  0.00  0.00    +0.039 A 
ATOM     35  C   LIG    1       23.276 -24.076   6.571  0.00  0.00    +0.008 A 
ENDBRANCH  28  29
ENDBRANCH  25  28
ENDBRANCH   7  24
TORSDOF 8
ENDMDL
MODEL 3
REMARK VINA RESULT:      -9.2      3.762      9.712
REMARK  Name = *****
REMARK                            x       y       z     vdW  Elec       q    Type
REMARK                         _______ _______ _______ _____ _____    ______ ____
ROOT
ATOM      1  C   LIG    1       29.916 -20.736   7.877  0.00  0.00    +0.136 C 
ATOM      2  N   LIG    1       30.040 -19.776   6.878  0.00  0.00    -0.295 N 
ATOM      3  C   LIG    1       31.220 -18.956   6.632  0.00  0.00    +0.154 C 
ATOM      4  C   LIG    1       28.963 -19.484   6.062  0.00  0.00    +0.296 C 
ATOM      5  O   LIG    1       28.915 -18.557   5.250  0.00  0.00    -0.264 OA
ATOM      6  C   LIG    1       27.768 -20.336   6.177  0.00  0.00    +0.213 C 
ATOM      7  C   LIG    1       27.780 -21.264   7.144  0.00  0.00    +0.173 C 
ATOM      8  N   LIG    1       28.832 -21.446   8.029  0.00  0.00    -0.223 NA
ENDROOT
BRANCH   1   9
ATOM      9  C   LIG    1       31.084 -20.952   8.935  0.00  0.00    +0.087 C 
ATOM     10  C   LIG    1       30.509 -21.702  10.161  0.00  0.00    +0.039 C 
ATOM     11  C   LIG    1       32.196 -21.871   8.376  0.00  0.00    +0.039 C 
BRANCH   9  13
ATOM     12  C   LIG    1       30.910 -18.599   9.839  0.00  0.00    +0.301 C 
ATOM     13  N   LIG    1       31.660 -19.671   9.375  0.00  0.00    -0.295 N 
ATOM     14  H   LIG    1       32.649 -19.509   9.288  0.00  0.00    +0.150 HD
ATOM     15  O   LIG    1       29.685 -18.619   9.831  0.00  0.00    -0.265 OA
BRANCH  12  19
ATOM     16  C   LIG    1       33.025 -15.667  13.070  0.00  0.00    +0.111 C 
ATOM     17  C   LIG    1       32.662 -16.209  11.744  0.00  0.00    +0.215 A 
ATOM     18  O   LIG    1       31.812 -17.285  11.717  0.00  0.00    -0.417 OA
ATOM     19  C   LIG    1       31.690 -17.488  10.360  0.00  0.00    +0.304 A 
ATOM     20  N   LIG    1       32.371 -16.633   9.647  0.00  0.00    -0.102 NA
ATOM     21  N   LIG    1       33.025 -15.807  10.545  0.00  0.00    -0.112 NA
ENDBRANCH  12  19
ENDBRANCH   9  13
ENDBRANCH   1   9
BRANCH   6  22
ATOM     22  O   LIG    1       26.730 -20.077   5.306  0.00  0.00    -0.501 OA
ATOM     23  H   LIG    1       25.939 -19.940   5.865  0.00  0.00    +0.292 HD
ENDBRANCH   6  22
BRANCH   7  24
ATOM     24  C   LIG    1       26.549 -22.117   7.344  0.00  0.00    +0.238 C 
ATOM     25  N   LIG    1       25.877 -22.745   6.455  0.00  0.00    -0.244 NA
BRANCH  24  26
ATOM     26  O   LIG    1       26.195 -22.126   8.653  0.00  0.00    -0.491 OA
ATOM     27  H   LIG    1       25.234 -21.963   8.726  0.00  0.00    +0.294 HD
ENDBRANCH  24  26
BRANCH  25  28
ATOM     28  C   LIG    1       24.667 -23.463   6.843  0.00  0.00    +0.180 C 
BRANCH  28  29
ATOM     29  C   LIG    1       24.833 -24.953   6.584  0.00  0.00    -0.026 A 
ATOM     30  C   LIG    1       23.992 -25.626   5.678  0.00  0.00    +0.008 A 
ATOM     31  C   LIG    1       24.200 -26.977   5.378  0.00  0.00    +0.039 A 
ATOM     32  C   LIG    1       25.248 -27.658   5.982  0.00  0.00    +0.123 A 
ATOM     33  F   LIG    1       25.482 -28.938   5.658  0.00  0.00    -0.205 F 
ATOM     34  C   LIG    1       26.067 -27.026   6.909  0.00  0.00    +0.039 A 
ATOM     35  C   LIG    1       25.853 -25.680   7.218  0.00  0.00    +0.008 A 
ENDBRANCH  28  29
ENDBRANCH  25  28
ENDBRANCH   7  24
TORSDOF 8
ENDMDL
MODEL 4
REMARK VINA RESULT:      -9.1      6.338     10.022
REMARK  Name = *****
REMARK                            x       y       z     vdW  Elec       q    Type
REMARK                         _______ _______ _______ _____ _____    ______ ____
ROOT
ATOM      1  C   LIG    1       24.255 -30.832   8.960  0.00  0.00    +0.136 C 
ATOM      2  N   LIG    1       25.038 -31.878   8.483  0.00  0.00    -0.295 N 
ATOM      3  C   LIG    1       25.314 -33.122   9.194  0.00  0.00    +0.154 C 
ATOM      4  C   LIG    1       25.688 -31.760   7.269  0.00  0.00    +0.296 C 
ATOM      5  O   LIG    1       26.518 -32.557   6.824  0.00  0.00    -0.264 OA
ATOM      6  C   LIG    1       25.382 -30.580   6.442  0.00  0.00    +0.213 C 
ATOM      7  C   LIG    1       24.574 -29.659   6.984  0.00  0.00    +0.173 C 
ATOM      8  N   LIG    1       24.039 -29.752   8.259  0.00  0.00    -0.223 NA
ENDROOT
BRANCH   1   9
ATOM      9  C   LIG    1       23.651 -30.882  10.429  0.00  0.00    +0.087 C 
ATOM     10  C   LIG    1       22.107 -30.875  10.331  0.00  0.00    +0.039 C 
ATOM     11  C   LIG    1       24.011 -32.204  11.147  0.00  0.00    +0.039 C 
BRANCH   9  13
ATOM     12  C   LIG    1       25.419 -29.455  11.535  0.00  0.00    +0.301 C 
ATOM     13  N   LIG    1       24.092 -29.733  11.236  0.00  0.00    -0.295 N 
ATOM     14  H   LIG    1       23.411 -29.128  11.663  0.00  0.00    +0.150 HD
ATOM     15  O   LIG    1       26.325 -30.214  11.211  0.00  0.00    -0.265 OA
BRANCH  12  19
ATOM     16  C   LIG    1       24.511 -25.585  14.311  0.00  0.00    +0.111 C 
ATOM     17  C   LIG    1       25.290 -26.506  13.458  0.00  0.00    +0.215 A 
ATOM     18  O   LIG    1       24.636 -27.601  12.956  0.00  0.00    -0.417 OA
ATOM     19  C   LIG    1       25.639 -28.190  12.218  0.00  0.00    +0.304 A 
ATOM     20  N   LIG    1       26.764 -27.528  12.256  0.00  0.00    -0.102 NA
ATOM     21  N   LIG    1       26.549 -26.438  13.081  0.00  0.00    -0.112 NA
ENDBRANCH  12  19
ENDBRANCH   9  13
ENDBRANCH   1   9
BRANCH   6  22
ATOM     22  O   LIG    1       25.984 -30.514   5.203  0.00  0.00    -0.501 OA
ATOM     23  H   LIG    1       26.370 -29.616   5.141  0.00  0.00    +0.292 HD
ENDBRANCH   6  22
BRANCH   7  24
ATOM     24  C   LIG    1       24.285 -28.400   6.200  0.00  0.00    +0.238 C 
ATOM     25  N   LIG    1       24.562 -27.194   6.522  0.00  0.00    -0.244 NA
BRANCH  24  26
ATOM     26  O   LIG    1       23.633 -28.706   5.050  0.00  0.00    -0.491 OA
ATOM     27  H   LIG    1       24.100 -29.439   4.603  0.00  0.00    +0.294 HD
ENDBRANCH  24  26
BRANCH  25  28
ATOM     28  C   LIG    1       24.134 -26.102   5.655  0.00  0.00    +0.180 C 
BRANCH  28  29
ATOM     29  C   LIG    1       24.329 -24.765   6.355  0.00  0.00    -0.026 A 
ATOM     30  C   LIG    1       25.610 -24.335   6.747  0.00  0.00    +0.008 A 
ATOM     31  C   LIG    1       25.798 -23.069   7.313  0.00  0.00    +0.039 A 
ATOM     32  C   LIG    1       24.706 -22.230   7.490  0.00  0.00    +0.123 A 
ATOM     33  F   LIG    1       24.889 -20.997   7.983  0.00  0.00    -0.205 F 
ATOM     34  C   LIG    1       23.426 -22.647   7.147  0.00  0.00    +0.039 A 
ATOM     35  C   LIG    1       23.235 -23.916   6.592  0.00  0.00    +0.008 A 
ENDBRANCH  28  29
ENDBRANCH  25  28
ENDBRANCH   7  24
TORSDOF 8
ENDMDL
MODEL 5
REMARK VINA RESULT:      -8.9      6.344     10.151
REMARK  Name = *****
REMARK                            x       y       z     vdW  Elec       q    Type
REMARK                         _______ _______ _______ _____ _____    ______ ____
ROOT
ATOM      1  C   LIG    1       23.683 -30.881   8.725  0.00  0.00    +0.136 C 
ATOM      2  N   LIG    1       23.603 -31.888   7.769  0.00  0.00    -0.295 N 
ATOM      3  C   LIG    1       22.957 -33.182   7.953  0.00  0.00    +0.154 C 
ATOM      4  C   LIG    1       24.226 -31.732   6.545  0.00  0.00    +0.296 C 
ATOM      5  O   LIG    1       24.344 -32.611   5.688  0.00  0.00    -0.264 OA
ATOM      6  C   LIG    1       24.813 -30.416   6.240  0.00  0.00    +0.213 C 
ATOM      7  C   LIG    1       24.788 -29.504   7.221  0.00  0.00    +0.173 C 
ATOM      8  N   LIG    1       24.265 -29.738   8.483  0.00  0.00    -0.223 NA
ENDROOT
BRANCH   1   9
ATOM      9  C   LIG    1       23.127 -31.120  10.195  0.00  0.00    +0.087 C 
ATOM     10  C   LIG    1       21.763 -31.846  10.097  0.00  0.00    +0.039 C 
ATOM     11  C   LIG    1       24.041 -32.072  11.002  0.00  0.00    +0.039 C 
BRANCH   9  13
ATOM     12  C   LIG    1       22.206 -29.719  12.086  0.00  0.00    +0.301 C 
ATOM     13  N   LIG    1       22.951 -29.852  10.921  0.00  0.00    -0.295 N 
ATOM     14  H   LIG    1       23.329 -29.000  10.543  0.00  0.00    +0.150 HD
ATOM     15  O   LIG    1       21.562 -30.653  12.548  0.00  0.00    -0.265 OA
BRANCH  12  19
ATOM     16  C   LIG    1       24.171 -25.654  13.853  0.00  0.00    +0.111 C 
ATOM     17  C   LIG    1       23.109 -26.605  13.462  0.00  0.00    +0.215 A 
ATOM     18  O   LIG    1       23.505 -27.804  12.929  0.00  0.00    -0.417 OA
ATOM     19  C   LIG    1       22.288 -28.412  12.716  0.00  0.00    +0.304 A 
ATOM     20  N   LIG    1       21.273 -27.678  13.087  0.00  0.00    -0.102 NA
ATOM     21  N   LIG    1       21.802 -26.488  13.556  0.00  0.00    -0.112 NA
ENDBRANCH  12  19
ENDBRANCH   9  13
ENDBRANCH   1   9
BRANCH   6  22
ATOM     22  O   LIG    1       25.367 -30.256   4.987  0.00  0.00    -0.501 OA
ATOM     23  H   LIG    1       26.324 -30.116   5.134  0.00  0.00    +0.292 HD
ENDBRANCH   6  22
BRANCH   7  24
ATOM     24  C   LIG    1       25.438 -28.162   6.977  0.00  0.00    +0.238 C 
ATOM     25  N   LIG    1       25.202 -27.337   6.030  0.00  0.00    -0.244 NA
BRANCH  24  26
ATOM     26  O   LIG    1       26.381 -27.921   7.922  0.00  0.00    -0.491 OA
ATOM     27  H   LIG    1       26.015 -27.312   8.593  0.00  0.00    +0.294 HD
ENDBRANCH  24  26
BRANCH  25  28
ATOM     28  C   LIG    1       25.992 -26.114   5.927  0.00  0.00    +0.180 C 
BRANCH  28  29
ATOM     29  C   LIG    1       25.192 -24.925   6.437  0.00  0.00    -0.026 A 
ATOM     30  C   LIG    1       25.838 -23.811   7.005  0.00  0.00    +0.008 A 
ATOM     31  C   LIG    1       25.107 -22.683   7.395  0.00  0.00    +0.039 A 
ATOM     32  C   LIG    1       23.730 -22.665   7.219  0.00  0.00    +0.123 A 
ATOM     33  F   LIG    1       23.033 -21.567   7.543  0.00  0.00    -0.205 F 
ATOM     34  C   LIG    1       23.065 -23.768   6.698  0.00  0.00    +0.039 A 
ATOM     35  C   LIG    1       23.793 -24.900   6.318  0.00  0.00    +0.008 A 
ENDBRANCH  28  29
ENDBRANCH  25  28
ENDBRANCH   7  24
TORSDOF 8
ENDMDL
MODEL 6
REMARK VINA RESULT:      -8.7      6.198     10.211
REMARK  Name = *****
REMARK                            x       y       z     vdW  Elec       q    Type
REMARK                         _______ _______ _______ _____ _____    ______ ____
ROOT
ATOM      1  C   LIG    1       24.387 -30.996   8.896  0.00  0.00    +0.136 C 
ATOM      2  N   LIG    1       23.725 -31.712   7.904  0.00  0.00    -0.295 N 
ATOM      3  C   LIG    1       23.055 -32.995   8.088  0.00  0.00    +0.154 C 
ATOM      4  C   LIG    1       23.725 -31.252   6.601  0.00  0.00    +0.296 C 
ATOM      5  O   LIG    1       23.301 -31.875   5.624  0.00  0.00    -0.264 OA
ATOM      6  C   LIG    1       24.290 -29.915   6.349  0.00  0.00    +0.213 C 
ATOM      7  C   LIG    1       24.858 -29.295   7.392  0.00  0.00    +0.173 C 
ATOM      8  N   LIG    1       24.951 -29.844   8.662  0.00  0.00    -0.223 NA
ENDROOT
BRANCH   1   9
ATOM      9  C   LIG    1       24.547 -31.604  10.356  0.00  0.00    +0.087 C 
ATOM     10  C   LIG    1       25.351 -32.924  10.258  0.00  0.00    +0.039 C 
ATOM     11  C   LIG    1       25.386 -30.680  11.269  0.00  0.00    +0.039 C 
BRANCH   9  13
ATOM     12  C   LIG    1       22.319 -30.895  11.315  0.00  0.00    +0.301 C 
ATOM     13  N   LIG    1       23.240 -31.877  10.976  0.00  0.00    -0.295 N 
ATOM     14  H   LIG    1       22.996 -32.817  11.240  0.00  0.00    +0.150 HD
ATOM     15  O   LIG    1       22.577 -29.703  11.196  0.00  0.00    -0.265 OA
BRANCH  12  19
ATOM     16  C   LIG    1       17.517 -31.506  11.566  0.00  0.00    +0.111 C 
ATOM     17  C   LIG    1       18.943 -31.717  11.890  0.00  0.00    +0.215 A 
ATOM     18  O   LIG    1       19.859 -30.951  11.217  0.00  0.00    -0.417 OA
ATOM     19  C   LIG    1       21.035 -31.395  11.778  0.00  0.00    +0.304 A 
ATOM     20  N   LIG    1       20.858 -32.312  12.691  0.00  0.00    -0.102 NA
ATOM     21  N   LIG    1       19.494 -32.541  12.754  0.00  0.00    -0.112 NA
ENDBRANCH  12  19
ENDBRANCH   9  13
ENDBRANCH   1   9
BRANCH   6  22
ATOM     22  O   LIG    1       24.217 -29.441   5.056  0.00  0.00    -0.501 OA
ATOM     23  H   LIG    1       23.688 -30.098   4.559  0.00  0.00    +0.292 HD
ENDBRANCH   6  22
BRANCH   7  24
ATOM     24  C   LIG    1       25.510 -27.951   7.167  0.00  0.00    +0.238 C 
ATOM     25  N   LIG    1       25.138 -27.021   6.371  0.00  0.00    -0.244 NA
BRANCH  24  26
ATOM     26  O   LIG    1       26.625 -27.839   7.933  0.00  0.00    -0.491 OA
ATOM     27  H   LIG    1       26.404 -27.349   8.749  0.00  0.00    +0.294 HD
ENDBRANCH  24  26
BRANCH  25  28
ATOM     28  C   LIG    1       25.949 -25.815   6.245  0.00  0.00    +0.180 C 
BRANCH  28  29
ATOM     29  C   LIG    1       25.144 -24.593   6.661  0.00  0.00    -0.026 A 
ATOM     30  C   LIG    1       25.782 -23.452   7.184  0.00  0.00    +0.008 A 
ATOM     31  C   LIG    1       25.050 -22.299   7.485  0.00  0.00    +0.039 A 
ATOM     32  C   LIG    1       23.679 -22.281   7.266  0.00  0.00    +0.123 A 
ATOM     33  F   LIG    1       22.983 -21.161   7.504  0.00  0.00    -0.205 F 
ATOM     34  C   LIG    1       23.021 -23.407   6.788  0.00  0.00    +0.039 A 
ATOM     35  C   LIG    1       23.750 -24.565   6.496  0.00  0.00    +0.008 A 
ENDBRANCH  28  29
ENDBRANCH  25  28
ENDBRANCH   7  24
TORSDOF 8
ENDMDL
MODEL 7
REMARK VINA RESULT:      -8.7      5.445      9.296
REMARK  Name = *****
REMARK                            x       y       z     vdW  Elec       q    Type
REMARK                         _______ _______ _______ _____ _____    ______ ____
ROOT
ATOM      1  C   LIG    1       25.185 -29.756   8.742  0.00  0.00    +0.136 C 
ATOM      2  N   LIG    1       24.432 -30.744   8.115  0.00  0.00    -0.295 N 
ATOM      3  C   LIG    1       24.081 -32.036   8.693  0.00  0.00    +0.154 C 
ATOM      4  C   LIG    1       24.011 -30.571   6.810  0.00  0.00    +0.296 C 
ATOM      5  O   LIG    1       23.471 -31.434   6.114  0.00  0.00    -0.264 OA
ATOM      6  C   LIG    1       24.236 -29.254   6.189  0.00  0.00    +0.213 C 
ATOM      7  C   LIG    1       24.930 -28.361   6.907  0.00  0.00    +0.173 C 
ATOM      8  N   LIG    1       25.448 -28.614   8.168  0.00  0.00    -0.223 NA
ENDROOT
BRANCH   1   9
ATOM      9  C   LIG    1       25.826 -30.019  10.172  0.00  0.00    +0.087 C 
ATOM     10  C   LIG    1       25.049 -31.168  10.861  0.00  0.00    +0.039 C 
ATOM     11  C   LIG    1       27.285 -30.520  10.059  0.00  0.00    +0.039 C 
BRANCH   9  13
ATOM     12  C   LIG    1       26.100 -28.800  12.369  0.00  0.00    +0.301 C 
ATOM     13  N   LIG    1       25.769 -28.818  11.021  0.00  0.00    -0.295 N 
ATOM     14  H   LIG    1       25.412 -27.955  10.646  0.00  0.00    +0.150 HD
ATOM     15  O   LIG    1       26.387 -29.826  12.974  0.00  0.00    -0.265 OA
BRANCH  12  19
ATOM     16  C   LIG    1       27.868 -24.701  14.259  0.00  0.00    +0.111 C 
ATOM     17  C   LIG    1       26.854 -25.658  13.772  0.00  0.00    +0.215 A 
ATOM     18  O   LIG    1       27.303 -26.869  13.313  0.00  0.00    -0.417 OA
ATOM     19  C   LIG    1       26.115 -27.480  12.977  0.00  0.00    +0.304 A 
ATOM     20  N   LIG    1       25.068 -26.737  13.215  0.00  0.00    -0.102 NA
ATOM     21  N   LIG    1       25.545 -25.538  13.715  0.00  0.00    -0.112 NA
ENDBRANCH  12  19
ENDBRANCH   9  13
ENDBRANCH   1   9
BRANCH   6  22
ATOM     22  O   LIG    1       23.745 -29.075   4.913  0.00  0.00    -0.501 OA
ATOM     23  H   LIG    1       24.213 -28.293   4.554  0.00  0.00    +0.292 HD
ENDBRANCH   6  22
BRANCH   7  24
ATOM     24  C   LIG    1       25.243 -27.020   6.285  0.00  0.00    +0.238 C 
ATOM     25  N   LIG    1       24.421 -26.101   5.946  0.00  0.00    -0.244 NA
BRANCH  24  26
ATOM     26  O   LIG    1       26.580 -26.898   6.087  0.00  0.00    -0.491 OA
ATOM     27  H   LIG    1       27.038 -27.643   6.523  0.00  0.00    +0.294 HD
ENDBRANCH  24  26
BRANCH  25  28
ATOM     28  C   LIG    1       24.919 -24.897   5.289  0.00  0.00    +0.180 C 
BRANCH  28  29
ATOM     29  C   LIG    1       24.998 -23.748   6.284  0.00  0.00    -0.026 A 
ATOM     30  C   LIG    1       26.204 -23.444   6.941  0.00  0.00    +0.008 A 
ATOM     31  C   LIG    1       26.296 -22.335   7.790  0.00  0.00    +0.039 A 
ATOM     32  C   LIG    1       25.183 -21.528   7.985  0.00  0.00    +0.123 A 
ATOM     33  F   LIG    1       25.281 -20.436   8.756  0.00  0.00    -0.205 F 
ATOM     34  C   LIG    1       23.971 -21.831   7.378  0.00  0.00    +0.039 A 
ATOM     35  C   LIG    1       23.874 -22.945   6.539  0.00  0.00    +0.008 A 
ENDBRANCH  28  29
ENDBRANCH  25  28
ENDBRANCH   7  24
TORSDOF 8
ENDMDL
MODEL 8
REMARK VINA RESULT:      -8.7      4.460      8.702
REMARK  Name = *****
REMARK                            x       y       z     vdW  Elec       q    Type
REMARK                         _______ _______ _______ _____ _____    ______ ____
ROOT
ATOM      1  C   LIG    1       25.652 -27.822   7.209  0.00  0.00    +0.136 C 
ATOM      2  N   LIG    1       25.151 -29.065   6.833  0.00  0.00    -0.295 N 
ATOM      3  C   LIG    1       24.551 -29.381   5.542  0.00  0.00    +0.154 C 
ATOM      4  C   LIG    1       25.133 -30.107   7.740  0.00  0.00    +0.296 C 
ATOM      5  O   LIG    1       24.582 -31.197   7.564  0.00  0.00    -0.264 OA
ATOM      6  C   LIG    1       25.811 -29.901   9.031  0.00  0.00    +0.213 C 
ATOM      7  C   LIG    1       26.302 -28.676   9.265  0.00  0.00    +0.173 C 
ATOM      8  N   LIG    1       26.190 -27.616   8.379  0.00  0.00    -0.223 NA
ENDROOT
BRANCH   1   9
ATOM      9  C   LIG    1       25.513 -26.572   6.238  0.00  0.00    +0.087 C 
ATOM     10  C   LIG    1       26.327 -26.850   4.951  0.00  0.00    +0.039 C 
ATOM     11  C   LIG    1       24.053 -26.376   5.765  0.00  0.00    +0.039 C 
BRANCH   9  13
ATOM     12  C   LIG    1       25.710 -24.059   6.419  0.00  0.00    +0.301 C 
ATOM     13  N   LIG    1       26.009 -25.338   6.869  0.00  0.00    -0.295 N 
ATOM     14  H   LIG    1       26.656 -25.392   7.638  0.00  0.00    +0.150 HD
ATOM     15  O   LIG    1       25.068 -23.871   5.392  0.00  0.00    -0.265 OA
BRANCH  12  19
ATOM     16  C   LIG    1       28.303 -20.232   7.880  0.00  0.00    +0.111 C 
ATOM     17  C   LIG    1       27.269 -21.286   7.932  0.00  0.00    +0.215 A 
ATOM     18  O   LIG    1       27.215 -22.164   6.880  0.00  0.00    -0.417 OA
ATOM     19  C   LIG    1       26.182 -22.984   7.277  0.00  0.00    +0.304 A 
ATOM     20  N   LIG    1       25.676 -22.654   8.435  0.00  0.00    -0.102 NA
ATOM     21  N   LIG    1       26.368 -21.532   8.858  0.00  0.00    -0.112 NA
ENDBRANCH  12  19
ENDBRANCH   9  13
ENDBRANCH   1   9
BRANCH   6  22
ATOM     22  O   LIG    1       25.846 -30.975   9.896  0.00  0.00    -0.501 OA
ATOM     23  H   LIG    1       26.001 -31.764   9.337  0.00  0.00    +0.292 HD
ENDBRANCH   6  22
BRANCH   7  24
ATOM     24  C   LIG    1       26.947 -28.399  10.603  0.00  0.00    +0.238 C 
ATOM     25  N   LIG    1       26.566 -27.574  11.502  0.00  0.00    -0.244 NA
BRANCH  24  26
ATOM     26  O   LIG    1       28.067 -29.153  10.746  0.00  0.00    -0.491 OA
ATOM     27  H   LIG    1       27.854 -29.944  11.278  0.00  0.00    +0.294 HD
ENDBRANCH  24  26
BRANCH  25  28
ATOM     28  C   LIG    1       27.371 -27.400  12.706  0.00  0.00    +0.180 C 
BRANCH  28  29
ATOM     29  C   LIG    1       26.899 -26.181  13.484  0.00  0.00    -0.026 A 
ATOM     30  C   LIG    1       27.788 -25.456  14.300  0.00  0.00    +0.008 A 
ATOM     31  C   LIG    1       27.373 -24.286  14.946  0.00  0.00    +0.039 A 
ATOM     32  C   LIG    1       26.070 -23.839  14.782  0.00  0.00    +0.123 A 
ATOM     33  F   LIG    1       25.683 -22.692  15.357  0.00  0.00    -0.205 F 
ATOM     34  C   LIG    1       25.162 -24.558  14.014  0.00  0.00    +0.039 A 
ATOM     35  C   LIG    1       25.573 -25.733  13.376  0.00  0.00    +0.008 A 
ENDBRANCH  28  29
ENDBRANCH  25  28
ENDBRANCH   7  24
TORSDOF 8
ENDMDL
MODEL 9
REMARK VINA RESULT:      -8.6      5.497      9.366
REMARK  Name = *****
REMARK                            x       y       z     vdW  Elec       q    Type
REMARK                         _______ _______ _______ _____ _____    ______ ____
ROOT
ATOM      1  C   LIG    1       25.349 -29.618   8.505  0.00  0.00    +0.136 C 
ATOM      2  N   LIG    1       24.497 -30.564   7.945  0.00  0.00    -0.295 N 
ATOM      3  C   LIG    1       24.124 -31.836   8.554  0.00  0.00    +0.154 C 
ATOM      4  C   LIG    1       23.982 -30.367   6.677  0.00  0.00    +0.296 C 
ATOM      5  O   LIG    1       23.342 -31.201   6.030  0.00  0.00    -0.264 OA
ATOM      6  C   LIG    1       24.226 -29.065   6.035  0.00  0.00    +0.213 C 
ATOM      7  C   LIG    1       25.022 -28.210   6.691  0.00  0.00    +0.173 C 
ATOM      8  N   LIG    1       25.625 -28.492   7.907  0.00  0.00    -0.223 NA
ENDROOT
BRANCH   1   9
ATOM      9  C   LIG    1       26.088 -29.915   9.880  0.00  0.00    +0.087 C 
ATOM     10  C   LIG    1       27.102 -31.064   9.660  0.00  0.00    +0.039 C 
ATOM     11  C   LIG    1       26.933 -28.706  10.346  0.00  0.00    +0.039 C 
BRANCH   9  13
ATOM     12  C   LIG    1       25.507 -30.669  12.222  0.00  0.00    +0.301 C 
ATOM     13  N   LIG    1       25.137 -30.303  10.934  0.00  0.00    -0.295 N 
ATOM     14  H   LIG    1       24.156 -30.378  10.723  0.00  0.00    +0.150 HD
ATOM     15  O   LIG    1       26.684 -30.777  12.546  0.00  0.00    -0.265 OA
BRANCH  12  19
ATOM     16  C   LIG    1       21.033 -30.369  14.063  0.00  0.00    +0.111 C 
ATOM     17  C   LIG    1       22.444 -30.793  13.956  0.00  0.00    +0.215 A 
ATOM     18  O   LIG    1       23.172 -30.292  12.908  0.00  0.00    -0.417 OA
ATOM     19  C   LIG    1       24.400 -30.869  13.142  0.00  0.00    +0.304 A 
ATOM     20  N   LIG    1       24.422 -31.620  14.211  0.00  0.00    -0.102 NA
ATOM     21  N   LIG    1       23.142 -31.590  14.735  0.00  0.00    -0.112 NA
ENDBRANCH  12  19
ENDBRANCH   9  13
ENDBRANCH   1   9
BRANCH   6  22
ATOM     22  O   LIG    1       23.645 -28.859   4.801  0.00  0.00    -0.501 OA
ATOM     23  H   LIG    1       24.364 -28.547   4.215  0.00  0.00    +0.292 HD
ENDBRANCH   6  22
BRANCH   7  24
ATOM     24  C   LIG    1       25.356 -26.888   6.040  0.00  0.00    +0.238 C 
ATOM     25  N   LIG    1       24.564 -25.916   5.788  0.00  0.00    -0.244 NA
BRANCH  24  26
ATOM     26  O   LIG    1       26.671 -26.850   5.707  0.00  0.00    -0.491 OA
ATOM     27  H   LIG    1       27.156 -26.332   6.379  0.00  0.00    +0.294 HD
ENDBRANCH  24  26
BRANCH  25  28
ATOM     28  C   LIG    1       25.069 -24.742   5.084  0.00  0.00    +0.180 C 
BRANCH  28  29
ATOM     29  C   LIG    1       25.123 -23.546   6.024  0.00  0.00    -0.026 A 
ATOM     30  C   LIG    1       25.816 -23.620   7.247  0.00  0.00    +0.008 A 
ATOM     31  C   LIG    1       25.936 -22.495   8.069  0.00  0.00    +0.039 A 
ATOM     32  C   LIG    1       25.365 -21.293   7.674  0.00  0.00    +0.123 A 
ATOM     33  F   LIG    1       25.522 -20.200   8.433  0.00  0.00    -0.205 F 
ATOM     34  C   LIG    1       24.642 -21.205   6.490  0.00  0.00    +0.039 A 
ATOM     35  C   LIG    1       24.512 -22.332   5.672  0.00  0.00    +0.008 A 
ENDBRANCH  28  29
ENDBRANCH  25  28
ENDBRANCH   7  24
TORSDOF 8
ENDMDL
