MODEL 1
REMARK VINA RESULT:      -2.7      0.000      0.000
REMARK  Name = *****
REMARK                            x       y       z     vdW  Elec       q    Type
REMARK                         _______ _______ _______ _____ _____    ______ ____
ROOT
ATOM      1  C   LIG    1       24.885 -18.052   3.693  0.00  0.00    +0.350 C 
ATOM      2  O   LIG    1       23.684 -17.801   3.686  0.00  0.00    -0.247 OA
ENDROOT
BRANCH   1   3
ATOM      3  O   LIG    1       25.824 -17.125   3.340  0.00  0.00    -0.458 OA
BRANCH   3  11
ATOM      4  C   LIG    1       27.628 -12.296   4.747  0.00  0.00    +0.193 C 
ATOM      5  N   LIG    1       27.029 -13.630   4.280  0.00  0.00    +0.247 N 
ATOM      6  C   LIG    1       25.544 -13.741   4.718  0.00  0.00    +0.102 C 
ATOM      7  C   LIG    1       24.793 -12.780   3.814  0.00  0.00    +0.201 C 
ATOM      8  C   LIG    1       25.597 -12.694   2.544  0.00  0.00    +0.201 C 
ATOM      9  O   LIG    1       24.287 -13.259   2.569  0.00  0.00    -0.357 OA
ATOM     10  C   LIG    1       25.079 -15.184   4.502  0.00  0.00    +0.102 C 
ATOM     11  C   LIG    1       25.394 -15.766   3.100  0.00  0.00    +0.187 C 
ATOM     12  C   LIG    1       26.483 -15.033   2.277  0.00  0.00    +0.102 C 
ATOM     13  C   LIG    1       26.793 -13.608   2.746  0.00  0.00    +0.102 C 
ATOM     14  C   LIG    1       27.964 -14.713   4.807  0.00  0.00    +0.193 C 
ENDBRANCH   3  11
ENDBRANCH   1   3
BRANCH   1  15
ATOM     15  C   LIG    1       25.545 -19.387   4.175  0.00  0.00    +0.226 C 
BRANCH  15  16
ATOM     16  C   LIG    1       24.570 -20.161   5.070  0.00  0.00    +0.037 A 
ATOM     17  S   LIG    1       23.158 -20.920   4.435  0.00  0.00    -0.098 S 
ATOM     18  C   LIG    1       22.725 -21.571   5.953  0.00  0.00    +0.045 A 
ATOM     19  C   LIG    1       23.644 -21.263   6.928  0.00  0.00    +0.008 A 
ATOM     20  C   LIG    1       24.698 -20.448   6.423  0.00  0.00    +0.015 A 
ENDBRANCH  15  16
BRANCH  15  21
ATOM     21  C   LIG    1       26.931 -19.170   4.776  0.00  0.00    +0.037 A 
ATOM     22  S   LIG    1       27.582 -20.242   5.966  0.00  0.00    -0.098 S 
ATOM     23  C   LIG    1       28.987 -19.297   6.166  0.00  0.00    +0.045 A 
ATOM     24  C   LIG    1       29.026 -18.241   5.288  0.00  0.00    +0.008 A 
ATOM     25  C   LIG    1       27.858 -18.181   4.471  0.00  0.00    +0.015 A 
ENDBRANCH  15  21
BRANCH  15  26
ATOM     26  O   LIG    1       25.735 -20.197   3.001  0.00  0.00    -0.369 OA
ATOM     27  H   LIG    1       26.072 -21.055   3.315  0.00  0.00    +0.212 HD
ENDBRANCH  15  26
ENDBRANCH   1  15
TORSDOF 6
ENDMDL
MODEL 2
REMARK VINA RESULT:      -2.4      1.659      2.758
REMARK  Name = *****
REMARK                            x       y       z     vdW  Elec       q    Type
REMARK                         _______ _______ _______ _____ _____    ______ ____
ROOT
ATOM      1  C   LIG    1       26.543 -17.954   3.852  0.00  0.00    +0.350 C 
ATOM      2  O   LIG    1       27.753 -17.870   4.033  0.00  0.00    -0.247 OA
ENDROOT
BRANCH   1   3
ATOM      3  O   LIG    1       25.809 -16.919   3.345  0.00  0.00    -0.458 OA
BRANCH   3  11
ATOM      4  C   LIG    1       24.198 -11.954   4.487  0.00  0.00    +0.193 C 
ATOM      5  N   LIG    1       24.764 -13.337   4.135  0.00  0.00    +0.247 N 
ATOM      6  C   LIG    1       25.282 -13.355   2.672  0.00  0.00    +0.102 C 
ATOM      7  C   LIG    1       26.563 -12.540   2.696  0.00  0.00    +0.201 C 
ATOM      8  C   LIG    1       27.109 -12.668   4.093  0.00  0.00    +0.201 C 
ATOM      9  O   LIG    1       27.797 -13.204   2.964  0.00  0.00    -0.357 OA
ATOM     10  C   LIG    1       25.557 -14.808   2.271  0.00  0.00    +0.102 C 
ATOM     11  C   LIG    1       26.417 -15.610   3.281  0.00  0.00    +0.187 C 
ATOM     12  C   LIG    1       26.515 -15.033   4.716  0.00  0.00    +0.102 C 
ATOM     13  C   LIG    1       26.129 -13.556   4.843  0.00  0.00    +0.102 C 
ATOM     14  C   LIG    1       23.661 -14.335   4.467  0.00  0.00    +0.193 C 
ENDBRANCH   3  11
ENDBRANCH   1   3
BRANCH   1  15
ATOM     15  C   LIG    1       25.665 -19.232   4.068  0.00  0.00    +0.226 C 
BRANCH  15  16
ATOM     16  C   LIG    1       24.180 -18.850   4.095  0.00  0.00    +0.037 A 
ATOM     17  S   LIG    1       22.934 -20.041   4.111  0.00  0.00    -0.098 S 
ATOM     18  C   LIG    1       21.699 -18.867   4.219  0.00  0.00    +0.045 A 
ATOM     19  C   LIG    1       22.205 -17.591   4.284  0.00  0.00    +0.008 A 
ATOM     20  C   LIG    1       23.627 -17.581   4.204  0.00  0.00    +0.015 A 
ENDBRANCH  15  16
BRANCH  15  21
ATOM     21  C   LIG    1       26.132 -20.068   5.257  0.00  0.00    +0.037 A 
ATOM     22  S   LIG    1       27.781 -20.065   5.776  0.00  0.00    -0.098 S 
ATOM     23  C   LIG    1       27.491 -21.243   6.974  0.00  0.00    +0.045 A 
ATOM     24  C   LIG    1       26.161 -21.571   7.061  0.00  0.00    +0.008 A 
ATOM     25  C   LIG    1       25.374 -20.878   6.093  0.00  0.00    +0.015 A 
ENDBRANCH  15  21
BRANCH  15  26
ATOM     26  O   LIG    1       25.843 -20.054   2.900  0.00  0.00    -0.369 OA
ATOM     27  H   LIG    1       25.158 -19.776   2.266  0.00  0.00    +0.212 HD
ENDBRANCH  15  26
ENDBRANCH   1  15
TORSDOF 6
ENDMDL
