MODEL 1
REMARK VINA RESULT:      -4.9      0.000      0.000
REMARK  Name = *****
REMARK                            x       y       z     vdW  Elec       q    Type
REMARK                         _______ _______ _______ _____ _____    ______ ____
ROOT
ATOM      1  C   LIG    1       23.059 -20.028   4.670  0.00  0.00    +0.158 C 
ENDROOT
BRANCH   1   2
ATOM      2  C   LIG    1       24.382 -20.449   5.272  0.00  0.00    -0.016 A 
ATOM      3  C   LIG    1       25.598 -19.994   4.733  0.00  0.00    +0.033 A 
ATOM      4  C   LIG    1       26.831 -20.309   5.300  0.00  0.00    +0.075 A 
ATOM      5  C   LIG    1       26.854 -21.096   6.450  0.00  0.00    +0.138 A 
ATOM      6  C   LIG    1       25.660 -21.571   7.005  0.00  0.00    +0.048 A 
ATOM      7  C   LIG    1       24.429 -21.239   6.426  0.00  0.00    +0.010 A 
BRANCH   4   8
ATOM      8  N   LIG    1       27.948 -19.584   4.850  0.00  0.00    -0.285 N 
ATOM      9  H   LIG    1       28.206 -19.698   3.889  0.00  0.00    +0.155 HD
ATOM     10  C   LIG    1       28.560 -18.503   5.456  0.00  0.00    +0.330 C 
ATOM     11  O   LIG    1       29.475 -17.888   4.960  0.00  0.00    -0.279 OA
ENDBRANCH   4   8
BRANCH   5  12
ATOM     12  O   LIG    1       28.048 -21.351   7.061  0.00  0.00    -0.505 OA
ATOM     13  H   LIG    1       28.635 -21.778   6.415  0.00  0.00    +0.292 HD
ENDBRANCH   5  12
ENDBRANCH   1   2
BRANCH   1  14
ATOM     14  O   LIG    1       22.085 -20.094   5.719  0.00  0.00    -0.386 OA
ATOM     15  H   LIG    1       21.927 -21.035   5.908  0.00  0.00    +0.210 HD
ENDBRANCH   1  14
BRANCH   1  16
ATOM     16  C   LIG    1       23.019 -18.592   4.070  0.00  0.00    +0.117 C 
BRANCH  16  17
ATOM     17  N   LIG    1       22.154 -17.597   4.733  0.00  0.00    -0.310 NA
ATOM     18  H   LIG    1       21.375 -17.403   4.101  0.00  0.00    +0.122 HD
BRANCH  17  19
ATOM     19  C   LIG    1       22.780 -16.311   5.110  0.00  0.00    +0.055 C 
ATOM     20  C   LIG    1       21.905 -15.471   6.061  0.00  0.00    +0.024 C 
BRANCH  19  21
ATOM     21  C   LIG    1       23.075 -15.354   3.924  0.00  0.00    +0.053 C 
BRANCH  21  25
ATOM     22  C   LIG    1       26.984 -13.567   3.823  0.00  0.00    +0.120 A 
ATOM     23  C   LIG    1       25.876 -12.837   4.249  0.00  0.00    +0.046 A 
ATOM     24  C   LIG    1       24.615 -13.411   4.266  0.00  0.00    +0.007 A 
ATOM     25  C   LIG    1       24.426 -14.713   3.812  0.00  0.00    -0.046 A 
ATOM     26  C   LIG    1       25.538 -15.455   3.385  0.00  0.00    +0.007 A 
ATOM     27  C   LIG    1       26.816 -14.889   3.411  0.00  0.00    +0.046 A 
BRANCH  22  29
ATOM     28  C   LIG    1       28.667 -12.528   5.082  0.00  0.00    +0.277 C 
ATOM     29  O   LIG    1       28.261 -13.072   3.825  0.00  0.00    -0.495 OA
ENDBRANCH  22  29
ENDBRANCH  21  25
ENDBRANCH  19  21
ENDBRANCH  17  19
ENDBRANCH  16  17
ENDBRANCH   1  16
TORSDOF 10
ENDMDL
MODEL 2
REMARK VINA RESULT:      -4.4      2.015      6.601
REMARK  Name = *****
REMARK                            x       y       z     vdW  Elec       q    Type
REMARK                         _______ _______ _______ _____ _____    ______ ____
ROOT
ATOM      1  C   LIG    1       23.243 -16.075   4.881  0.00  0.00    +0.158 C 
ENDROOT
BRANCH   1   2
ATOM      2  C   LIG    1       23.845 -14.903   4.136  0.00  0.00    -0.016 A 
ATOM      3  C   LIG    1       25.238 -14.727   4.074  0.00  0.00    +0.033 A 
ATOM      4  C   LIG    1       25.829 -13.697   3.344  0.00  0.00    +0.075 A 
ATOM      5  C   LIG    1       25.004 -12.818   2.644  0.00  0.00    +0.138 A 
ATOM      6  C   LIG    1       23.613 -12.962   2.697  0.00  0.00    +0.048 A 
ATOM      7  C   LIG    1       23.036 -14.007   3.428  0.00  0.00    +0.010 A 
BRANCH   4   8
ATOM      8  N   LIG    1       27.215 -13.779   3.126  0.00  0.00    -0.285 N 
ATOM      9  H   LIG    1       27.515 -14.088   2.222  0.00  0.00    +0.155 HD
ATOM     10  C   LIG    1       28.228 -13.205   3.872  0.00  0.00    +0.330 C 
ATOM     11  O   LIG    1       29.397 -13.265   3.569  0.00  0.00    -0.279 OA
ENDBRANCH   4   8
BRANCH   5  12
ATOM     12  O   LIG    1       25.569 -11.849   1.865  0.00  0.00    -0.505 OA
ATOM     13  H   LIG    1       26.482 -11.712   2.165  0.00  0.00    +0.292 HD
ENDBRANCH   5  12
ENDBRANCH   1   2
BRANCH   1  14
ATOM     14  O   LIG    1       22.127 -15.567   5.622  0.00  0.00    -0.386 OA
ATOM     15  H   LIG    1       21.754 -14.826   5.114  0.00  0.00    +0.210 HD
ENDBRANCH   1  14
BRANCH   1  16
ATOM     16  C   LIG    1       22.733 -17.247   3.993  0.00  0.00    +0.117 C 
BRANCH  16  17
ATOM     17  N   LIG    1       21.934 -18.303   4.644  0.00  0.00    -0.310 NA
ATOM     18  H   LIG    1       21.800 -18.024   5.618  0.00  0.00    +0.122 HD
BRANCH  17  19
ATOM     19  C   LIG    1       22.493 -19.672   4.626  0.00  0.00    +0.055 C 
ATOM     20  C   LIG    1       21.428 -20.753   4.354  0.00  0.00    +0.024 C 
BRANCH  19  21
ATOM     21  C   LIG    1       23.162 -20.126   5.951  0.00  0.00    +0.053 C 
BRANCH  21  25
ATOM     22  C   LIG    1       27.418 -20.696   6.161  0.00  0.00    +0.120 A 
ATOM     23  C   LIG    1       26.857 -19.863   5.196  0.00  0.00    +0.046 A 
ATOM     24  C   LIG    1       25.484 -19.692   5.122  0.00  0.00    +0.007 A 
ATOM     25  C   LIG    1       24.637 -20.390   5.979  0.00  0.00    -0.046 A 
ATOM     26  C   LIG    1       25.197 -21.229   6.955  0.00  0.00    +0.007 A 
ATOM     27  C   LIG    1       26.585 -21.365   7.059  0.00  0.00    +0.046 A 
BRANCH  22  29
ATOM     28  C   LIG    1       29.425 -19.768   6.940  0.00  0.00    +0.277 C 
ATOM     29  O   LIG    1       28.768 -20.871   6.316  0.00  0.00    -0.495 OA
ENDBRANCH  22  29
ENDBRANCH  21  25
ENDBRANCH  19  21
ENDBRANCH  17  19
ENDBRANCH  16  17
ENDBRANCH   1  16
TORSDOF 10
ENDMDL
MODEL 3
REMARK VINA RESULT:      -4.0      1.804      6.272
REMARK  Name = *****
REMARK                            x       y       z     vdW  Elec       q    Type
REMARK                         _______ _______ _______ _____ _____    ______ ____
ROOT
ATOM      1  C   LIG    1       23.555 -14.908   4.208  0.00  0.00    +0.158 C 
ENDROOT
BRANCH   1   2
ATOM      2  C   LIG    1       24.953 -14.380   3.974  0.00  0.00    -0.016 A 
ATOM      3  C   LIG    1       26.079 -15.097   4.415  0.00  0.00    +0.033 A 
ATOM      4  C   LIG    1       27.381 -14.673   4.161  0.00  0.00    +0.075 A 
ATOM      5  C   LIG    1       27.571 -13.499   3.434  0.00  0.00    +0.138 A 
ATOM      6  C   LIG    1       26.469 -12.758   2.991  0.00  0.00    +0.048 A 
ATOM      7  C   LIG    1       25.166 -13.202   3.249  0.00  0.00    +0.010 A 
BRANCH   4   8
ATOM      8  N   LIG    1       28.415 -15.596   4.400  0.00  0.00    -0.285 N 
ATOM      9  H   LIG    1       29.300 -15.223   4.683  0.00  0.00    +0.155 HD
ATOM     10  C   LIG    1       28.306 -16.960   4.601  0.00  0.00    +0.330 C 
ATOM     11  O   LIG    1       29.244 -17.671   4.876  0.00  0.00    -0.279 OA
ENDBRANCH   4   8
BRANCH   5  12
ATOM     12  O   LIG    1       28.839 -13.109   3.112  0.00  0.00    -0.505 OA
ATOM     13  H   LIG    1       28.783 -12.279   2.610  0.00  0.00    +0.292 HD
ENDBRANCH   5  12
ENDBRANCH   1   2
BRANCH   1  14
ATOM     14  O   LIG    1       22.732 -14.384   3.159  0.00  0.00    -0.386 OA
ATOM     15  H   LIG    1       23.270 -13.744   2.661  0.00  0.00    +0.210 HD
ENDBRANCH   1  14
BRANCH   1  16
ATOM     16  C   LIG    1       23.410 -16.458   4.200  0.00  0.00    +0.117 C 
BRANCH  16  17
ATOM     17  N   LIG    1       22.085 -17.024   4.517  0.00  0.00    -0.310 NA
ATOM     18  H   LIG    1       22.028 -17.110   5.534  0.00  0.00    +0.122 HD
BRANCH  17  19
ATOM     19  C   LIG    1       21.756 -18.336   3.919  0.00  0.00    +0.055 C 
ATOM     20  C   LIG    1       20.329 -18.394   3.341  0.00  0.00    +0.024 C 
BRANCH  19  21
ATOM     21  C   LIG    1       21.816 -19.537   4.900  0.00  0.00    +0.053 C 
BRANCH  21  25
ATOM     22  C   LIG    1       25.699 -20.872   6.174  0.00  0.00    +0.120 A 
ATOM     23  C   LIG    1       25.497 -20.397   4.880  0.00  0.00    +0.046 A 
ATOM     24  C   LIG    1       24.241 -19.981   4.468  0.00  0.00    +0.007 A 
ATOM     25  C   LIG    1       23.148 -20.077   5.326  0.00  0.00    -0.046 A 
ATOM     26  C   LIG    1       23.346 -20.552   6.631  0.00  0.00    +0.007 A 
ATOM     27  C   LIG    1       24.622 -20.929   7.060  0.00  0.00    +0.046 A 
BRANCH  22  29
ATOM     28  C   LIG    1       27.760 -20.163   7.035  0.00  0.00    +0.277 C 
ATOM     29  O   LIG    1       26.923 -21.255   6.656  0.00  0.00    -0.495 OA
ENDBRANCH  22  29
ENDBRANCH  21  25
ENDBRANCH  19  21
ENDBRANCH  17  19
ENDBRANCH  16  17
ENDBRANCH   1  16
TORSDOF 10
ENDMDL
MODEL 4
REMARK VINA RESULT:      -2.5      2.561      7.460
REMARK  Name = *****
REMARK                            x       y       z     vdW  Elec       q    Type
REMARK                         _______ _______ _______ _____ _____    ______ ____
ROOT
ATOM      1  C   LIG    1       25.685 -17.631   3.527  0.00  0.00    +0.158 C 
ENDROOT
BRANCH   1   2
ATOM      2  C   LIG    1       26.394 -16.296   3.469  0.00  0.00    -0.016 A 
ATOM      3  C   LIG    1       25.768 -15.170   2.907  0.00  0.00    +0.033 A 
ATOM      4  C   LIG    1       26.367 -13.912   2.894  0.00  0.00    +0.075 A 
ATOM      5  C   LIG    1       27.627 -13.767   3.470  0.00  0.00    +0.138 A 
ATOM      6  C   LIG    1       28.280 -14.872   4.027  0.00  0.00    +0.048 A 
ATOM      7  C   LIG    1       27.661 -16.129   4.039  0.00  0.00    +0.010 A 
BRANCH   4   8
ATOM      8  N   LIG    1       25.549 -12.816   2.563  0.00  0.00    -0.285 N 
ATOM      9  H   LIG    1       25.836 -12.255   1.786  0.00  0.00    +0.155 HD
ATOM     10  C   LIG    1       24.247 -12.578   2.960  0.00  0.00    +0.330 C 
ATOM     11  O   LIG    1       23.589 -11.644   2.567  0.00  0.00    -0.279 OA
ENDBRANCH   4   8
BRANCH   5  12
ATOM     12  O   LIG    1       28.195 -12.527   3.533  0.00  0.00    -0.505 OA
ATOM     13  H   LIG    1       27.720 -11.944   2.917  0.00  0.00    +0.292 HD
ENDBRANCH   5  12
ENDBRANCH   1   2
BRANCH   1  14
ATOM     14  O   LIG    1       26.088 -18.367   2.365  0.00  0.00    -0.386 OA
ATOM     15  H   LIG    1       26.423 -17.724   1.717  0.00  0.00    +0.210 HD
ENDBRANCH   1  14
BRANCH   1  16
ATOM     16  C   LIG    1       25.994 -18.505   4.777  0.00  0.00    +0.117 C 
BRANCH  16  17
ATOM     17  N   LIG    1       27.242 -19.291   4.772  0.00  0.00    -0.310 NA
ATOM     18  H   LIG    1       27.115 -20.056   4.106  0.00  0.00    +0.122 HD
BRANCH  17  19
ATOM     19  C   LIG    1       27.679 -19.864   6.063  0.00  0.00    +0.055 C 
ATOM     20  C   LIG    1       29.129 -20.386   6.032  0.00  0.00    +0.024 C 
BRANCH  19  21
ATOM     21  C   LIG    1       26.850 -21.082   6.553  0.00  0.00    +0.053 C 
BRANCH  21  25
ATOM     22  C   LIG    1       22.714 -21.190   5.384  0.00  0.00    +0.120 A 
ATOM     23  C   LIG    1       23.081 -20.816   6.675  0.00  0.00    +0.046 A 
ATOM     24  C   LIG    1       24.414 -20.796   7.053  0.00  0.00    +0.007 A 
ATOM     25  C   LIG    1       25.407 -21.198   6.163  0.00  0.00    -0.046 A 
ATOM     26  C   LIG    1       25.043 -21.572   4.860  0.00  0.00    +0.007 A 
ATOM     27  C   LIG    1       23.702 -21.547   4.467  0.00  0.00    +0.046 A 
BRANCH  22  29
ATOM     28  C   LIG    1       21.063 -20.007   4.214  0.00  0.00    +0.277 C 
ATOM     29  O   LIG    1       21.420 -21.186   4.936  0.00  0.00    -0.495 OA
ENDBRANCH  22  29
ENDBRANCH  21  25
ENDBRANCH  19  21
ENDBRANCH  17  19
ENDBRANCH  16  17
ENDBRANCH   1  16
TORSDOF 10
ENDMDL
MODEL 5
REMARK VINA RESULT:      -2.2      1.879      3.937
REMARK  Name = *****
REMARK                            x       y       z     vdW  Elec       q    Type
REMARK                         _______ _______ _______ _____ _____    ______ ____
ROOT
ATOM      1  C   LIG    1       22.377 -15.960   4.540  0.00  0.00    +0.158 C 
ENDROOT
BRANCH   1   2
ATOM      2  C   LIG    1       22.604 -17.449   4.397  0.00  0.00    -0.016 A 
ATOM      3  C   LIG    1       23.904 -17.984   4.401  0.00  0.00    +0.033 A 
ATOM      4  C   LIG    1       24.147 -19.355   4.336  0.00  0.00    +0.075 A 
ATOM      5  C   LIG    1       23.059 -20.223   4.275  0.00  0.00    +0.138 A 
ATOM      6  C   LIG    1       21.754 -19.719   4.259  0.00  0.00    +0.048 A 
ATOM      7  C   LIG    1       21.526 -18.339   4.333  0.00  0.00    +0.010 A 
BRANCH   4   8
ATOM      8  N   LIG    1       25.454 -19.789   4.624  0.00  0.00    -0.285 N 
ATOM      9  H   LIG    1       26.196 -19.374   4.096  0.00  0.00    +0.155 HD
ATOM     10  C   LIG    1       25.893 -20.478   5.739  0.00  0.00    +0.330 C 
ATOM     11  O   LIG    1       27.053 -20.748   5.942  0.00  0.00    -0.279 OA
ENDBRANCH   4   8
BRANCH   5  12
ATOM     12  O   LIG    1       23.278 -21.571   4.286  0.00  0.00    -0.505 OA
ATOM     13  H   LIG    1       22.420 -22.019   4.193  0.00  0.00    +0.292 HD
ENDBRANCH   5  12
ENDBRANCH   1   2
BRANCH   1  14
ATOM     14  O   LIG    1       21.925 -15.736   5.882  0.00  0.00    -0.386 OA
ATOM     15  H   LIG    1       20.979 -15.962   5.910  0.00  0.00    +0.210 HD
ENDBRANCH   1  14
BRANCH   1  16
ATOM     16  C   LIG    1       23.626 -15.062   4.301  0.00  0.00    +0.117 C 
BRANCH  16  17
ATOM     17  N   LIG    1       23.501 -13.960   3.327  0.00  0.00    -0.310 NA
ATOM     18  H   LIG    1       23.617 -14.365   2.396  0.00  0.00    +0.122 HD
BRANCH  17  19
ATOM     19  C   LIG    1       24.448 -12.833   3.467  0.00  0.00    +0.055 C 
ATOM     20  C   LIG    1       24.015 -11.582   2.677  0.00  0.00    +0.024 C 
BRANCH  19  21
ATOM     21  C   LIG    1       25.887 -13.119   2.962  0.00  0.00    +0.053 C 
BRANCH  21  25
ATOM     22  C   LIG    1       27.637 -16.864   4.146  0.00  0.00    +0.120 A 
ATOM     23  C   LIG    1       28.068 -15.665   4.709  0.00  0.00    +0.046 A 
ATOM     24  C   LIG    1       27.513 -14.458   4.314  0.00  0.00    +0.007 A 
ATOM     25  C   LIG    1       26.547 -14.419   3.312  0.00  0.00    -0.046 A 
ATOM     26  C   LIG    1       26.106 -15.624   2.744  0.00  0.00    +0.007 A 
ATOM     27  C   LIG    1       26.635 -16.844   3.175  0.00  0.00    +0.046 A 
BRANCH  22  29
ATOM     28  C   LIG    1       29.258 -18.028   5.375  0.00  0.00    +0.277 C 
ATOM     29  O   LIG    1       28.113 -18.091   4.524  0.00  0.00    -0.495 OA
ENDBRANCH  22  29
ENDBRANCH  21  25
ENDBRANCH  19  21
ENDBRANCH  17  19
ENDBRANCH  16  17
ENDBRANCH   1  16
TORSDOF 10
ENDMDL
