MODEL 1
REMARK VINA RESULT:      -8.4      0.000      0.000
REMARK  Name = *****
REMARK                            x       y       z     vdW  Elec       q    Type
REMARK                         _______ _______ _______ _____ _____    ______ ____
ROOT
ATOM      1  C   LIG    1       24.822 -25.523   4.957  0.00  0.00    -0.025 A 
ATOM      2  C   LIG    1       24.038 -26.035   5.997  0.00  0.00    +0.008 A 
ATOM      3  C   LIG    1       24.294 -27.313   6.520  0.00  0.00    +0.008 A 
ATOM      4  C   LIG    1       25.334 -28.096   6.004  0.00  0.00    -0.025 A 
ATOM      5  C   LIG    1       26.126 -27.577   4.976  0.00  0.00    +0.008 A 
ATOM      6  C   LIG    1       25.871 -26.299   4.457  0.00  0.00    +0.008 A 
ENDROOT
BRANCH   1  12
ATOM      7  C   LIG    1       23.002 -19.622   5.109  0.00  0.00    +0.012 C 
ATOM      8  C   LIG    1       23.514 -21.036   5.447  0.00  0.00    -0.014 C 
ATOM      9  C   LIG    1       24.776 -21.114   6.375  0.00  0.00    +0.061 C 
ATOM     10  C   LIG    1       25.177 -22.590   6.188  0.00  0.00    +0.168 C 
ATOM     11  C   LIG    1       24.683 -23.015   4.835  0.00  0.00    -0.000 C 
ATOM     12  C   LIG    1       24.497 -24.239   4.324  0.00  0.00    +0.015 C 
ATOM     13  O   LIG    1       25.893 -23.245   6.923  0.00  0.00    -0.292 OA
ATOM     14  C   LIG    1       25.873 -20.398   5.544  0.00  0.00    +0.018 C 
ATOM     15  C   LIG    1       25.516 -20.793   4.087  0.00  0.00    +0.010 C 
ATOM     16  C   LIG    1       24.256 -21.684   4.241  0.00  0.00    +0.029 C 
ATOM     17  C   LIG    1       22.285 -21.867   5.883  0.00  0.00    +0.012 C 
BRANCH   9  18
ATOM     18  C   LIG    1       24.687 -20.779   7.857  0.00  0.00    +0.213 C 
BRANCH  18  19
ATOM     19  S   LIG    1       26.237 -20.623   8.730  0.00  0.00    +0.081 S 
ATOM     20  O   LIG    1       26.056 -19.911   9.966  0.00  0.00    -0.147 OA
ATOM     21  O   LIG    1       27.318 -20.324   7.812  0.00  0.00    -0.147 OA
BRANCH  19  22
ATOM     22  O   LIG    1       26.443 -22.176   9.113  0.00  0.00    -0.254 OA
ATOM     23  H   LIG    1       27.406 -22.369   9.078  0.00  0.00    +0.244 HD
ENDBRANCH  19  22
ENDBRANCH  18  19
ENDBRANCH   9  18
ENDBRANCH   1  12
BRANCH   4  24
ATOM     24  C   LIG    1       25.572 -29.451   6.513  0.00  0.00    +0.015 C 
ATOM     25  C   LIG    1       25.710 -29.744   7.810  0.00  0.00    -0.000 C 
ATOM     26  C   LIG    1       25.643 -28.896   9.059  0.00  0.00    +0.029 C 
ATOM     27  C   LIG    1       24.802 -29.800  10.016  0.00  0.00    -0.014 C 
ATOM     28  C   LIG    1       23.376 -30.060   9.474  0.00  0.00    +0.012 C 
ATOM     29  C   LIG    1       24.651 -29.156  11.405  0.00  0.00    +0.012 C 
ATOM     30  C   LIG    1       25.801 -31.003   9.910  0.00  0.00    +0.061 C 
ATOM     31  C   LIG    1       27.182 -30.370  10.238  0.00  0.00    +0.018 C 
ATOM     32  C   LIG    1       27.051 -28.924   9.699  0.00  0.00    +0.010 C 
ATOM     33  C   LIG    1       25.874 -31.127   8.379  0.00  0.00    +0.168 C 
ATOM     34  O   LIG    1       26.081 -32.139   7.733  0.00  0.00    -0.292 OA
BRANCH  30  35
ATOM     35  C   LIG    1       25.508 -32.352  10.550  0.00  0.00    +0.213 C 
BRANCH  35  36
ATOM     36  S   LIG    1       25.319 -32.363  12.327  0.00  0.00    +0.081 S 
ATOM     37  O   LIG    1       23.922 -32.435  12.686  0.00  0.00    -0.147 OA
ATOM     38  O   LIG    1       26.229 -31.435  12.951  0.00  0.00    -0.147 OA
BRANCH  36  39
ATOM     39  O   LIG    1       25.947 -33.819  12.620  0.00  0.00    -0.254 OA
ATOM     40  H   LIG    1       26.801 -33.685  13.085  0.00  0.00    +0.244 HD
ENDBRANCH  36  39
ENDBRANCH  35  36
ENDBRANCH  30  35
ENDBRANCH   4  24
TORSDOF 8
ENDMDL
MODEL 2
REMARK VINA RESULT:      -8.1      2.830     10.411
REMARK  Name = *****
REMARK                            x       y       z     vdW  Elec       q    Type
REMARK                         _______ _______ _______ _____ _____    ______ ____
ROOT
ATOM      1  C   LIG    1       25.540 -28.963   7.626  0.00  0.00    -0.025 A 
ATOM      2  C   LIG    1       26.213 -27.782   7.963  0.00  0.00    +0.008 A 
ATOM      3  C   LIG    1       26.040 -26.619   7.196  0.00  0.00    +0.008 A 
ATOM      4  C   LIG    1       25.195 -26.623   6.079  0.00  0.00    -0.025 A 
ATOM      5  C   LIG    1       24.511 -27.798   5.753  0.00  0.00    +0.008 A 
ATOM      6  C   LIG    1       24.683 -28.958   6.522  0.00  0.00    +0.008 A 
ENDROOT
BRANCH   1  12
ATOM      7  C   LIG    1       24.900 -32.751  12.462  0.00  0.00    +0.012 C 
ATOM      8  C   LIG    1       24.752 -31.634  11.410  0.00  0.00    -0.014 C 
ATOM      9  C   LIG    1       23.296 -31.351  10.900  0.00  0.00    +0.061 C 
ATOM     10  C   LIG    1       23.592 -30.479   9.663  0.00  0.00    +0.168 C 
ATOM     11  C   LIG    1       24.960 -30.859   9.172  0.00  0.00    -0.000 C 
ATOM     12  C   LIG    1       25.796 -30.215   8.347  0.00  0.00    +0.015 C 
ATOM     13  O   LIG    1       22.812 -29.737   9.096  0.00  0.00    -0.292 OA
ATOM     14  C   LIG    1       22.887 -32.689  10.231  0.00  0.00    +0.018 C 
ATOM     15  C   LIG    1       24.221 -33.192   9.620  0.00  0.00    +0.010 C 
ATOM     16  C   LIG    1       25.246 -32.095  10.007  0.00  0.00    +0.029 C 
ATOM     17  C   LIG    1       25.550 -30.417  11.932  0.00  0.00    +0.012 C 
BRANCH   9  18
ATOM     18  C   LIG    1       22.269 -30.666  11.789  0.00  0.00    +0.213 C 
BRANCH  18  19
ATOM     19  S   LIG    1       20.567 -31.152  11.554  0.00  0.00    +0.081 S 
ATOM     20  O   LIG    1       20.282 -32.371  12.263  0.00  0.00    -0.147 OA
ATOM     21  O   LIG    1       20.154 -30.937  10.181  0.00  0.00    -0.147 OA
BRANCH  19  22
ATOM     22  O   LIG    1       19.869 -29.957  12.383  0.00  0.00    -0.254 OA
ATOM     23  H   LIG    1       20.487 -29.194  12.386  0.00  0.00    +0.244 HD
ENDBRANCH  19  22
ENDBRANCH  18  19
ENDBRANCH   9  18
ENDBRANCH   1  12
BRANCH   4  24
ATOM     24  C   LIG    1       25.051 -25.425   5.247  0.00  0.00    +0.015 C 
ATOM     25  C   LIG    1       24.713 -24.223   5.726  0.00  0.00    -0.000 C 
ATOM     26  C   LIG    1       24.430 -23.727   7.124  0.00  0.00    +0.029 C 
ATOM     27  C   LIG    1       25.191 -22.363   7.142  0.00  0.00    -0.014 C 
ATOM     28  C   LIG    1       26.715 -22.539   6.940  0.00  0.00    +0.012 C 
ATOM     29  C   LIG    1       24.990 -21.627   8.478  0.00  0.00    +0.012 C 
ATOM     30  C   LIG    1       24.401 -21.800   5.910  0.00  0.00    +0.061 C 
ATOM     31  C   LIG    1       22.911 -22.014   6.294  0.00  0.00    +0.018 C 
ATOM     32  C   LIG    1       22.944 -23.299   7.158  0.00  0.00    +0.010 C 
ATOM     33  C   LIG    1       24.634 -22.954   4.921  0.00  0.00    +0.168 C 
ATOM     34  O   LIG    1       24.691 -22.881   3.707  0.00  0.00    -0.292 OA
BRANCH  30  35
ATOM     35  C   LIG    1       24.749 -20.463   5.274  0.00  0.00    +0.213 C 
BRANCH  35  36
ATOM     36  S   LIG    1       23.446 -19.661   4.350  0.00  0.00    +0.081 S 
ATOM     37  O   LIG    1       22.474 -19.080   5.247  0.00  0.00    -0.147 OA
ATOM     38  O   LIG    1       23.064 -20.448   3.203  0.00  0.00    -0.147 OA
BRANCH  36  39
ATOM     39  O   LIG    1       24.306 -18.438   3.745  0.00  0.00    -0.254 OA
ATOM     40  H   LIG    1       25.087 -18.310   4.326  0.00  0.00    +0.244 HD
ENDBRANCH  36  39
ENDBRANCH  35  36
ENDBRANCH  30  35
ENDBRANCH   4  24
TORSDOF 8
ENDMDL
MODEL 3
REMARK VINA RESULT:      -7.8      1.440      1.685
REMARK  Name = *****
REMARK                            x       y       z     vdW  Elec       q    Type
REMARK                         _______ _______ _______ _____ _____    ______ ____
ROOT
ATOM      1  C   LIG    1       24.660 -25.819   6.168  0.00  0.00    -0.025 A 
ATOM      2  C   LIG    1       25.757 -25.732   7.035  0.00  0.00    +0.008 A 
ATOM      3  C   LIG    1       26.258 -26.881   7.667  0.00  0.00    +0.008 A 
ATOM      4  C   LIG    1       25.665 -28.130   7.446  0.00  0.00    -0.025 A 
ATOM      5  C   LIG    1       24.581 -28.218   6.568  0.00  0.00    +0.008 A 
ATOM      6  C   LIG    1       24.083 -27.070   5.934  0.00  0.00    +0.008 A 
ENDROOT
BRANCH   1  12
ATOM      7  C   LIG    1       23.198 -19.819   6.244  0.00  0.00    +0.012 C 
ATOM      8  C   LIG    1       23.809 -21.210   6.502  0.00  0.00    -0.014 C 
ATOM      9  C   LIG    1       25.370 -21.267   6.644  0.00  0.00    +0.061 C 
ATOM     10  C   LIG    1       25.612 -22.784   6.527  0.00  0.00    +0.168 C 
ATOM     11  C   LIG    1       24.482 -23.351   5.717  0.00  0.00    -0.000 C 
ATOM     12  C   LIG    1       24.055 -24.614   5.589  0.00  0.00    +0.015 C 
ATOM     13  O   LIG    1       26.606 -23.389   6.886  0.00  0.00    -0.292 OA
ATOM     14  C   LIG    1       25.871 -20.777   5.259  0.00  0.00    +0.018 C 
ATOM     15  C   LIG    1       24.803 -21.342   4.286  0.00  0.00    +0.010 C 
ATOM     16  C   LIG    1       23.809 -22.086   5.214  0.00  0.00    +0.029 C 
ATOM     17  C   LIG    1       22.989 -21.857   7.641  0.00  0.00    +0.012 C 
BRANCH   9  18
ATOM     18  C   LIG    1       26.070 -20.718   7.878  0.00  0.00    +0.213 C 
BRANCH  18  19
ATOM     19  S   LIG    1       27.826 -20.429   7.733  0.00  0.00    +0.081 S 
ATOM     20  O   LIG    1       28.242 -19.365   8.607  0.00  0.00    -0.147 OA
ATOM     21  O   LIG    1       28.248 -20.507   6.348  0.00  0.00    -0.147 OA
BRANCH  19  22
ATOM     22  O   LIG    1       28.342 -21.806   8.396  0.00  0.00    -0.254 OA
ATOM     23  H   LIG    1       29.167 -21.609   8.891  0.00  0.00    +0.244 HD
ENDBRANCH  19  22
ENDBRANCH  18  19
ENDBRANCH   9  18
ENDBRANCH   1  12
BRANCH   4  24
ATOM     24  C   LIG    1       26.154 -29.324   8.143  0.00  0.00    +0.015 C 
ATOM     25  C   LIG    1       25.888 -29.598   9.424  0.00  0.00    -0.000 C 
ATOM     26  C   LIG    1       25.063 -28.883  10.469  0.00  0.00    +0.029 C 
ATOM     27  C   LIG    1       24.299 -30.068  11.142  0.00  0.00    -0.014 C 
ATOM     28  C   LIG    1       23.371 -30.807  10.148  0.00  0.00    +0.012 C 
ATOM     29  C   LIG    1       23.422 -29.578  12.307  0.00  0.00    +0.012 C 
ATOM     30  C   LIG    1       25.618 -30.819  11.531  0.00  0.00    +0.061 C 
ATOM     31  C   LIG    1       26.457 -29.742  12.271  0.00  0.00    +0.018 C 
ATOM     32  C   LIG    1       26.039 -28.422  11.575  0.00  0.00    +0.010 C 
ATOM     33  C   LIG    1       26.300 -30.848  10.152  0.00  0.00    +0.168 C 
ATOM     34  O   LIG    1       27.075 -31.689   9.734  0.00  0.00    -0.292 OA
BRANCH  30  35
ATOM     35  C   LIG    1       25.600 -32.207  12.155  0.00  0.00    +0.213 C 
BRANCH  35  36
ATOM     36  S   LIG    1       25.806 -32.281  13.929  0.00  0.00    +0.081 S 
ATOM     37  O   LIG    1       24.797 -31.486  14.589  0.00  0.00    -0.147 OA
ATOM     38  O   LIG    1       27.200 -32.216  14.292  0.00  0.00    -0.147 OA
BRANCH  36  39
ATOM     39  O   LIG    1       25.393 -33.825  14.147  0.00  0.00    -0.254 OA
ATOM     40  H   LIG    1       25.464 -34.276  13.278  0.00  0.00    +0.244 HD
ENDBRANCH  36  39
ENDBRANCH  35  36
ENDBRANCH  30  35
ENDBRANCH   4  24
TORSDOF 8
ENDMDL
MODEL 4
REMARK VINA RESULT:      -6.8      2.631     10.139
REMARK  Name = *****
REMARK                            x       y       z     vdW  Elec       q    Type
REMARK                         _______ _______ _______ _____ _____    ______ ____
ROOT
ATOM      1  C   LIG    1       25.566 -29.040   7.637  0.00  0.00    -0.025 A 
ATOM      2  C   LIG    1       26.227 -27.853   7.975  0.00  0.00    +0.008 A 
ATOM      3  C   LIG    1       26.041 -26.691   7.209  0.00  0.00    +0.008 A 
ATOM      4  C   LIG    1       25.196 -26.702   6.093  0.00  0.00    -0.025 A 
ATOM      5  C   LIG    1       24.524 -27.884   5.766  0.00  0.00    +0.008 A 
ATOM      6  C   LIG    1       24.708 -29.043   6.534  0.00  0.00    +0.008 A 
ENDROOT
BRANCH   1  12
ATOM      7  C   LIG    1       25.062 -32.793  12.516  0.00  0.00    +0.012 C 
ATOM      8  C   LIG    1       24.888 -31.681  11.463  0.00  0.00    -0.014 C 
ATOM      9  C   LIG    1       23.417 -31.386  11.003  0.00  0.00    +0.061 C 
ATOM     10  C   LIG    1       23.678 -30.525   9.751  0.00  0.00    +0.168 C 
ATOM     11  C   LIG    1       25.023 -30.922   9.214  0.00  0.00    -0.000 C 
ATOM     12  C   LIG    1       25.836 -30.290   8.357  0.00  0.00    +0.015 C 
ATOM     13  O   LIG    1       22.884 -29.779   9.207  0.00  0.00    -0.292 OA
ATOM     14  C   LIG    1       22.972 -32.725  10.357  0.00  0.00    +0.018 C 
ATOM     15  C   LIG    1       24.279 -33.244   9.703  0.00  0.00    +0.010 C 
ATOM     16  C   LIG    1       25.327 -32.155  10.047  0.00  0.00    +0.029 C 
ATOM     17  C   LIG    1       25.714 -30.468  11.950  0.00  0.00    +0.012 C 
BRANCH   9  18
ATOM     18  C   LIG    1       22.428 -30.687  11.923  0.00  0.00    +0.213 C 
BRANCH  18  19
ATOM     19  S   LIG    1       23.099 -29.439  13.009  0.00  0.00    +0.081 S 
ATOM     20  O   LIG    1       23.798 -28.432  12.257  0.00  0.00    -0.147 OA
ATOM     21  O   LIG    1       23.654 -30.041  14.205  0.00  0.00    -0.147 OA
BRANCH  19  22
ATOM     22  O   LIG    1       21.708 -28.779  13.489  0.00  0.00    -0.254 OA
ATOM     23  H   LIG    1       21.145 -29.498  13.854  0.00  0.00    +0.244 HD
ENDBRANCH  19  22
ENDBRANCH  18  19
ENDBRANCH   9  18
ENDBRANCH   1  12
BRANCH   4  24
ATOM     24  C   LIG    1       25.039 -25.505   5.262  0.00  0.00    +0.015 C 
ATOM     25  C   LIG    1       24.716 -24.301   5.746  0.00  0.00    -0.000 C 
ATOM     26  C   LIG    1       24.465 -23.801   7.150  0.00  0.00    +0.029 C 
ATOM     27  C   LIG    1       25.232 -22.440   7.148  0.00  0.00    -0.014 C 
ATOM     28  C   LIG    1       26.751 -22.624   6.914  0.00  0.00    +0.012 C 
ATOM     29  C   LIG    1       25.063 -21.702   8.487  0.00  0.00    +0.012 C 
ATOM     30  C   LIG    1       24.418 -21.876   5.933  0.00  0.00    +0.061 C 
ATOM     31  C   LIG    1       22.936 -22.083   6.349  0.00  0.00    +0.018 C 
ATOM     32  C   LIG    1       22.983 -23.368   7.215  0.00  0.00    +0.010 C 
ATOM     33  C   LIG    1       24.625 -23.033   4.941  0.00  0.00    +0.168 C 
ATOM     34  O   LIG    1       24.656 -22.962   3.726  0.00  0.00    -0.292 OA
BRANCH  30  35
ATOM     35  C   LIG    1       24.758 -20.541   5.287  0.00  0.00    +0.213 C 
BRANCH  35  36
ATOM     36  S   LIG    1       23.439 -19.737   4.388  0.00  0.00    +0.081 S 
ATOM     37  O   LIG    1       22.498 -19.134   5.302  0.00  0.00    -0.147 OA
ATOM     38  O   LIG    1       23.018 -20.535   3.262  0.00  0.00    -0.147 OA
BRANCH  36  39
ATOM     39  O   LIG    1       24.295 -18.532   3.744  0.00  0.00    -0.254 OA
ATOM     40  H   LIG    1       23.659 -17.871   3.393  0.00  0.00    +0.244 HD
ENDBRANCH  36  39
ENDBRANCH  35  36
ENDBRANCH  30  35
ENDBRANCH   4  24
TORSDOF 8
ENDMDL
MODEL 5
REMARK VINA RESULT:      -6.8      2.754     10.171
REMARK  Name = *****
REMARK                            x       y       z     vdW  Elec       q    Type
REMARK                         _______ _______ _______ _____ _____    ______ ____
ROOT
ATOM      1  C   LIG    1       25.861 -29.213   7.105  0.00  0.00    -0.025 A 
ATOM      2  C   LIG    1       25.294 -29.240   5.825  0.00  0.00    +0.008 A 
ATOM      3  C   LIG    1       25.080 -28.047   5.115  0.00  0.00    +0.008 A 
ATOM      4  C   LIG    1       25.426 -26.813   5.678  0.00  0.00    -0.025 A 
ATOM      5  C   LIG    1       26.008 -26.789   6.949  0.00  0.00    +0.008 A 
ATOM      6  C   LIG    1       26.223 -27.981   7.656  0.00  0.00    +0.008 A 
ENDROOT
BRANCH   1  12
ATOM      7  C   LIG    1       24.943 -32.560  12.213  0.00  0.00    +0.012 C 
ATOM      8  C   LIG    1       24.895 -31.506  11.091  0.00  0.00    -0.014 C 
ATOM      9  C   LIG    1       23.467 -31.073  10.606  0.00  0.00    +0.061 C 
ATOM     10  C   LIG    1       23.821 -30.330   9.303  0.00  0.00    +0.168 C 
ATOM     11  C   LIG    1       25.109 -30.914   8.798  0.00  0.00    -0.000 C 
ATOM     12  C   LIG    1       25.986 -30.437   7.904  0.00  0.00    +0.015 C 
ATOM     13  O   LIG    1       23.118 -29.534   8.709  0.00  0.00    -0.292 OA
ATOM     14  C   LIG    1       22.867 -32.389  10.047  0.00  0.00    +0.018 C 
ATOM     15  C   LIG    1       24.102 -33.098   9.432  0.00  0.00    +0.010 C 
ATOM     16  C   LIG    1       25.271 -32.118   9.709  0.00  0.00    +0.029 C 
ATOM     17  C   LIG    1       25.859 -30.368  11.501  0.00  0.00    +0.012 C 
BRANCH   9  18
ATOM     18  C   LIG    1       22.569 -30.205  11.476  0.00  0.00    +0.213 C 
BRANCH  18  19
ATOM     19  S   LIG    1       20.837 -30.636  11.506  0.00  0.00    +0.081 S 
ATOM     20  O   LIG    1       20.338 -30.836  10.172  0.00  0.00    -0.147 OA
ATOM     21  O   LIG    1       20.126 -29.845  12.491  0.00  0.00    -0.147 OA
BRANCH  19  22
ATOM     22  O   LIG    1       20.974 -32.097  12.176  0.00  0.00    -0.254 OA
ATOM     23  H   LIG    1       20.500 -32.078  13.036  0.00  0.00    +0.244 HD
ENDBRANCH  19  22
ENDBRANCH  18  19
ENDBRANCH   9  18
ENDBRANCH   1  12
BRANCH   4  24
ATOM     24  C   LIG    1       25.159 -25.563   4.960  0.00  0.00    +0.015 C 
ATOM     25  C   LIG    1       24.757 -24.435   5.556  0.00  0.00    -0.000 C 
ATOM     26  C   LIG    1       24.502 -24.082   7.002  0.00  0.00    +0.029 C 
ATOM     27  C   LIG    1       25.164 -22.670   7.110  0.00  0.00    -0.014 C 
ATOM     28  C   LIG    1       26.686 -22.714   6.836  0.00  0.00    +0.012 C 
ATOM     29  C   LIG    1       24.970 -22.068   8.513  0.00  0.00    +0.012 C 
ATOM     30  C   LIG    1       24.281 -22.067   5.964  0.00  0.00    +0.061 C 
ATOM     31  C   LIG    1       22.829 -22.424   6.384  0.00  0.00    +0.018 C 
ATOM     32  C   LIG    1       22.993 -23.772   7.131  0.00  0.00    +0.010 C 
ATOM     33  C   LIG    1       24.552 -23.112   4.869  0.00  0.00    +0.168 C 
ATOM     34  O   LIG    1       24.549 -22.932   3.665  0.00  0.00    -0.292 OA
BRANCH  30  35
ATOM     35  C   LIG    1       24.503 -20.658   5.435  0.00  0.00    +0.213 C 
BRANCH  35  36
ATOM     36  S   LIG    1       23.071 -19.831   4.757  0.00  0.00    +0.081 S 
ATOM     37  O   LIG    1       22.469 -18.968   5.746  0.00  0.00    -0.147 OA
ATOM     38  O   LIG    1       22.293 -20.729   3.939  0.00  0.00    -0.147 OA
BRANCH  36  39
ATOM     39  O   LIG    1       23.831 -18.870   3.708  0.00  0.00    -0.254 OA
ATOM     40  H   LIG    1       24.513 -18.368   4.206  0.00  0.00    +0.244 HD
ENDBRANCH  36  39
ENDBRANCH  35  36
ENDBRANCH  30  35
ENDBRANCH   4  24
TORSDOF 8
ENDMDL
MODEL 6
REMARK VINA RESULT:      -5.7      3.605     10.807
REMARK  Name = *****
REMARK                            x       y       z     vdW  Elec       q    Type
REMARK                         _______ _______ _______ _____ _____    ______ ____
ROOT
ATOM      1  C   LIG    1       25.844 -27.684   7.562  0.00  0.00    -0.025 A 
ATOM      2  C   LIG    1       26.901 -26.957   7.001  0.00  0.00    +0.008 A 
ATOM      3  C   LIG    1       26.647 -25.827   6.208  0.00  0.00    +0.008 A 
ATOM      4  C   LIG    1       25.333 -25.412   5.962  0.00  0.00    -0.025 A 
ATOM      5  C   LIG    1       24.279 -26.129   6.535  0.00  0.00    +0.008 A 
ATOM      6  C   LIG    1       24.534 -27.256   7.330  0.00  0.00    +0.008 A 
ENDROOT
BRANCH   1  12
ATOM      7  C   LIG    1       24.820 -33.660   8.742  0.00  0.00    +0.012 C 
ATOM      8  C   LIG    1       24.895 -32.252   8.118  0.00  0.00    -0.014 C 
ATOM      9  C   LIG    1       25.309 -32.184   6.606  0.00  0.00    +0.061 C 
ATOM     10  C   LIG    1       25.614 -30.681   6.462  0.00  0.00    +0.168 C 
ATOM     11  C   LIG    1       26.021 -30.179   7.818  0.00  0.00    -0.000 C 
ATOM     12  C   LIG    1       26.086 -28.930   8.298  0.00  0.00    +0.015 C 
ATOM     13  O   LIG    1       25.670 -30.049   5.422  0.00  0.00    -0.292 OA
ATOM     14  C   LIG    1       26.741 -32.782   6.603  0.00  0.00    +0.018 C 
ATOM     15  C   LIG    1       27.322 -32.295   7.957  0.00  0.00    +0.010 C 
ATOM     16  C   LIG    1       26.164 -31.481   8.588  0.00  0.00    +0.029 C 
ATOM     17  C   LIG    1       23.593 -31.517   8.510  0.00  0.00    +0.012 C 
BRANCH   9  18
ATOM     18  C   LIG    1       24.358 -32.634   5.507  0.00  0.00    +0.213 C 
BRANCH  18  19
ATOM     19  S   LIG    1       25.109 -33.200   3.990  0.00  0.00    +0.081 S 
ATOM     20  O   LIG    1       24.129 -33.808   3.131  0.00  0.00    -0.147 OA
ATOM     21  O   LIG    1       26.399 -33.809   4.249  0.00  0.00    -0.147 OA
BRANCH  19  22
ATOM     22  O   LIG    1       25.457 -31.760   3.353  0.00  0.00    -0.254 OA
ATOM     23  H   LIG    1       25.049 -31.073   3.925  0.00  0.00    +0.244 HD
ENDBRANCH  19  22
ENDBRANCH  18  19
ENDBRANCH   9  18
ENDBRANCH   1  12
BRANCH   4  24
ATOM     24  C   LIG    1       25.063 -24.262   5.093  0.00  0.00    +0.015 C 
ATOM     25  C   LIG    1       24.619 -23.082   5.539  0.00  0.00    -0.000 C 
ATOM     26  C   LIG    1       24.311 -22.567   6.926  0.00  0.00    +0.029 C 
ATOM     27  C   LIG    1       24.938 -21.137   6.885  0.00  0.00    -0.014 C 
ATOM     28  C   LIG    1       26.469 -21.175   6.662  0.00  0.00    +0.012 C 
ATOM     29  C   LIG    1       24.688 -20.379   8.200  0.00  0.00    +0.012 C 
ATOM     30  C   LIG    1       24.080 -20.694   5.650  0.00  0.00    +0.061 C 
ATOM     31  C   LIG    1       22.623 -21.035   6.067  0.00  0.00    +0.018 C 
ATOM     32  C   LIG    1       22.792 -22.281   6.972  0.00  0.00    +0.010 C 
ATOM     33  C   LIG    1       24.408 -21.854   4.695  0.00  0.00    +0.168 C 
ATOM     34  O   LIG    1       24.439 -21.817   3.478  0.00  0.00    -0.292 OA
BRANCH  30  35
ATOM     35  C   LIG    1       24.290 -19.353   4.964  0.00  0.00    +0.213 C 
BRANCH  35  36
ATOM     36  S   LIG    1       22.844 -18.606   4.224  0.00  0.00    +0.081 S 
ATOM     37  O   LIG    1       23.015 -17.177   4.110  0.00  0.00    -0.147 OA
ATOM     38  O   LIG    1       21.634 -19.201   4.737  0.00  0.00    -0.147 OA
BRANCH  36  39
ATOM     39  O   LIG    1       23.004 -19.211   2.738  0.00  0.00    -0.254 OA
ATOM     40  H   LIG    1       23.465 -20.074   2.817  0.00  0.00    +0.244 HD
ENDBRANCH  36  39
ENDBRANCH  35  36
ENDBRANCH  30  35
ENDBRANCH   4  24
TORSDOF 8
ENDMDL
