MODEL 1
REMARK VINA RESULT:      -8.6      0.000      0.000
REMARK  Name = *****
REMARK                            x       y       z     vdW  Elec       q    Type
REMARK                         _______ _______ _______ _____ _____    ______ ____
ROOT
ATOM      1  O   LIG    1       23.253 -24.562   6.512  0.00  0.00    -0.252 OA
ATOM      2  C   LIG    1       24.349 -24.461   5.984  0.00  0.00    +0.308 C 
ATOM      3  N   LIG    1       25.285 -25.485   5.897  0.00  0.00    -0.269 N 
ATOM      4  H   LIG    1       26.141 -25.270   5.410  0.00  0.00    +0.156 HD
ATOM      5  N   LIG    1       24.843 -23.309   5.383  0.00  0.00    -0.269 N 
ATOM      6  H   LIG    1       25.779 -23.356   5.015  0.00  0.00    +0.156 HD
ENDROOT
BRANCH   3   7
ATOM      7  C   LIG    1       25.163 -26.812   6.365  0.00  0.00    +0.036 A 
ATOM      8  C   LIG    1       25.896 -27.152   7.509  0.00  0.00    +0.044 A 
ATOM      9  C   LIG    1       25.864 -28.455   8.022  0.00  0.00    +0.061 A 
ATOM     10 CL   LIG    1       26.806 -28.783   9.434  0.00  0.00    -0.082 Cl
ATOM     11  C   LIG    1       25.092 -29.433   7.391  0.00  0.00    +0.059 A 
ATOM     12 CL   LIG    1       25.026 -31.066   7.948  0.00  0.00    -0.082 Cl
ATOM     13  C   LIG    1       24.344 -29.095   6.263  0.00  0.00    +0.023 A 
ATOM     14  C   LIG    1       24.377 -27.791   5.755  0.00  0.00    +0.025 A 
ENDBRANCH   3   7
BRANCH   5  15
ATOM     15  C   LIG    1       24.203 -22.059   5.254  0.00  0.00    +0.035 A 
ATOM     16  C   LIG    1       24.346 -21.395   4.027  0.00  0.00    +0.025 A 
ATOM     17  C   LIG    1       23.764 -20.141   3.818  0.00  0.00    +0.022 A 
ATOM     18  C   LIG    1       23.033 -19.542   4.839  0.00  0.00    +0.041 A 
ATOM     19 CL   LIG    1       22.333 -17.991   4.594  0.00  0.00    -0.084 Cl
ATOM     20  C   LIG    1       22.871 -20.193   6.057  0.00  0.00    +0.022 A 
ATOM     21  C   LIG    1       23.452 -21.451   6.263  0.00  0.00    +0.025 A 
ENDBRANCH   5  15
TORSDOF 2
ENDMDL
MODEL 2
REMARK VINA RESULT:      -8.4      0.148      1.114
REMARK  Name = *****
REMARK                            x       y       z     vdW  Elec       q    Type
REMARK                         _______ _______ _______ _____ _____    ______ ____
ROOT
ATOM      1  O   LIG    1       23.333 -24.567   6.407  0.00  0.00    -0.252 OA
ATOM      2  C   LIG    1       24.453 -24.494   5.928  0.00  0.00    +0.308 C 
ATOM      3  N   LIG    1       25.380 -25.531   5.916  0.00  0.00    -0.269 N 
ATOM      4  H   LIG    1       26.260 -25.340   5.463  0.00  0.00    +0.156 HD
ATOM      5  N   LIG    1       24.988 -23.367   5.316  0.00  0.00    -0.269 N 
ATOM      6  H   LIG    1       25.940 -23.435   4.994  0.00  0.00    +0.156 HD
ENDROOT
BRANCH   3   7
ATOM      7  C   LIG    1       25.220 -26.841   6.418  0.00  0.00    +0.036 A 
ATOM      8  C   LIG    1       25.951 -27.175   7.565  0.00  0.00    +0.044 A 
ATOM      9  C   LIG    1       25.882 -28.463   8.110  0.00  0.00    +0.061 A 
ATOM     10 CL   LIG    1       26.825 -28.786   9.523  0.00  0.00    -0.082 Cl
ATOM     11  C   LIG    1       25.075 -29.432   7.509  0.00  0.00    +0.059 A 
ATOM     12 CL   LIG    1       24.962 -31.048   8.107  0.00  0.00    -0.082 Cl
ATOM     13  C   LIG    1       24.329 -29.099   6.378  0.00  0.00    +0.023 A 
ATOM     14  C   LIG    1       24.398 -27.809   5.838  0.00  0.00    +0.025 A 
ENDBRANCH   3   7
BRANCH   5  15
ATOM     15  C   LIG    1       24.370 -22.114   5.119  0.00  0.00    +0.035 A 
ATOM     16  C   LIG    1       23.655 -21.582   6.202  0.00  0.00    +0.025 A 
ATOM     17  C   LIG    1       22.992 -20.356   6.090  0.00  0.00    +0.022 A 
ATOM     18  C   LIG    1       23.042 -19.653   4.890  0.00  0.00    +0.041 A 
ATOM     19 CL   LIG    1       22.210 -18.155   4.740  0.00  0.00    -0.084 Cl
ATOM     20  C   LIG    1       23.757 -20.162   3.811  0.00  0.00    +0.022 A 
ATOM     21  C   LIG    1       24.423 -21.388   3.927  0.00  0.00    +0.025 A 
ENDBRANCH   5  15
TORSDOF 2
ENDMDL
MODEL 3
REMARK VINA RESULT:      -8.4      1.421      8.434
REMARK  Name = *****
REMARK                            x       y       z     vdW  Elec       q    Type
REMARK                         _______ _______ _______ _____ _____    ______ ____
ROOT
ATOM      1  O   LIG    1       23.937 -23.152   6.433  0.00  0.00    -0.252 OA
ATOM      2  C   LIG    1       24.400 -23.366   5.325  0.00  0.00    +0.308 C 
ATOM      3  N   LIG    1       24.429 -22.444   4.284  0.00  0.00    -0.269 N 
ATOM      4  H   LIG    1       24.866 -22.748   3.428  0.00  0.00    +0.156 HD
ATOM      5  N   LIG    1       24.976 -24.564   4.918  0.00  0.00    -0.269 N 
ATOM      6  H   LIG    1       25.288 -24.616   3.963  0.00  0.00    +0.156 HD
ENDROOT
BRANCH   3   7
ATOM      7  C   LIG    1       23.964 -21.111   4.296  0.00  0.00    +0.036 A 
ATOM      8  C   LIG    1       24.844 -20.127   3.830  0.00  0.00    +0.044 A 
ATOM      9  C   LIG    1       24.480 -18.775   3.840  0.00  0.00    +0.061 A 
ATOM     10 CL   LIG    1       25.635 -17.630   3.252  0.00  0.00    -0.082 Cl
ATOM     11  C   LIG    1       23.224 -18.394   4.318  0.00  0.00    +0.059 A 
ATOM     12 CL   LIG    1       22.717 -16.745   4.388  0.00  0.00    -0.082 Cl
ATOM     13  C   LIG    1       22.336 -19.373   4.765  0.00  0.00    +0.023 A 
ATOM     14  C   LIG    1       22.702 -20.724   4.750  0.00  0.00    +0.025 A 
ENDBRANCH   3   7
BRANCH   5  15
ATOM     15  C   LIG    1       25.146 -25.743   5.675  0.00  0.00    +0.035 A 
ATOM     16  C   LIG    1       24.304 -26.822   5.369  0.00  0.00    +0.025 A 
ATOM     17  C   LIG    1       24.388 -28.021   6.084  0.00  0.00    +0.022 A 
ATOM     18  C   LIG    1       25.318 -28.147   7.111  0.00  0.00    +0.041 A 
ATOM     19 CL   LIG    1       25.410 -29.613   8.006  0.00  0.00    -0.084 Cl
ATOM     20  C   LIG    1       26.168 -27.091   7.418  0.00  0.00    +0.022 A 
ATOM     21  C   LIG    1       26.084 -25.892   6.699  0.00  0.00    +0.025 A 
ENDBRANCH   5  15
TORSDOF 2
ENDMDL
MODEL 4
REMARK VINA RESULT:      -8.4      6.397      7.762
REMARK  Name = *****
REMARK                            x       y       z     vdW  Elec       q    Type
REMARK                         _______ _______ _______ _____ _____    ______ ____
ROOT
ATOM      1  O   LIG    1       27.443 -20.032   8.709  0.00  0.00    -0.252 OA
ATOM      2  C   LIG    1       27.984 -20.214   7.630  0.00  0.00    +0.308 C 
ATOM      3  N   LIG    1       27.458 -20.985   6.599  0.00  0.00    -0.269 N 
ATOM      4  H   LIG    1       28.000 -21.029   5.751  0.00  0.00    +0.156 HD
ATOM      5  N   LIG    1       29.211 -19.683   7.252  0.00  0.00    -0.269 N 
ATOM      6  H   LIG    1       29.556 -19.943   6.343  0.00  0.00    +0.156 HD
ENDROOT
BRANCH   3   7
ATOM      7  C   LIG    1       26.227 -21.676   6.576  0.00  0.00    +0.036 A 
ATOM      8  C   LIG    1       25.106 -20.965   6.130  0.00  0.00    +0.044 A 
ATOM      9  C   LIG    1       23.839 -21.560   6.109  0.00  0.00    +0.061 A 
ATOM     10 CL   LIG    1       22.513 -20.602   5.549  0.00  0.00    -0.082 Cl
ATOM     11  C   LIG    1       23.682 -22.881   6.536  0.00  0.00    +0.059 A 
ATOM     12 CL   LIG    1       22.147 -23.671   6.566  0.00  0.00    -0.082 Cl
ATOM     13  C   LIG    1       24.798 -23.601   6.962  0.00  0.00    +0.023 A 
ATOM     14  C   LIG    1       26.064 -23.003   6.979  0.00  0.00    +0.025 A 
ENDBRANCH   3   7
BRANCH   5  15
ATOM     15  C   LIG    1       30.060 -18.845   8.006  0.00  0.00    +0.035 A 
ATOM     16  C   LIG    1       31.411 -18.806   7.630  0.00  0.00    +0.025 A 
ATOM     17  C   LIG    1       32.328 -18.020   8.334  0.00  0.00    +0.022 A 
ATOM     18  C   LIG    1       31.897 -17.267   9.422  0.00  0.00    +0.041 A 
ATOM     19 CL   LIG    1       33.025 -16.315  10.305  0.00  0.00    -0.084 Cl
ATOM     20  C   LIG    1       30.558 -17.286   9.799  0.00  0.00    +0.022 A 
ATOM     21  C   LIG    1       29.641 -18.071   9.090  0.00  0.00    +0.025 A 
ENDBRANCH   5  15
TORSDOF 2
ENDMDL
MODEL 5
REMARK VINA RESULT:      -8.2      1.290      2.246
REMARK  Name = *****
REMARK                            x       y       z     vdW  Elec       q    Type
REMARK                         _______ _______ _______ _____ _____    ______ ____
ROOT
ATOM      1  O   LIG    1       24.265 -23.172   6.568  0.00  0.00    -0.252 OA
ATOM      2  C   LIG    1       24.520 -23.456   5.409  0.00  0.00    +0.308 C 
ATOM      3  N   LIG    1       24.964 -24.701   4.976  0.00  0.00    -0.269 N 
ATOM      4  H   LIG    1       25.111 -24.805   3.985  0.00  0.00    +0.156 HD
ATOM      5  N   LIG    1       24.409 -22.587   4.330  0.00  0.00    -0.269 N 
ATOM      6  H   LIG    1       24.685 -22.944   3.431  0.00  0.00    +0.156 HD
ENDROOT
BRANCH   3   7
ATOM      7  C   LIG    1       25.186 -25.859   5.753  0.00  0.00    +0.036 A 
ATOM      8  C   LIG    1       24.442 -26.999   5.422  0.00  0.00    +0.044 A 
ATOM      9  C   LIG    1       24.572 -28.181   6.163  0.00  0.00    +0.061 A 
ATOM     10 CL   LIG    1       23.608 -29.534   5.685  0.00  0.00    -0.082 Cl
ATOM     11  C   LIG    1       25.452 -28.232   7.246  0.00  0.00    +0.059 A 
ATOM     12 CL   LIG    1       25.642 -29.643   8.223  0.00  0.00    -0.082 Cl
ATOM     13  C   LIG    1       26.210 -27.105   7.568  0.00  0.00    +0.023 A 
ATOM     14  C   LIG    1       26.080 -25.927   6.823  0.00  0.00    +0.025 A 
ENDBRANCH   3   7
BRANCH   5  15
ATOM     15  C   LIG    1       23.988 -21.240   4.345  0.00  0.00    +0.035 A 
ATOM     16  C   LIG    1       22.834 -20.944   5.086  0.00  0.00    +0.025 A 
ATOM     17  C   LIG    1       22.331 -19.641   5.138  0.00  0.00    +0.022 A 
ATOM     18  C   LIG    1       22.982 -18.623   4.447  0.00  0.00    +0.041 A 
ATOM     19 CL   LIG    1       22.356 -17.022   4.492  0.00  0.00    -0.084 Cl
ATOM     20  C   LIG    1       24.134 -18.899   3.719  0.00  0.00    +0.022 A 
ATOM     21  C   LIG    1       24.637 -20.204   3.670  0.00  0.00    +0.025 A 
ENDBRANCH   5  15
TORSDOF 2
ENDMDL
MODEL 6
REMARK VINA RESULT:      -8.1      1.484      8.232
REMARK  Name = *****
REMARK                            x       y       z     vdW  Elec       q    Type
REMARK                         _______ _______ _______ _____ _____    ______ ____
ROOT
ATOM      1  O   LIG    1       23.481 -25.604   6.100  0.00  0.00    -0.252 OA
ATOM      2  C   LIG    1       24.644 -25.330   6.350  0.00  0.00    +0.308 C 
ATOM      3  N   LIG    1       25.167 -24.043   6.380  0.00  0.00    -0.269 N 
ATOM      4  H   LIG    1       26.141 -23.960   6.627  0.00  0.00    +0.156 HD
ATOM      5  N   LIG    1       25.636 -26.257   6.646  0.00  0.00    -0.269 N 
ATOM      6  H   LIG    1       26.562 -25.895   6.800  0.00  0.00    +0.156 HD
ENDROOT
BRANCH   3   7
ATOM      7  C   LIG    1       24.487 -22.826   6.156  0.00  0.00    +0.036 A 
ATOM      8  C   LIG    1       24.648 -22.230   4.898  0.00  0.00    +0.044 A 
ATOM      9  C   LIG    1       24.040 -21.004   4.601  0.00  0.00    +0.061 A 
ATOM     10 CL   LIG    1       24.302 -20.342   3.026  0.00  0.00    -0.082 Cl
ATOM     11  C   LIG    1       23.259 -20.362   5.565  0.00  0.00    +0.059 A 
ATOM     12 CL   LIG    1       22.504 -18.835   5.281  0.00  0.00    -0.082 Cl
ATOM     13  C   LIG    1       23.079 -20.960   6.812  0.00  0.00    +0.023 A 
ATOM     14  C   LIG    1       23.686 -22.188   7.104  0.00  0.00    +0.025 A 
ENDBRANCH   3   7
BRANCH   5  15
ATOM     15  C   LIG    1       25.513 -27.661   6.724  0.00  0.00    +0.035 A 
ATOM     16  C   LIG    1       25.367 -28.354   5.514  0.00  0.00    +0.025 A 
ATOM     17  C   LIG    1       25.216 -29.744   5.498  0.00  0.00    +0.022 A 
ATOM     18  C   LIG    1       25.211 -30.450   6.697  0.00  0.00    +0.041 A 
ATOM     19 CL   LIG    1       25.005 -32.157   6.683  0.00  0.00    -0.084 Cl
ATOM     20  C   LIG    1       25.367 -29.778   7.904  0.00  0.00    +0.022 A 
ATOM     21  C   LIG    1       25.521 -28.387   7.918  0.00  0.00    +0.025 A 
ENDBRANCH   5  15
TORSDOF 2
ENDMDL
MODEL 7
REMARK VINA RESULT:      -8.1      0.928      1.721
REMARK  Name = *****
REMARK                            x       y       z     vdW  Elec       q    Type
REMARK                         _______ _______ _______ _____ _____    ______ ____
ROOT
ATOM      1  O   LIG    1       23.780 -23.891   6.781  0.00  0.00    -0.252 OA
ATOM      2  C   LIG    1       24.507 -23.962   5.803  0.00  0.00    +0.308 C 
ATOM      3  N   LIG    1       25.287 -25.064   5.472  0.00  0.00    -0.269 N 
ATOM      4  H   LIG    1       25.820 -24.996   4.620  0.00  0.00    +0.156 HD
ATOM      5  N   LIG    1       24.674 -22.956   4.858  0.00  0.00    -0.269 N 
ATOM      6  H   LIG    1       25.332 -23.136   4.118  0.00  0.00    +0.156 HD
ENDROOT
BRANCH   3   7
ATOM      7  C   LIG    1       25.385 -26.293   6.160  0.00  0.00    +0.036 A 
ATOM      8  C   LIG    1       24.608 -27.355   5.679  0.00  0.00    +0.044 A 
ATOM      9  C   LIG    1       24.616 -28.599   6.322  0.00  0.00    +0.061 A 
ATOM     10 CL   LIG    1       23.619 -29.847   5.662  0.00  0.00    -0.082 Cl
ATOM     11  C   LIG    1       25.406 -28.792   7.458  0.00  0.00    +0.059 A 
ATOM     12 CL   LIG    1       25.444 -30.288   8.320  0.00  0.00    -0.082 Cl
ATOM     13  C   LIG    1       26.198 -27.744   7.929  0.00  0.00    +0.023 A 
ATOM     14  C   LIG    1       26.190 -26.503   7.281  0.00  0.00    +0.025 A 
ENDBRANCH   3   7
BRANCH   5  15
ATOM     15  C   LIG    1       24.058 -21.688   4.827  0.00  0.00    +0.035 A 
ATOM     16  C   LIG    1       24.418 -20.832   3.776  0.00  0.00    +0.025 A 
ATOM     17  C   LIG    1       23.873 -19.548   3.679  0.00  0.00    +0.022 A 
ATOM     18  C   LIG    1       22.962 -19.111   4.636  0.00  0.00    +0.041 A 
ATOM     19 CL   LIG    1       22.306 -17.525   4.533  0.00  0.00    -0.084 Cl
ATOM     20  C   LIG    1       22.586 -19.953   5.678  0.00  0.00    +0.022 A 
ATOM     21  C   LIG    1       23.131 -21.239   5.771  0.00  0.00    +0.025 A 
ENDBRANCH   5  15
TORSDOF 2
ENDMDL
MODEL 8
REMARK VINA RESULT:      -7.9      6.521      7.615
REMARK  Name = *****
REMARK                            x       y       z     vdW  Elec       q    Type
REMARK                         _______ _______ _______ _____ _____    ______ ____
ROOT
ATOM      1  O   LIG    1       27.607 -19.990   8.850  0.00  0.00    -0.252 OA
ATOM      2  C   LIG    1       27.994 -20.033   7.694  0.00  0.00    +0.308 C 
ATOM      3  N   LIG    1       27.322 -20.668   6.655  0.00  0.00    -0.269 N 
ATOM      4  H   LIG    1       27.744 -20.603   5.742  0.00  0.00    +0.156 HD
ATOM      5  N   LIG    1       29.167 -19.456   7.222  0.00  0.00    -0.269 N 
ATOM      6  H   LIG    1       29.382 -19.597   6.249  0.00  0.00    +0.156 HD
ENDROOT
BRANCH   3   7
ATOM      7  C   LIG    1       26.090 -21.354   6.713  0.00  0.00    +0.036 A 
ATOM      8  C   LIG    1       26.141 -22.754   6.724  0.00  0.00    +0.044 A 
ATOM      9  C   LIG    1       24.966 -23.516   6.743  0.00  0.00    +0.061 A 
ATOM     10 CL   LIG    1       25.128 -25.237   6.748  0.00  0.00    -0.082 Cl
ATOM     11  C   LIG    1       23.723 -22.880   6.753  0.00  0.00    +0.059 A 
ATOM     12 CL   LIG    1       22.233 -23.752   6.747  0.00  0.00    -0.082 Cl
ATOM     13  C   LIG    1       23.666 -21.486   6.762  0.00  0.00    +0.023 A 
ATOM     14  C   LIG    1       24.843 -20.727   6.747  0.00  0.00    +0.025 A 
ENDBRANCH   3   7
BRANCH   5  15
ATOM     15  C   LIG    1       30.122 -18.718   7.953  0.00  0.00    +0.035 A 
ATOM     16  C   LIG    1       29.633 -17.840   8.932  0.00  0.00    +0.025 A 
ATOM     17  C   LIG    1       30.506 -17.053   9.689  0.00  0.00    +0.022 A 
ATOM     18  C   LIG    1       31.878 -17.140   9.471  0.00  0.00    +0.041 A 
ATOM     19 CL   LIG    1       32.954 -16.159  10.384  0.00  0.00    -0.084 Cl
ATOM     20  C   LIG    1       32.379 -18.015   8.512  0.00  0.00    +0.022 A 
ATOM     21  C   LIG    1       31.502 -18.805   7.758  0.00  0.00    +0.025 A 
ENDBRANCH   5  15
TORSDOF 2
ENDMDL
MODEL 9
REMARK VINA RESULT:      -7.6      2.757      3.486
REMARK  Name = *****
REMARK                            x       y       z     vdW  Elec       q    Type
REMARK                         _______ _______ _______ _____ _____    ______ ____
ROOT
ATOM      1  O   LIG    1       25.705 -27.085   7.141  0.00  0.00    -0.252 OA
ATOM      2  C   LIG    1       24.740 -27.049   6.395  0.00  0.00    +0.308 C 
ATOM      3  N   LIG    1       24.179 -28.157   5.769  0.00  0.00    -0.269 N 
ATOM      4  H   LIG    1       23.366 -27.986   5.198  0.00  0.00    +0.156 HD
ATOM      5  N   LIG    1       24.041 -25.899   6.048  0.00  0.00    -0.269 N 
ATOM      6  H   LIG    1       23.283 -26.010   5.394  0.00  0.00    +0.156 HD
ENDROOT
BRANCH   3   7
ATOM      7  C   LIG    1       24.581 -29.507   5.874  0.00  0.00    +0.036 A 
ATOM      8  C   LIG    1       24.016 -30.258   6.912  0.00  0.00    +0.044 A 
ATOM      9  C   LIG    1       24.384 -31.595   7.114  0.00  0.00    +0.061 A 
ATOM     10 CL   LIG    1       23.639 -32.441   8.425  0.00  0.00    -0.082 Cl
ATOM     11  C   LIG    1       25.325 -32.193   6.274  0.00  0.00    +0.059 A 
ATOM     12 CL   LIG    1       25.850 -33.825   6.480  0.00  0.00    -0.082 Cl
ATOM     13  C   LIG    1       25.877 -31.455   5.226  0.00  0.00    +0.023 A 
ATOM     14  C   LIG    1       25.504 -30.120   5.025  0.00  0.00    +0.025 A 
ENDBRANCH   3   7
BRANCH   5  15
ATOM     15  C   LIG    1       24.286 -24.577   6.474  0.00  0.00    +0.035 A 
ATOM     16  C   LIG    1       25.628 -24.187   6.596  0.00  0.00    +0.025 A 
ATOM     17  C   LIG    1       25.964 -22.902   7.033  0.00  0.00    +0.022 A 
ATOM     18  C   LIG    1       24.956 -21.997   7.352  0.00  0.00    +0.041 A 
ATOM     19 CL   LIG    1       25.365 -20.423   7.910  0.00  0.00    -0.084 Cl
ATOM     20  C   LIG    1       23.621 -22.365   7.224  0.00  0.00    +0.022 A 
ATOM     21  C   LIG    1       23.287 -23.651   6.783  0.00  0.00    +0.025 A 
ENDBRANCH   5  15
TORSDOF 2
ENDMDL
