MODEL 1
REMARK VINA RESULT:      -9.4      0.000      0.000
REMARK  Name = *****
REMARK                            x       y       z     vdW  Elec       q    Type
REMARK                         _______ _______ _______ _____ _____    ______ ____
ROOT
ATOM      1  C   LIG    1       25.901 -31.271   9.830  0.00  0.00    +0.134 A 
ATOM      2  C   LIG    1       26.380 -30.000  10.159  0.00  0.00    +0.079 A 
ATOM      3  C   LIG    1       26.074 -28.898   9.331  0.00  0.00    +0.030 A 
ATOM      4  C   LIG    1       25.379 -29.084   8.103  0.00  0.00    +0.044 A 
ATOM      5  C   LIG    1       24.750 -30.333   7.907  0.00  0.00    +0.078 A 
ATOM      6  N   LIG    1       23.928 -30.597   6.886  0.00  0.00    -0.255 NA
ATOM      7  C   LIG    1       23.829 -29.687   5.912  0.00  0.00    +0.115 A 
ATOM      8  C   LIG    1       24.577 -28.538   5.884  0.00  0.00    +0.066 A 
ATOM      9  C   LIG    1       25.299 -28.161   7.015  0.00  0.00    +0.139 A 
ATOM     10  C   LIG    1       25.014 -31.391   8.761  0.00  0.00    +0.074 A 
ENDROOT
BRANCH   2  11
ATOM     11  C   LIG    1       27.329 -29.760  11.288  0.00  0.00    +0.245 C 
ATOM     12  O   LIG    1       28.516 -29.629  11.113  0.00  0.00    -0.270 OA
ATOM     13  N   LIG    1       26.783 -29.769  12.555  0.00  0.00    -0.325 N 
ATOM     14  H   LIG    1       27.397 -29.597  13.337  0.00  0.00    +0.145 HD
ATOM     15  H   LIG    1       25.798 -29.720  12.689  0.00  0.00    +0.145 HD
ENDBRANCH   2  11
BRANCH   1  17
ATOM     16  C   LIG    1       25.228 -32.988  11.330  0.00  0.00    +0.277 C 
ATOM     17  O   LIG    1       26.274 -32.346  10.600  0.00  0.00    -0.494 OA
ENDBRANCH   1  17
BRANCH   9  18
ATOM     18  O   LIG    1       26.046 -26.987   7.072  0.00  0.00    -0.455 OA
BRANCH  18  19
ATOM     19  C   LIG    1       25.518 -25.749   6.732  0.00  0.00    +0.130 A 
ATOM     20  C   LIG    1       26.224 -24.544   6.672  0.00  0.00    +0.068 A 
ATOM     21  C   LIG    1       25.570 -23.328   6.466  0.00  0.00    +0.066 A 
ATOM     22 CL   LIG    1       26.481 -21.869   6.679  0.00  0.00    -0.082 Cl
ATOM     23  C   LIG    1       24.225 -23.301   6.097  0.00  0.00    +0.053 A 
ATOM     24  C   LIG    1       23.552 -24.519   5.988  0.00  0.00    +0.028 A 
ATOM     25  C   LIG    1       24.178 -25.726   6.343  0.00  0.00    +0.048 A 
BRANCH  23  26
ATOM     26  N   LIG    1       23.629 -22.055   5.823  0.00  0.00    -0.268 N 
ATOM     27  H   LIG    1       23.371 -21.904   4.856  0.00  0.00    +0.156 HD
ATOM     28  C   LIG    1       23.284 -21.079   6.709  0.00  0.00    +0.304 C 
ATOM     29  N   LIG    1       22.734 -19.952   6.169  0.00  0.00    -0.296 N 
ATOM     30  H   LIG    1       22.504 -19.261   6.873  0.00  0.00    +0.150 HD
ATOM     31  O   LIG    1       23.423 -21.118   7.933  0.00  0.00    -0.253 OA
BRANCH  29  32
ATOM     32  C   LIG    1       22.472 -19.662   4.800  0.00  0.00    +0.075 C 
ATOM     33  C   LIG    1       22.181 -18.255   4.365  0.00  0.00    +0.024 C 
ATOM     34  C   LIG    1       23.480 -18.906   3.983  0.00  0.00    +0.024 C 
ENDBRANCH  29  32
ENDBRANCH  23  26
ENDBRANCH  18  19
ENDBRANCH   9  18
TORSDOF 6
ENDMDL
MODEL 2
REMARK VINA RESULT:      -9.1      4.950      7.226
REMARK  Name = *****
REMARK                            x       y       z     vdW  Elec       q    Type
REMARK                         _______ _______ _______ _____ _____    ______ ____
ROOT
ATOM      1  C   LIG    1       24.446 -26.406   6.060  0.00  0.00    +0.134 A 
ATOM      2  C   LIG    1       25.717 -25.877   5.825  0.00  0.00    +0.079 A 
ATOM      3  C   LIG    1       25.926 -24.483   5.914  0.00  0.00    +0.030 A 
ATOM      4  C   LIG    1       24.832 -23.598   6.125  0.00  0.00    +0.044 A 
ATOM      5  C   LIG    1       23.615 -24.176   6.548  0.00  0.00    +0.078 A 
ATOM      6  N   LIG    1       22.554 -23.464   6.944  0.00  0.00    -0.255 NA
ATOM      7  C   LIG    1       22.591 -22.139   6.773  0.00  0.00    +0.115 A 
ATOM      8  C   LIG    1       23.631 -21.495   6.154  0.00  0.00    +0.066 A 
ATOM      9  C   LIG    1       24.814 -22.187   5.898  0.00  0.00    +0.139 A 
ATOM     10  C   LIG    1       23.442 -25.550   6.512  0.00  0.00    +0.074 A 
ENDROOT
BRANCH   2  11
ATOM     11  C   LIG    1       26.864 -26.707   5.346  0.00  0.00    +0.245 C 
ATOM     12  O   LIG    1       27.988 -26.545   5.752  0.00  0.00    -0.270 OA
ATOM     13  N   LIG    1       26.579 -27.624   4.354  0.00  0.00    -0.325 N 
ATOM     14  H   LIG    1       27.330 -28.208   4.019  0.00  0.00    +0.145 HD
ATOM     15  H   LIG    1       25.639 -27.865   4.134  0.00  0.00    +0.145 HD
ENDBRANCH   2  11
BRANCH   1  17
ATOM     16  C   LIG    1       24.444 -28.569   7.047  0.00  0.00    +0.277 C 
ATOM     17  O   LIG    1       24.241 -27.754   5.891  0.00  0.00    -0.494 OA
ENDBRANCH   1  17
BRANCH   9  18
ATOM     18  O   LIG    1       25.925 -21.586   5.312  0.00  0.00    -0.455 OA
BRANCH  18  19
ATOM     19  C   LIG    1       26.879 -20.901   6.051  0.00  0.00    +0.130 A 
ATOM     20  C   LIG    1       27.761 -19.936   5.557  0.00  0.00    +0.068 A 
ATOM     21  C   LIG    1       28.785 -19.414   6.351  0.00  0.00    +0.066 A 
ATOM     22 CL   LIG    1       29.991 -18.435   5.581  0.00  0.00    -0.082 Cl
ATOM     23  C   LIG    1       28.824 -19.676   7.721  0.00  0.00    +0.053 A 
ATOM     24  C   LIG    1       27.839 -20.509   8.255  0.00  0.00    +0.028 A 
ATOM     25  C   LIG    1       26.903 -21.148   7.424  0.00  0.00    +0.048 A 
BRANCH  23  26
ATOM     26  N   LIG    1       29.829 -19.064   8.493  0.00  0.00    -0.268 N 
ATOM     27  H   LIG    1       29.567 -18.186   8.923  0.00  0.00    +0.156 HD
ATOM     28  C   LIG    1       31.065 -19.551   8.796  0.00  0.00    +0.304 C 
ATOM     29  N   LIG    1       31.856 -18.735   9.555  0.00  0.00    -0.296 N 
ATOM     30  H   LIG    1       32.763 -19.147   9.743  0.00  0.00    +0.150 HD
ATOM     31  O   LIG    1       31.528 -20.640   8.453  0.00  0.00    -0.253 OA
BRANCH  29  32
ATOM     32  C   LIG    1       31.559 -17.443  10.072  0.00  0.00    +0.075 C 
ATOM     33  C   LIG    1       30.905 -17.295  11.415  0.00  0.00    +0.024 C 
ATOM     34  C   LIG    1       32.342 -16.897  11.232  0.00  0.00    +0.024 C 
ENDBRANCH  29  32
ENDBRANCH  23  26
ENDBRANCH  18  19
ENDBRANCH   9  18
TORSDOF 6
ENDMDL
MODEL 3
REMARK VINA RESULT:      -8.0      2.648      3.149
REMARK  Name = *****
REMARK                            x       y       z     vdW  Elec       q    Type
REMARK                         _______ _______ _______ _____ _____    ______ ____
ROOT
ATOM      1  C   LIG    1       25.398 -31.247   9.706  0.00  0.00    +0.134 A 
ATOM      2  C   LIG    1       24.393 -30.279   9.766  0.00  0.00    +0.079 A 
ATOM      3  C   LIG    1       23.936 -29.666   8.578  0.00  0.00    +0.030 A 
ATOM      4  C   LIG    1       24.568 -29.938   7.332  0.00  0.00    +0.044 A 
ATOM      5  C   LIG    1       25.434 -31.052   7.285  0.00  0.00    +0.078 A 
ATOM      6  N   LIG    1       25.967 -31.529   6.155  0.00  0.00    -0.255 NA
ATOM      7  C   LIG    1       25.805 -30.816   5.037  0.00  0.00    +0.115 A 
ATOM      8  C   LIG    1       25.180 -29.595   5.014  0.00  0.00    +0.066 A 
ATOM      9  C   LIG    1       24.467 -29.168   6.132  0.00  0.00    +0.139 A 
ATOM     10  C   LIG    1       25.829 -31.682   8.454  0.00  0.00    +0.074 A 
ENDROOT
BRANCH   2  11
ATOM     11  C   LIG    1       23.855 -29.748  11.055  0.00  0.00    +0.245 C 
ATOM     12  O   LIG    1       22.675 -29.735  11.302  0.00  0.00    -0.270 OA
ATOM     13  N   LIG    1       24.780 -29.203  11.922  0.00  0.00    -0.325 N 
ATOM     14  H   LIG    1       24.449 -28.848  12.806  0.00  0.00    +0.145 HD
ATOM     15  H   LIG    1       25.756 -29.353  11.792  0.00  0.00    +0.145 HD
ENDBRANCH   2  11
BRANCH   1  17
ATOM     16  C   LIG    1       25.359 -33.045  11.261  0.00  0.00    +0.277 C 
ATOM     17  O   LIG    1       25.888 -31.775  10.876  0.00  0.00    -0.494 OA
ENDBRANCH   1  17
BRANCH   9  18
ATOM     18  O   LIG    1       23.772 -27.961   6.165  0.00  0.00    -0.455 OA
BRANCH  18  19
ATOM     19  C   LIG    1       24.405 -26.740   6.350  0.00  0.00    +0.130 A 
ATOM     20  C   LIG    1       23.788 -25.486   6.345  0.00  0.00    +0.068 A 
ATOM     21  C   LIG    1       24.536 -24.308   6.391  0.00  0.00    +0.066 A 
ATOM     22 CL   LIG    1       23.710 -22.810   6.105  0.00  0.00    -0.082 Cl
ATOM     23  C   LIG    1       25.904 -24.347   6.661  0.00  0.00    +0.053 A 
ATOM     24  C   LIG    1       26.500 -25.597   6.837  0.00  0.00    +0.028 A 
ATOM     25  C   LIG    1       25.770 -26.781   6.642  0.00  0.00    +0.048 A 
BRANCH  23  26
ATOM     26  N   LIG    1       26.601 -23.128   6.775  0.00  0.00    -0.268 N 
ATOM     27  H   LIG    1       27.167 -22.880   5.973  0.00  0.00    +0.156 HD
ATOM     28  C   LIG    1       26.532 -22.216   7.784  0.00  0.00    +0.304 C 
ATOM     29  N   LIG    1       27.335 -21.120   7.650  0.00  0.00    -0.296 N 
ATOM     30  H   LIG    1       27.246 -20.480   8.432  0.00  0.00    +0.150 HD
ATOM     31  O   LIG    1       25.826 -22.289   8.792  0.00  0.00    -0.253 OA
BRANCH  29  32
ATOM     32  C   LIG    1       28.234 -20.802   6.593  0.00  0.00    +0.075 C 
ATOM     33  C   LIG    1       27.936 -19.665   5.659  0.00  0.00    +0.024 C 
ATOM     34  C   LIG    1       29.055 -19.546   6.653  0.00  0.00    +0.024 C 
ENDBRANCH  29  32
ENDBRANCH  23  26
ENDBRANCH  18  19
ENDBRANCH   9  18
TORSDOF 6
ENDMDL
MODEL 4
REMARK VINA RESULT:      -8.0      4.164      9.334
REMARK  Name = *****
REMARK                            x       y       z     vdW  Elec       q    Type
REMARK                         _______ _______ _______ _____ _____    ______ ____
ROOT
ATOM      1  C   LIG    1       29.540 -19.908   7.338  0.00  0.00    +0.134 A 
ATOM      2  C   LIG    1       29.562 -21.203   7.862  0.00  0.00    +0.079 A 
ATOM      3  C   LIG    1       28.508 -22.097   7.572  0.00  0.00    +0.030 A 
ATOM      4  C   LIG    1       27.364 -21.658   6.847  0.00  0.00    +0.044 A 
ATOM      5  C   LIG    1       27.468 -20.420   6.177  0.00  0.00    +0.078 A 
ATOM      6  N   LIG    1       26.545 -19.957   5.327  0.00  0.00    -0.255 NA
ATOM      7  C   LIG    1       25.390 -20.622   5.235  0.00  0.00    +0.115 A 
ATOM      8  C   LIG    1       25.089 -21.708   6.017  0.00  0.00    +0.066 A 
ATOM      9  C   LIG    1       26.094 -22.310   6.773  0.00  0.00    +0.139 A 
ATOM     10  C   LIG    1       28.539 -19.577   6.426  0.00  0.00    +0.074 A 
ENDROOT
BRANCH   2  11
ATOM     11  C   LIG    1       30.593 -21.664   8.841  0.00  0.00    +0.245 C 
ATOM     12  O   LIG    1       30.313 -21.964   9.975  0.00  0.00    -0.270 OA
ATOM     13  N   LIG    1       31.900 -21.656   8.398  0.00  0.00    -0.325 N 
ATOM     14  H   LIG    1       32.617 -21.974   9.031  0.00  0.00    +0.145 HD
ATOM     15  H   LIG    1       32.112 -21.561   7.430  0.00  0.00    +0.145 HD
ENDBRANCH   2  11
BRANCH   1  17
ATOM     16  C   LIG    1       30.185 -18.066   8.694  0.00  0.00    +0.277 C 
ATOM     17  O   LIG    1       30.531 -19.026   7.695  0.00  0.00    -0.494 OA
ENDBRANCH   1  17
BRANCH   9  18
ATOM     18  O   LIG    1       25.871 -23.440   7.555  0.00  0.00    -0.455 OA
BRANCH  18  19
ATOM     19  C   LIG    1       25.880 -24.725   7.031  0.00  0.00    +0.130 A 
ATOM     20  C   LIG    1       25.922 -25.058   5.675  0.00  0.00    +0.068 A 
ATOM     21  C   LIG    1       25.776 -26.379   5.246  0.00  0.00    +0.066 A 
ATOM     22 CL   LIG    1       25.567 -26.664   3.549  0.00  0.00    -0.082 Cl
ATOM     23  C   LIG    1       25.802 -27.429   6.164  0.00  0.00    +0.053 A 
ATOM     24  C   LIG    1       25.931 -27.111   7.517  0.00  0.00    +0.028 A 
ATOM     25  C   LIG    1       25.927 -25.774   7.951  0.00  0.00    +0.048 A 
BRANCH  23  26
ATOM     26  N   LIG    1       25.730 -28.748   5.677  0.00  0.00    -0.268 N 
ATOM     27  H   LIG    1       26.613 -29.149   5.389  0.00  0.00    +0.156 HD
ATOM     28  C   LIG    1       24.641 -29.565   5.633  0.00  0.00    +0.304 C 
ATOM     29  N   LIG    1       24.847 -30.801   5.089  0.00  0.00    -0.296 N 
ATOM     30  H   LIG    1       24.002 -31.362   5.078  0.00  0.00    +0.150 HD
ATOM     31  O   LIG    1       23.506 -29.297   6.030  0.00  0.00    -0.253 OA
BRANCH  29  32
ATOM     32  C   LIG    1       26.050 -31.349   4.562  0.00  0.00    +0.075 C 
ATOM     33  C   LIG    1       26.587 -32.648   5.089  0.00  0.00    +0.024 C 
ATOM     34  C   LIG    1       26.005 -32.583   3.706  0.00  0.00    +0.024 C 
ENDBRANCH  29  32
ENDBRANCH  23  26
ENDBRANCH  18  19
ENDBRANCH   9  18
TORSDOF 6
ENDMDL
MODEL 5
REMARK VINA RESULT:      -7.9      1.856      3.194
REMARK  Name = *****
REMARK                            x       y       z     vdW  Elec       q    Type
REMARK                         _______ _______ _______ _____ _____    ______ ____
ROOT
ATOM      1  C   LIG    1       23.884 -31.965   9.198  0.00  0.00    +0.134 A 
ATOM      2  C   LIG    1       24.183 -31.717   7.855  0.00  0.00    +0.079 A 
ATOM      3  C   LIG    1       25.037 -30.647   7.512  0.00  0.00    +0.030 A 
ATOM      4  C   LIG    1       25.506 -29.744   8.508  0.00  0.00    +0.044 A 
ATOM      5  C   LIG    1       25.345 -30.139   9.854  0.00  0.00    +0.078 A 
ATOM      6  N   LIG    1       25.880 -29.481  10.888  0.00  0.00    -0.255 NA
ATOM      7  C   LIG    1       26.454 -28.298  10.648  0.00  0.00    +0.115 A 
ATOM      8  C   LIG    1       26.459 -27.709   9.410  0.00  0.00    +0.066 A 
ATOM      9  C   LIG    1       26.071 -28.449   8.294  0.00  0.00    +0.139 A 
ATOM     10  C   LIG    1       24.551 -31.228  10.174  0.00  0.00    +0.074 A 
ENDROOT
BRANCH   2  11
ATOM     11  C   LIG    1       23.530 -32.454   6.731  0.00  0.00    +0.245 C 
ATOM     12  O   LIG    1       23.072 -31.885   5.771  0.00  0.00    -0.270 OA
ATOM     13  N   LIG    1       23.413 -33.820   6.885  0.00  0.00    -0.325 N 
ATOM     14  H   LIG    1       22.988 -34.347   6.137  0.00  0.00    +0.145 HD
ATOM     15  H   LIG    1       23.922 -34.302   7.591  0.00  0.00    +0.145 HD
ENDBRANCH   2  11
BRANCH   1  17
ATOM     16  C   LIG    1       21.868 -32.565  10.304  0.00  0.00    +0.277 C 
ATOM     17  O   LIG    1       22.988 -32.959   9.510  0.00  0.00    -0.494 OA
ENDBRANCH   1  17
BRANCH   9  18
ATOM     18  O   LIG    1       26.092 -27.930   7.003  0.00  0.00    -0.455 OA
BRANCH  18  19
ATOM     19  C   LIG    1       25.613 -26.662   6.700  0.00  0.00    +0.130 A 
ATOM     20  C   LIG    1       26.335 -25.469   6.791  0.00  0.00    +0.068 A 
ATOM     21  C   LIG    1       25.717 -24.231   6.607  0.00  0.00    +0.066 A 
ATOM     22 CL   LIG    1       26.619 -22.805   7.006  0.00  0.00    -0.082 Cl
ATOM     23  C   LIG    1       24.414 -24.155   6.114  0.00  0.00    +0.053 A 
ATOM     24  C   LIG    1       23.741 -25.351   5.857  0.00  0.00    +0.028 A 
ATOM     25  C   LIG    1       24.317 -26.590   6.186  0.00  0.00    +0.048 A 
BRANCH  23  26
ATOM     26  N   LIG    1       23.861 -22.883   5.871  0.00  0.00    -0.268 N 
ATOM     27  H   LIG    1       23.676 -22.673   4.897  0.00  0.00    +0.156 HD
ATOM     28  C   LIG    1       23.470 -21.952   6.785  0.00  0.00    +0.304 C 
ATOM     29  N   LIG    1       22.980 -20.785   6.272  0.00  0.00    -0.296 N 
ATOM     30  H   LIG    1       22.711 -20.129   6.998  0.00  0.00    +0.150 HD
ATOM     31  O   LIG    1       23.520 -22.062   8.011  0.00  0.00    -0.253 OA
BRANCH  29  32
ATOM     32  C   LIG    1       22.821 -20.413   4.908  0.00  0.00    +0.075 C 
ATOM     33  C   LIG    1       22.223 -19.083   4.548  0.00  0.00    +0.024 C 
ATOM     34  C   LIG    1       23.685 -19.337   4.314  0.00  0.00    +0.024 C 
ENDBRANCH  29  32
ENDBRANCH  23  26
ENDBRANCH  18  19
ENDBRANCH   9  18
TORSDOF 6
ENDMDL
MODEL 6
REMARK VINA RESULT:      -7.8      6.102     10.047
REMARK  Name = *****
REMARK                            x       y       z     vdW  Elec       q    Type
REMARK                         _______ _______ _______ _____ _____    ______ ____
ROOT
ATOM      1  C   LIG    1       23.058 -19.141   4.297  0.00  0.00    +0.134 A 
ATOM      2  C   LIG    1       24.378 -19.410   3.926  0.00  0.00    +0.079 A 
ATOM      3  C   LIG    1       25.015 -20.580   4.394  0.00  0.00    +0.030 A 
ATOM      4  C   LIG    1       24.369 -21.432   5.334  0.00  0.00    +0.044 A 
ATOM      5  C   LIG    1       22.984 -21.235   5.528  0.00  0.00    +0.078 A 
ATOM      6  N   LIG    1       22.212 -22.056   6.247  0.00  0.00    -0.255 NA
ATOM      7  C   LIG    1       22.811 -23.019   6.954  0.00  0.00    +0.115 A 
ATOM      8  C   LIG    1       24.174 -23.155   7.025  0.00  0.00    +0.066 A 
ATOM      9  C   LIG    1       24.983 -22.431   6.151  0.00  0.00    +0.139 A 
ATOM     10  C   LIG    1       22.358 -20.112   5.013  0.00  0.00    +0.074 A 
ENDROOT
BRANCH   2  11
ATOM     11  C   LIG    1       25.215 -18.443   3.154  0.00  0.00    +0.245 C 
ATOM     12  O   LIG    1       25.960 -18.798   2.274  0.00  0.00    -0.270 OA
ATOM     13  N   LIG    1       25.145 -17.123   3.552  0.00  0.00    -0.325 N 
ATOM     14  H   LIG    1       25.689 -16.445   3.041  0.00  0.00    +0.145 HD
ATOM     15  H   LIG    1       24.425 -16.810   4.163  0.00  0.00    +0.145 HD
ENDBRANCH   2  11
BRANCH   1  17
ATOM     16  C   LIG    1       22.162 -17.037   4.941  0.00  0.00    +0.277 C 
ATOM     17  O   LIG    1       22.479 -17.960   3.900  0.00  0.00    -0.494 OA
ENDBRANCH   1  17
BRANCH   9  18
ATOM     18  O   LIG    1       26.371 -22.550   6.137  0.00  0.00    -0.455 OA
BRANCH  18  19
ATOM     19  C   LIG    1       27.210 -21.565   6.638  0.00  0.00    +0.130 A 
ATOM     20  C   LIG    1       27.660 -20.439   5.943  0.00  0.00    +0.068 A 
ATOM     21  C   LIG    1       28.622 -19.587   6.487  0.00  0.00    +0.066 A 
ATOM     22 CL   LIG    1       29.317 -18.381   5.453  0.00  0.00    -0.082 Cl
ATOM     23  C   LIG    1       29.003 -19.709   7.824  0.00  0.00    +0.053 A 
ATOM     24  C   LIG    1       28.427 -20.733   8.577  0.00  0.00    +0.028 A 
ATOM     25  C   LIG    1       27.574 -21.678   7.981  0.00  0.00    +0.048 A 
BRANCH  23  26
ATOM     26  N   LIG    1       29.919 -18.776   8.349  0.00  0.00    -0.268 N 
ATOM     27  H   LIG    1       29.525 -18.104   8.995  0.00  0.00    +0.156 HD
ATOM     28  C   LIG    1       31.267 -18.730   8.160  0.00  0.00    +0.304 C 
ATOM     29  N   LIG    1       31.919 -17.700   8.776  0.00  0.00    -0.296 N 
ATOM     30  H   LIG    1       32.916 -17.714   8.595  0.00  0.00    +0.150 HD
ATOM     31  O   LIG    1       31.941 -19.517   7.493  0.00  0.00    -0.253 OA
BRANCH  29  32
ATOM     32  C   LIG    1       31.375 -16.668   9.591  0.00  0.00    +0.075 C 
ATOM     33  C   LIG    1       31.015 -16.942  11.023  0.00  0.00    +0.024 C 
ATOM     34  C   LIG    1       32.196 -16.071  10.699  0.00  0.00    +0.024 C 
ENDBRANCH  29  32
ENDBRANCH  23  26
ENDBRANCH  18  19
ENDBRANCH   9  18
TORSDOF 6
ENDMDL
MODEL 7
REMARK VINA RESULT:      -7.7      6.022      8.510
REMARK  Name = *****
REMARK                            x       y       z     vdW  Elec       q    Type
REMARK                         _______ _______ _______ _____ _____    ______ ____
ROOT
ATOM      1  C   LIG    1       21.629 -27.338  13.144  0.00  0.00    +0.134 A 
ATOM      2  C   LIG    1       22.153 -28.630  13.052  0.00  0.00    +0.079 A 
ATOM      3  C   LIG    1       23.550 -28.829  13.121  0.00  0.00    +0.030 A 
ATOM      4  C   LIG    1       24.439 -27.718  13.166  0.00  0.00    +0.044 A 
ATOM      5  C   LIG    1       23.872 -26.457  13.452  0.00  0.00    +0.078 A 
ATOM      6  N   LIG    1       24.594 -25.356  13.689  0.00  0.00    -0.255 NA
ATOM      7  C   LIG    1       25.912 -25.416  13.481  0.00  0.00    +0.115 A 
ATOM      8  C   LIG    1       26.539 -26.526  12.976  0.00  0.00    +0.066 A 
ATOM      9  C   LIG    1       25.842 -27.730  12.893  0.00  0.00    +0.139 A 
ATOM     10  C   LIG    1       22.497 -26.288  13.439  0.00  0.00    +0.074 A 
ENDROOT
BRANCH   2  11
ATOM     11  C   LIG    1       21.311 -29.826  12.746  0.00  0.00    +0.245 C 
ATOM     12  O   LIG    1       21.463 -30.881  13.313  0.00  0.00    -0.270 OA
ATOM     13  N   LIG    1       20.395 -29.681  11.725  0.00  0.00    -0.325 N 
ATOM     14  H   LIG    1       19.802 -30.467  11.504  0.00  0.00    +0.145 HD
ATOM     15  H   LIG    1       20.162 -28.780  11.370  0.00  0.00    +0.145 HD
ENDBRANCH   2  11
BRANCH   1  17
ATOM     16  C   LIG    1       19.568 -26.733  14.161  0.00  0.00    +0.277 C 
ATOM     17  O   LIG    1       20.276 -27.154  12.994  0.00  0.00    -0.494 OA
ENDBRANCH   1  17
BRANCH   9  18
ATOM     18  O   LIG    1       26.426 -28.907  12.431  0.00  0.00    -0.455 OA
BRANCH  18  19
ATOM     19  C   LIG    1       26.200 -29.402  11.154  0.00  0.00    +0.130 A 
ATOM     20  C   LIG    1       25.721 -30.677  10.841  0.00  0.00    +0.068 A 
ATOM     21  C   LIG    1       25.671 -31.130   9.521  0.00  0.00    +0.066 A 
ATOM     22 CL   LIG    1       25.326 -32.807   9.251  0.00  0.00    -0.082 Cl
ATOM     23  C   LIG    1       25.891 -30.250   8.461  0.00  0.00    +0.053 A 
ATOM     24  C   LIG    1       26.206 -28.925   8.766  0.00  0.00    +0.028 A 
ATOM     25  C   LIG    1       26.401 -28.514  10.096  0.00  0.00    +0.048 A 
BRANCH  23  26
ATOM     26  N   LIG    1       25.753 -30.736   7.146  0.00  0.00    -0.268 N 
ATOM     27  H   LIG    1       26.493 -31.353   6.835  0.00  0.00    +0.156 HD
ATOM     28  C   LIG    1       24.711 -30.545   6.289  0.00  0.00    +0.304 C 
ATOM     29  N   LIG    1       24.843 -31.118   5.056  0.00  0.00    -0.296 N 
ATOM     30  H   LIG    1       24.042 -30.938   4.461  0.00  0.00    +0.150 HD
ATOM     31  O   LIG    1       23.679 -29.913   6.519  0.00  0.00    -0.253 OA
BRANCH  29  32
ATOM     32  C   LIG    1       25.926 -31.889   4.548  0.00  0.00    +0.075 C 
ATOM     33  C   LIG    1       25.870 -33.389   4.578  0.00  0.00    +0.024 C 
ATOM     34  C   LIG    1       25.768 -32.660   3.269  0.00  0.00    +0.024 C 
ENDBRANCH  29  32
ENDBRANCH  23  26
ENDBRANCH  18  19
ENDBRANCH   9  18
TORSDOF 6
ENDMDL
MODEL 8
REMARK VINA RESULT:      -7.6      3.933      9.411
REMARK  Name = *****
REMARK                            x       y       z     vdW  Elec       q    Type
REMARK                         _______ _______ _______ _____ _____    ______ ____
ROOT
ATOM      1  C   LIG    1       29.352 -19.087   6.431  0.00  0.00    +0.134 A 
ATOM      2  C   LIG    1       29.098 -20.193   7.246  0.00  0.00    +0.079 A 
ATOM      3  C   LIG    1       27.916 -20.943   7.066  0.00  0.00    +0.030 A 
ATOM      4  C   LIG    1       26.921 -20.517   6.141  0.00  0.00    +0.044 A 
ATOM      5  C   LIG    1       27.296 -19.522   5.212  0.00  0.00    +0.078 A 
ATOM      6  N   LIG    1       26.531 -19.142   4.183  0.00  0.00    -0.255 NA
ATOM      7  C   LIG    1       25.279 -19.607   4.129  0.00  0.00    +0.115 A 
ATOM      8  C   LIG    1       24.733 -20.395   5.109  0.00  0.00    +0.066 A 
ATOM      9  C   LIG    1       25.558 -20.946   6.088  0.00  0.00    +0.139 A 
ATOM     10  C   LIG    1       28.488 -18.834   5.366  0.00  0.00    +0.074 A 
ENDROOT
BRANCH   2  11
ATOM     11  C   LIG    1       29.963 -20.557   8.410  0.00  0.00    +0.245 C 
ATOM     12  O   LIG    1       30.203 -19.778   9.299  0.00  0.00    -0.270 OA
ATOM     13  N   LIG    1       30.534 -21.812   8.375  0.00  0.00    -0.325 N 
ATOM     14  H   LIG    1       31.113 -22.092   9.152  0.00  0.00    +0.145 HD
ATOM     15  H   LIG    1       30.217 -22.503   7.732  0.00  0.00    +0.145 HD
ENDBRANCH   2  11
BRANCH   1  17
ATOM     16  C   LIG    1       31.720 -19.001   6.609  0.00  0.00    +0.277 C 
ATOM     17  O   LIG    1       30.466 -18.320   6.672  0.00  0.00    -0.494 OA
ENDBRANCH   1  17
BRANCH   9  18
ATOM     18  O   LIG    1       25.080 -21.789   7.088  0.00  0.00    -0.455 OA
BRANCH  18  19
ATOM     19  C   LIG    1       24.945 -23.159   6.908  0.00  0.00    +0.130 A 
ATOM     20  C   LIG    1       25.977 -24.099   6.960  0.00  0.00    +0.068 A 
ATOM     21  C   LIG    1       25.760 -25.435   6.616  0.00  0.00    +0.066 A 
ATOM     22 CL   LIG    1       27.145 -26.465   6.445  0.00  0.00    -0.082 Cl
ATOM     23  C   LIG    1       24.465 -25.916   6.423  0.00  0.00    +0.053 A 
ATOM     24  C   LIG    1       23.408 -25.012   6.538  0.00  0.00    +0.028 A 
ATOM     25  C   LIG    1       23.646 -23.641   6.736  0.00  0.00    +0.048 A 
BRANCH  23  26
ATOM     26  N   LIG    1       24.292 -27.288   6.156  0.00  0.00    -0.268 N 
ATOM     27  H   LIG    1       23.750 -27.795   6.845  0.00  0.00    +0.156 HD
ATOM     28  C   LIG    1       24.685 -27.982   5.051  0.00  0.00    +0.304 C 
ATOM     29  N   LIG    1       24.404 -29.318   5.058  0.00  0.00    -0.296 N 
ATOM     30  H   LIG    1       24.725 -29.782   4.215  0.00  0.00    +0.150 HD
ATOM     31  O   LIG    1       25.263 -27.523   4.064  0.00  0.00    -0.253 OA
BRANCH  29  32
ATOM     32  C   LIG    1       23.754 -30.083   6.066  0.00  0.00    +0.075 C 
ATOM     33  C   LIG    1       23.986 -31.563   6.165  0.00  0.00    +0.024 C 
ATOM     34  C   LIG    1       24.543 -30.645   7.214  0.00  0.00    +0.024 C 
ENDBRANCH  29  32
ENDBRANCH  23  26
ENDBRANCH  18  19
ENDBRANCH   9  18
TORSDOF 6
ENDMDL
MODEL 9
REMARK VINA RESULT:      -7.3      3.555      9.326
REMARK  Name = *****
REMARK                            x       y       z     vdW  Elec       q    Type
REMARK                         _______ _______ _______ _____ _____    ______ ____
ROOT
ATOM      1  C   LIG    1       27.239 -20.300   8.269  0.00  0.00    +0.134 A 
ATOM      2  C   LIG    1       27.767 -20.907   7.127  0.00  0.00    +0.079 A 
ATOM      3  C   LIG    1       26.932 -21.680   6.291  0.00  0.00    +0.030 A 
ATOM      4  C   LIG    1       25.582 -21.944   6.659  0.00  0.00    +0.044 A 
ATOM      5  C   LIG    1       25.039 -21.162   7.702  0.00  0.00    +0.078 A 
ATOM      6  N   LIG    1       23.747 -21.178   8.045  0.00  0.00    -0.255 NA
ATOM      7  C   LIG    1       22.962 -22.103   7.484  0.00  0.00    +0.115 A 
ATOM      8  C   LIG    1       23.437 -23.068   6.632  0.00  0.00    +0.066 A 
ATOM      9  C   LIG    1       24.731 -22.960   6.125  0.00  0.00    +0.139 A 
ATOM     10  C   LIG    1       25.862 -20.362   8.478  0.00  0.00    +0.074 A 
ENDROOT
BRANCH   2  11
ATOM     11  C   LIG    1       29.227 -20.895   6.805  0.00  0.00    +0.245 C 
ATOM     12  O   LIG    1       29.658 -20.385   5.801  0.00  0.00    -0.270 OA
ATOM     13  N   LIG    1       30.050 -21.566   7.686  0.00  0.00    -0.325 N 
ATOM     14  H   LIG    1       31.042 -21.564   7.502  0.00  0.00    +0.145 HD
ATOM     15  H   LIG    1       29.721 -21.847   8.582  0.00  0.00    +0.145 HD
ENDBRANCH   2  11
BRANCH   1  17
ATOM     16  C   LIG    1       28.985 -18.704   8.496  0.00  0.00    +0.277 C 
ATOM     17  O   LIG    1       28.081 -19.620   9.115  0.00  0.00    -0.494 OA
ENDBRANCH   1  17
BRANCH   9  18
ATOM     18  O   LIG    1       25.263 -23.878   5.223  0.00  0.00    -0.455 OA
BRANCH  18  19
ATOM     19  C   LIG    1       25.361 -25.233   5.506  0.00  0.00    +0.130 A 
ATOM     20  C   LIG    1       25.604 -25.794   6.762  0.00  0.00    +0.068 A 
ATOM     21  C   LIG    1       25.833 -27.163   6.915  0.00  0.00    +0.066 A 
ATOM     22 CL   LIG    1       26.395 -27.726   8.456  0.00  0.00    -0.082 Cl
ATOM     23  C   LIG    1       25.611 -28.041   5.854  0.00  0.00    +0.053 A 
ATOM     24  C   LIG    1       25.200 -27.502   4.634  0.00  0.00    +0.028 A 
ATOM     25  C   LIG    1       25.117 -26.111   4.448  0.00  0.00    +0.048 A 
BRANCH  23  26
ATOM     26  N   LIG    1       25.780 -29.421   6.078  0.00  0.00    -0.268 N 
ATOM     27  H   LIG    1       26.742 -29.733   6.136  0.00  0.00    +0.156 HD
ATOM     28  C   LIG    1       24.817 -30.355   6.312  0.00  0.00    +0.304 C 
ATOM     29  N   LIG    1       25.259 -31.636   6.480  0.00  0.00    -0.296 N 
ATOM     30  H   LIG    1       24.499 -32.286   6.645  0.00  0.00    +0.150 HD
ATOM     31  O   LIG    1       23.603 -30.154   6.383  0.00  0.00    -0.253 OA
BRANCH  29  32
ATOM     32  C   LIG    1       26.595 -32.125   6.444  0.00  0.00    +0.075 C 
ATOM     33  C   LIG    1       26.963 -33.383   7.177  0.00  0.00    +0.024 C 
ATOM     34  C   LIG    1       26.920 -33.374   5.676  0.00  0.00    +0.024 C 
ENDBRANCH  29  32
ENDBRANCH  23  26
ENDBRANCH  18  19
ENDBRANCH   9  18
TORSDOF 6
ENDMDL
