MODEL 1
REMARK VINA RESULT:      -8.3      0.000      0.000
REMARK  Name = *****
REMARK                            x       y       z     vdW  Elec       q    Type
REMARK                         _______ _______ _______ _____ _____    ______ ____
ROOT
ATOM      1  C   LIG    1       25.234 -21.477   6.860  0.00  0.00    +0.069 C 
ENDROOT
BRANCH   1   2
ATOM      2  C   LIG    1       24.985 -22.989   6.722  0.00  0.00    -0.038 A 
ATOM      3  C   LIG    1       26.062 -23.892   6.723  0.00  0.00    +0.004 A 
ATOM      4  C   LIG    1       25.847 -25.268   6.570  0.00  0.00    +0.000 A 
ATOM      5  C   LIG    1       24.555 -25.766   6.412  0.00  0.00    +0.000 A 
ATOM      6  C   LIG    1       23.476 -24.891   6.425  0.00  0.00    +0.000 A 
ATOM      7  C   LIG    1       23.688 -23.521   6.589  0.00  0.00    +0.004 A 
ENDBRANCH   1   2
BRANCH   1   8
ATOM      8  C   LIG    1       24.450 -20.652   5.839  0.00  0.00    +0.049 A 
ATOM      9  N   LIG    1       25.080 -20.294   4.687  0.00  0.00    -0.259 NA
ATOM     10  C   LIG    1       24.394 -19.532   3.803  0.00  0.00    +0.111 A 
ATOM     11  C   LIG    1       23.106 -19.069   4.015  0.00  0.00    +0.020 A 
ATOM     12  C   LIG    1       22.477 -19.422   5.199  0.00  0.00    +0.003 A 
ATOM     13  C   LIG    1       23.148 -20.228   6.120  0.00  0.00    +0.024 A 
ENDBRANCH   1   8
BRANCH   1  14
ATOM     14  C   LIG    1       26.751 -21.141   6.818  0.00  0.00    +0.029 C 
BRANCH  14  15
ATOM     15  C   LIG    1       27.270 -20.339   8.022  0.00  0.00    +0.085 C 
BRANCH  15  17
ATOM     16  C   LIG    1       29.552 -21.219   8.121  0.00  0.00    +0.104 C 
ATOM     17  N   LIG    1       28.717 -20.028   7.942  0.00  0.00    -0.308 NA
ATOM     18  C   LIG    1       29.015 -19.404   6.649  0.00  0.00    +0.104 C 
ENDBRANCH  15  17
ENDBRANCH  14  15
ENDBRANCH   1  14
TORSDOF 5
ENDMDL
MODEL 2
REMARK VINA RESULT:      -8.3      0.965      1.314
REMARK  Name = *****
REMARK                            x       y       z     vdW  Elec       q    Type
REMARK                         _______ _______ _______ _____ _____    ______ ____
ROOT
ATOM      1  C   LIG    1       24.347 -22.146   7.285  0.00  0.00    +0.069 C 
ENDROOT
BRANCH   1   2
ATOM      2  C   LIG    1       24.628 -23.603   6.878  0.00  0.00    -0.038 A 
ATOM      3  C   LIG    1       25.936 -24.114   6.914  0.00  0.00    +0.004 A 
ATOM      4  C   LIG    1       26.205 -25.431   6.518  0.00  0.00    +0.000 A 
ATOM      5  C   LIG    1       25.175 -26.260   6.080  0.00  0.00    +0.000 A 
ATOM      6  C   LIG    1       23.871 -25.778   6.053  0.00  0.00    +0.000 A 
ATOM      7  C   LIG    1       23.601 -24.470   6.458  0.00  0.00    +0.004 A 
ENDBRANCH   1   2
BRANCH   1   8
ATOM      8  C   LIG    1       23.991 -21.257   6.093  0.00  0.00    +0.049 A 
ATOM      9  N   LIG    1       24.724 -21.389   4.954  0.00  0.00    -0.259 NA
ATOM     10  C   LIG    1       24.429 -20.574   3.914  0.00  0.00    +0.111 A 
ATOM     11  C   LIG    1       23.452 -19.593   3.953  0.00  0.00    +0.020 A 
ATOM     12  C   LIG    1       22.722 -19.450   5.122  0.00  0.00    +0.003 A 
ATOM     13  C   LIG    1       22.984 -20.293   6.204  0.00  0.00    +0.024 A 
ENDBRANCH   1   8
BRANCH   1  14
ATOM     14  C   LIG    1       25.520 -21.547   8.111  0.00  0.00    +0.029 C 
BRANCH  14  15
ATOM     15  C   LIG    1       26.304 -20.430   7.404  0.00  0.00    +0.085 C 
BRANCH  15  17
ATOM     16  C   LIG    1       28.087 -19.913   5.806  0.00  0.00    +0.104 C 
ATOM     17  N   LIG    1       27.529 -20.912   6.723  0.00  0.00    -0.308 NA
ATOM     18  C   LIG    1       28.535 -21.281   7.724  0.00  0.00    +0.104 C 
ENDBRANCH  15  17
ENDBRANCH  14  15
ENDBRANCH   1  14
TORSDOF 5
ENDMDL
MODEL 3
REMARK VINA RESULT:      -8.1      1.138      4.364
REMARK  Name = *****
REMARK                            x       y       z     vdW  Elec       q    Type
REMARK                         _______ _______ _______ _____ _____    ______ ____
ROOT
ATOM      1  C   LIG    1       25.609 -21.537   6.448  0.00  0.00    +0.069 C 
ENDROOT
BRANCH   1   2
ATOM      2  C   LIG    1       24.648 -20.660   5.627  0.00  0.00    -0.038 A 
ATOM      3  C   LIG    1       25.048 -20.130   4.389  0.00  0.00    +0.004 A 
ATOM      4  C   LIG    1       24.188 -19.307   3.648  0.00  0.00    +0.000 A 
ATOM      5  C   LIG    1       22.918 -18.999   4.129  0.00  0.00    +0.000 A 
ATOM      6  C   LIG    1       22.498 -19.528   5.344  0.00  0.00    +0.000 A 
ATOM      7  C   LIG    1       23.349 -20.356   6.078  0.00  0.00    +0.004 A 
ENDBRANCH   1   2
BRANCH   1   8
ATOM      8  C   LIG    1       25.176 -23.003   6.500  0.00  0.00    +0.049 A 
ATOM      9  N   LIG    1       26.145 -23.957   6.485  0.00  0.00    -0.259 NA
ATOM     10  C   LIG    1       25.755 -25.254   6.493  0.00  0.00    +0.111 A 
ATOM     11  C   LIG    1       24.433 -25.664   6.483  0.00  0.00    +0.020 A 
ATOM     12  C   LIG    1       23.450 -24.687   6.479  0.00  0.00    +0.003 A 
ATOM     13  C   LIG    1       23.820 -23.341   6.496  0.00  0.00    +0.024 A 
ENDBRANCH   1   8
BRANCH   1  14
ATOM     14  C   LIG    1       25.833 -20.959   7.873  0.00  0.00    +0.029 C 
BRANCH  14  15
ATOM     15  C   LIG    1       27.196 -20.281   8.089  0.00  0.00    +0.085 C 
BRANCH  15  17
ATOM     16  C   LIG    1       28.661 -19.671   6.224  0.00  0.00    +0.104 C 
ATOM     17  N   LIG    1       28.236 -20.737   7.137  0.00  0.00    -0.308 NA
ATOM     18  C   LIG    1       29.395 -21.243   7.879  0.00  0.00    +0.104 C 
ENDBRANCH  15  17
ENDBRANCH  14  15
ENDBRANCH   1  14
TORSDOF 5
ENDMDL
MODEL 4
REMARK VINA RESULT:      -7.9      1.507      4.758
REMARK  Name = *****
REMARK                            x       y       z     vdW  Elec       q    Type
REMARK                         _______ _______ _______ _____ _____    ______ ____
ROOT
ATOM      1  C   LIG    1       26.224 -21.414   6.112  0.00  0.00    +0.069 C 
ENDROOT
BRANCH   1   2
ATOM      2  C   LIG    1       27.393 -20.467   6.433  0.00  0.00    -0.038 A 
ATOM      3  C   LIG    1       27.983 -19.693   5.420  0.00  0.00    +0.004 A 
ATOM      4  C   LIG    1       29.067 -18.849   5.698  0.00  0.00    +0.000 A 
ATOM      5  C   LIG    1       29.580 -18.763   6.991  0.00  0.00    +0.000 A 
ATOM      6  C   LIG    1       28.999 -19.508   8.010  0.00  0.00    +0.000 A 
ATOM      7  C   LIG    1       27.913 -20.341   7.736  0.00  0.00    +0.004 A 
ENDBRANCH   1   2
BRANCH   1   8
ATOM      8  C   LIG    1       25.009 -20.683   5.539  0.00  0.00    +0.049 A 
ATOM      9  N   LIG    1       25.139 -20.081   4.326  0.00  0.00    -0.259 NA
ATOM     10  C   LIG    1       24.073 -19.403   3.839  0.00  0.00    +0.111 A 
ATOM     11  C   LIG    1       22.874 -19.258   4.516  0.00  0.00    +0.020 A 
ATOM     12  C   LIG    1       22.754 -19.858   5.759  0.00  0.00    +0.003 A 
ATOM     13  C   LIG    1       23.827 -20.586   6.277  0.00  0.00    +0.024 A 
ENDBRANCH   1   8
BRANCH   1  14
ATOM     14  C   LIG    1       25.836 -22.281   7.343  0.00  0.00    +0.029 C 
BRANCH  14  15
ATOM     15  C   LIG    1       25.868 -23.799   7.100  0.00  0.00    +0.085 C 
BRANCH  15  17
ATOM     16  C   LIG    1       25.387 -25.492   5.398  0.00  0.00    +0.104 C 
ATOM     17  N   LIG    1       24.949 -24.241   6.024  0.00  0.00    -0.308 NA
ATOM     18  C   LIG    1       23.598 -24.408   6.570  0.00  0.00    +0.104 C 
ENDBRANCH  15  17
ENDBRANCH  14  15
ENDBRANCH   1  14
TORSDOF 5
ENDMDL
MODEL 5
REMARK VINA RESULT:      -7.7      1.376      5.252
REMARK  Name = *****
REMARK                            x       y       z     vdW  Elec       q    Type
REMARK                         _______ _______ _______ _____ _____    ______ ____
ROOT
ATOM      1  C   LIG    1       26.393 -21.181   7.171  0.00  0.00    +0.069 C 
ENDROOT
BRANCH   1   2
ATOM      2  C   LIG    1       25.246 -20.689   6.271  0.00  0.00    -0.038 A 
ATOM      3  C   LIG    1       23.946 -20.550   6.785  0.00  0.00    +0.004 A 
ATOM      4  C   LIG    1       22.889 -20.130   5.965  0.00  0.00    +0.000 A 
ATOM      5  C   LIG    1       23.112 -19.842   4.620  0.00  0.00    +0.000 A 
ATOM      6  C   LIG    1       24.395 -19.958   4.097  0.00  0.00    +0.000 A 
ATOM      7  C   LIG    1       25.449 -20.366   4.915  0.00  0.00    +0.004 A 
ENDBRANCH   1   2
BRANCH   1   8
ATOM      8  C   LIG    1       27.644 -20.309   7.065  0.00  0.00    +0.049 A 
ATOM      9  N   LIG    1       28.305 -19.996   8.212  0.00  0.00    -0.259 NA
ATOM     10  C   LIG    1       29.391 -19.193   8.117  0.00  0.00    +0.111 A 
ATOM     11  C   LIG    1       29.848 -18.646   6.930  0.00  0.00    +0.020 A 
ATOM     12  C   LIG    1       29.159 -18.953   5.767  0.00  0.00    +0.003 A 
ATOM     13  C   LIG    1       28.050 -19.799   5.828  0.00  0.00    +0.024 A 
ENDBRANCH   1   8
BRANCH   1  14
ATOM     14  C   LIG    1       26.719 -22.678   6.912  0.00  0.00    +0.029 C 
BRANCH  14  15
ATOM     15  C   LIG    1       25.598 -23.659   7.293  0.00  0.00    +0.085 C 
BRANCH  15  17
ATOM     16  C   LIG    1       25.271 -25.214   5.429  0.00  0.00    +0.104 C 
ATOM     17  N   LIG    1       24.744 -24.048   6.145  0.00  0.00    -0.308 NA
ATOM     18  C   LIG    1       23.385 -24.332   6.617  0.00  0.00    +0.104 C 
ENDBRANCH  15  17
ENDBRANCH  14  15
ENDBRANCH   1  14
TORSDOF 5
ENDMDL
MODEL 6
REMARK VINA RESULT:      -7.5      1.715      5.413
REMARK  Name = *****
REMARK                            x       y       z     vdW  Elec       q    Type
REMARK                         _______ _______ _______ _____ _____    ______ ____
ROOT
ATOM      1  C   LIG    1       24.820 -21.204   7.174  0.00  0.00    +0.069 C 
ENDROOT
BRANCH   1   2
ATOM      2  C   LIG    1       26.248 -20.651   7.017  0.00  0.00    -0.038 A 
ATOM      3  C   LIG    1       27.071 -20.473   8.141  0.00  0.00    +0.004 A 
ATOM      4  C   LIG    1       28.362 -19.943   8.010  0.00  0.00    +0.000 A 
ATOM      5  C   LIG    1       28.853 -19.583   6.756  0.00  0.00    +0.000 A 
ATOM      6  C   LIG    1       28.059 -19.767   5.630  0.00  0.00    +0.000 A 
ATOM      7  C   LIG    1       26.777 -20.305   5.759  0.00  0.00    +0.004 A 
ENDBRANCH   1   2
BRANCH   1   8
ATOM      8  C   LIG    1       24.729 -22.701   6.876  0.00  0.00    +0.049 A 
ATOM      9  N   LIG    1       23.492 -23.259   6.782  0.00  0.00    -0.259 NA
ATOM     10  C   LIG    1       23.416 -24.592   6.555  0.00  0.00    +0.111 A 
ATOM     11  C   LIG    1       24.519 -25.423   6.446  0.00  0.00    +0.020 A 
ATOM     12  C   LIG    1       25.776 -24.851   6.561  0.00  0.00    +0.003 A 
ATOM     13  C   LIG    1       25.888 -23.475   6.770  0.00  0.00    +0.024 A 
ENDBRANCH   1   8
BRANCH   1  14
ATOM     14  C   LIG    1       23.797 -20.392   6.332  0.00  0.00    +0.029 C 
BRANCH  14  15
ATOM     15  C   LIG    1       23.752 -20.759   4.840  0.00  0.00    +0.085 C 
BRANCH  15  17
ATOM     16  C   LIG    1       22.302 -18.795   4.650  0.00  0.00    +0.104 C 
ATOM     17  N   LIG    1       23.285 -19.650   3.975  0.00  0.00    -0.308 NA
ATOM     18  C   LIG    1       24.431 -18.842   3.548  0.00  0.00    +0.104 C 
ENDBRANCH  15  17
ENDBRANCH  14  15
ENDBRANCH   1  14
TORSDOF 5
ENDMDL
MODEL 7
REMARK VINA RESULT:      -7.5      1.756      5.366
REMARK  Name = *****
REMARK                            x       y       z     vdW  Elec       q    Type
REMARK                         _______ _______ _______ _____ _____    ______ ____
ROOT
ATOM      1  C   LIG    1       24.915 -20.821   5.689  0.00  0.00    +0.069 C 
ENDROOT
BRANCH   1   2
ATOM      2  C   LIG    1       26.285 -20.445   6.279  0.00  0.00    -0.038 A 
ATOM      3  C   LIG    1       27.314 -19.972   5.448  0.00  0.00    +0.004 A 
ATOM      4  C   LIG    1       28.574 -19.655   5.974  0.00  0.00    +0.000 A 
ATOM      5  C   LIG    1       28.828 -19.803   7.336  0.00  0.00    +0.000 A 
ATOM      6  C   LIG    1       27.817 -20.254   8.177  0.00  0.00    +0.000 A 
ATOM      7  C   LIG    1       26.559 -20.560   7.656  0.00  0.00    +0.004 A 
ENDBRANCH   1   2
BRANCH   1   8
ATOM      8  C   LIG    1       24.516 -22.266   5.990  0.00  0.00    +0.049 A 
ATOM      9  N   LIG    1       25.343 -23.259   5.564  0.00  0.00    -0.259 NA
ATOM     10  C   LIG    1       24.967 -24.539   5.800  0.00  0.00    +0.111 A 
ATOM     11  C   LIG    1       23.779 -24.895   6.417  0.00  0.00    +0.020 A 
ATOM     12  C   LIG    1       22.933 -23.879   6.831  0.00  0.00    +0.003 A 
ATOM     13  C   LIG    1       23.304 -22.548   6.625  0.00  0.00    +0.024 A 
ENDBRANCH   1   8
BRANCH   1  14
ATOM     14  C   LIG    1       24.847 -20.517   4.166  0.00  0.00    +0.029 C 
BRANCH  14  15
ATOM     15  C   LIG    1       23.907 -19.365   3.777  0.00  0.00    +0.085 C 
BRANCH  15  17
ATOM     16  C   LIG    1       22.174 -17.851   4.616  0.00  0.00    +0.104 C 
ATOM     17  N   LIG    1       22.779 -19.182   4.722  0.00  0.00    -0.308 NA
ATOM     18  C   LIG    1       21.761 -20.209   4.477  0.00  0.00    +0.104 C 
ENDBRANCH  15  17
ENDBRANCH  14  15
ENDBRANCH   1  14
TORSDOF 5
ENDMDL
MODEL 8
REMARK VINA RESULT:      -7.2      1.564      5.302
REMARK  Name = *****
REMARK                            x       y       z     vdW  Elec       q    Type
REMARK                         _______ _______ _______ _____ _____    ______ ____
ROOT
ATOM      1  C   LIG    1       24.927 -21.514   6.284  0.00  0.00    +0.069 C 
ENDROOT
BRANCH   1   2
ATOM      2  C   LIG    1       24.119 -20.504   5.451  0.00  0.00    -0.038 A 
ATOM      3  C   LIG    1       24.625 -20.017   4.235  0.00  0.00    +0.004 A 
ATOM      4  C   LIG    1       23.908 -19.075   3.484  0.00  0.00    +0.000 A 
ATOM      5  C   LIG    1       22.676 -18.604   3.933  0.00  0.00    +0.000 A 
ATOM      6  C   LIG    1       22.152 -19.086   5.126  0.00  0.00    +0.000 A 
ATOM      7  C   LIG    1       22.859 -20.032   5.870  0.00  0.00    +0.004 A 
ENDBRANCH   1   2
BRANCH   1   8
ATOM      8  C   LIG    1       26.249 -20.939   6.793  0.00  0.00    +0.049 A 
ATOM      9  N   LIG    1       27.259 -20.768   5.898  0.00  0.00    -0.259 NA
ATOM     10  C   LIG    1       28.440 -20.294   6.361  0.00  0.00    +0.111 A 
ATOM     11  C   LIG    1       28.690 -20.005   7.692  0.00  0.00    +0.020 A 
ATOM     12  C   LIG    1       27.662 -20.199   8.602  0.00  0.00    +0.003 A 
ATOM     13  C   LIG    1       26.425 -20.663   8.152  0.00  0.00    +0.024 A 
ENDBRANCH   1   8
BRANCH   1  14
ATOM     14  C   LIG    1       25.145 -22.846   5.513  0.00  0.00    +0.029 C 
BRANCH  14  15
ATOM     15  C   LIG    1       25.559 -24.040   6.388  0.00  0.00    +0.085 C 
BRANCH  15  17
ATOM     16  C   LIG    1       26.477 -26.291   6.097  0.00  0.00    +0.104 C 
ATOM     17  N   LIG    1       25.430 -25.346   5.700  0.00  0.00    -0.308 NA
ATOM     18  C   LIG    1       24.111 -25.922   5.982  0.00  0.00    +0.104 C 
ENDBRANCH  15  17
ENDBRANCH  14  15
ENDBRANCH   1  14
TORSDOF 5
ENDMDL
MODEL 9
REMARK VINA RESULT:      -6.7      1.436      4.465
REMARK  Name = *****
REMARK                            x       y       z     vdW  Elec       q    Type
REMARK                         _______ _______ _______ _____ _____    ______ ____
ROOT
ATOM      1  C   LIG    1       25.392 -21.074   6.272  0.00  0.00    +0.069 C 
ENDROOT
BRANCH   1   2
ATOM      2  C   LIG    1       25.414 -22.610   6.181  0.00  0.00    -0.038 A 
ATOM      3  C   LIG    1       24.931 -23.264   5.035  0.00  0.00    +0.004 A 
ATOM      4  C   LIG    1       24.920 -24.663   4.956  0.00  0.00    +0.000 A 
ATOM      5  C   LIG    1       25.391 -25.433   6.017  0.00  0.00    +0.000 A 
ATOM      6  C   LIG    1       25.887 -24.805   7.153  0.00  0.00    +0.000 A 
ATOM      7  C   LIG    1       25.908 -23.411   7.229  0.00  0.00    +0.004 A 
ENDBRANCH   1   2
BRANCH   1   8
ATOM      8  C   LIG    1       26.772 -20.478   6.549  0.00  0.00    +0.049 A 
ATOM      9  N   LIG    1       27.496 -20.021   5.491  0.00  0.00    -0.259 NA
ATOM     10  C   LIG    1       28.733 -19.528   5.736  0.00  0.00    +0.111 A 
ATOM     11  C   LIG    1       29.316 -19.493   6.992  0.00  0.00    +0.020 A 
ATOM     12  C   LIG    1       28.582 -19.977   8.063  0.00  0.00    +0.003 A 
ATOM     13  C   LIG    1       27.293 -20.469   7.846  0.00  0.00    +0.024 A 
ENDBRANCH   1   8
BRANCH   1  14
ATOM     14  C   LIG    1       24.341 -20.578   7.303  0.00  0.00    +0.029 C 
BRANCH  14  15
ATOM     15  C   LIG    1       22.884 -20.621   6.813  0.00  0.00    +0.085 C 
BRANCH  15  17
ATOM     16  C   LIG    1       21.703 -21.278   4.771  0.00  0.00    +0.104 C 
ATOM     17  N   LIG    1       22.751 -20.431   5.350  0.00  0.00    -0.308 NA
ATOM     18  C   LIG    1       22.463 -19.023   5.061  0.00  0.00    +0.104 C 
ENDBRANCH  15  17
ENDBRANCH  14  15
ENDBRANCH   1  14
TORSDOF 5
ENDMDL
