MODEL 1
REMARK VINA RESULT:      -2.6      0.000      0.000
REMARK  Name = *****
REMARK                            x       y       z     vdW  Elec       q    Type
REMARK                         _______ _______ _______ _____ _____    ______ ____
ROOT
ATOM      1  C   LIG    1       24.654 -16.344   3.600  0.00  0.00    -0.027 A 
ATOM      2  C   LIG    1       24.569 -15.026   4.106  0.00  0.00    -0.033 A 
ATOM      3  C   LIG    1       23.224 -14.455   4.493  0.00  0.00    +0.045 C 
ATOM      4  C   LIG    1       25.768 -14.239   4.248  0.00  0.00    +0.043 A 
ATOM      5  C   LIG    1       26.972 -14.715   3.696  0.00  0.00    +0.078 A 
ATOM      6  N   LIG    1       28.111 -14.028   3.698  0.00  0.00    -0.215 NA
ATOM      7  C   LIG    1       28.121 -12.843   4.299  0.00  0.00    +0.215 A 
ATOM      8  N   LIG    1       27.076 -12.300   4.920  0.00  0.00    -0.200 NA
ATOM      9  C   LIG    1       27.003 -15.978   3.137  0.00  0.00    +0.029 A 
ATOM     10  C   LIG    1       25.941 -13.007   4.913  0.00  0.00    +0.129 A 
ATOM     11  C   LIG    1       25.884 -16.802   3.113  0.00  0.00    +0.007 A 
ENDROOT
BRANCH   7  12
ATOM     12  N   LIG    1       29.290 -12.115   4.255  0.00  0.00    -0.327 N 
ATOM     13  H   LIG    1       30.067 -12.734   4.068  0.00  0.00    +0.145 HD
ATOM     14  H   LIG    1       29.354 -11.538   5.086  0.00  0.00    +0.145 HD
ENDBRANCH   7  12
BRANCH  10  15
ATOM     15  N   LIG    1       24.932 -12.435   5.702  0.00  0.00    -0.343 N 
ATOM     16  H   LIG    1       24.634 -13.091   6.415  0.00  0.00    +0.144 HD
ATOM     17  H   LIG    1       25.337 -11.603   6.126  0.00  0.00    +0.144 HD
ENDBRANCH  10  15
BRANCH   1  18
ATOM     18  C   LIG    1       23.488 -17.303   3.585  0.00  0.00    +0.137 C 
BRANCH  18  19
ATOM     19  N   LIG    1       23.924 -18.644   3.238  0.00  0.00    -0.340 N 
ATOM     20  H   LIG    1       24.204 -18.761   2.268  0.00  0.00    +0.146 HD
BRANCH  19  25
ATOM     21  C   LIG    1       26.872 -19.951   5.133  0.00  0.00    +0.167 A 
ATOM     22  C   LIG    1       26.229 -20.727   6.117  0.00  0.00    +0.204 A 
ATOM     23  C   LIG    1       24.827 -20.836   6.095  0.00  0.00    +0.167 A 
ATOM     24  C   LIG    1       24.092 -20.121   5.133  0.00  0.00    +0.072 A 
ATOM     25  C   LIG    1       24.717 -19.367   4.134  0.00  0.00    +0.035 A 
ATOM     26  C   LIG    1       26.110 -19.278   4.171  0.00  0.00    +0.072 A 
BRANCH  21  28
ATOM     27  C   LIG    1       28.886 -18.650   5.190  0.00  0.00    +0.277 C 
ATOM     28  O   LIG    1       28.247 -19.921   5.170  0.00  0.00    -0.491 OA
ENDBRANCH  21  28
BRANCH  22  29
ATOM     29  O   LIG    1       27.073 -21.264   7.062  0.00  0.00    -0.488 OA
ATOM     30  C   LIG    1       28.425 -21.486   6.700  0.00  0.00    +0.277 C 
ENDBRANCH  22  29
BRANCH  23  31
ATOM     31  O   LIG    1       24.191 -21.571   7.061  0.00  0.00    -0.491 OA
ATOM     32  C   LIG    1       22.765 -21.518   7.059  0.00  0.00    +0.277 C 
ENDBRANCH  23  31
ENDBRANCH  19  25
ENDBRANCH  18  19
ENDBRANCH   1  18
TORSDOF 8
ENDMDL
MODEL 2
REMARK VINA RESULT:      -0.6      3.571      6.696
REMARK  Name = *****
REMARK                            x       y       z     vdW  Elec       q    Type
REMARK                         _______ _______ _______ _____ _____    ______ ____
ROOT
ATOM      1  C   LIG    1       24.057 -18.410   3.933  0.00  0.00    -0.027 A 
ATOM      2  C   LIG    1       23.994 -19.240   5.076  0.00  0.00    -0.033 A 
ATOM      3  C   LIG    1       22.690 -19.387   5.828  0.00  0.00    +0.045 C 
ATOM      4  C   LIG    1       25.174 -19.942   5.513  0.00  0.00    +0.043 A 
ATOM      5  C   LIG    1       26.415 -19.634   4.922  0.00  0.00    +0.078 A 
ATOM      6  N   LIG    1       27.572 -20.161   5.312  0.00  0.00    -0.215 NA
ATOM      7  C   LIG    1       27.547 -21.066   6.285  0.00  0.00    +0.215 A 
ATOM      8  N   LIG    1       26.442 -21.501   6.886  0.00  0.00    -0.200 NA
ATOM      9  C   LIG    1       26.452 -18.756   3.856  0.00  0.00    +0.029 A 
ATOM     10  C   LIG    1       25.287 -20.965   6.478  0.00  0.00    +0.129 A 
ATOM     11  C   LIG    1       25.302 -18.173   3.338  0.00  0.00    +0.007 A 
ENDROOT
BRANCH   7  12
ATOM     12  N   LIG    1       28.753 -21.572   6.717  0.00  0.00    -0.327 N 
ATOM     13  H   LIG    1       29.507 -21.135   6.203  0.00  0.00    +0.145 HD
ATOM     14  H   LIG    1       28.715 -22.584   6.702  0.00  0.00    +0.145 HD
ENDBRANCH   7  12
BRANCH  10  15
ATOM     15  N   LIG    1       24.163 -21.572   7.058  0.00  0.00    -0.343 N 
ATOM     16  H   LIG    1       23.502 -20.865   7.358  0.00  0.00    +0.144 HD
ATOM     17  H   LIG    1       23.755 -22.164   6.338  0.00  0.00    +0.144 HD
ENDBRANCH  10  15
BRANCH   1  18
ATOM     18  C   LIG    1       22.840 -17.782   3.297  0.00  0.00    +0.137 C 
BRANCH  18  19
ATOM     19  N   LIG    1       22.597 -16.457   3.840  0.00  0.00    -0.340 N 
ATOM     20  H   LIG    1       22.020 -16.441   4.678  0.00  0.00    +0.146 HD
BRANCH  19  25
ATOM     21  C   LIG    1       25.964 -14.860   3.534  0.00  0.00    +0.167 A 
ATOM     22  C   LIG    1       25.633 -13.506   3.743  0.00  0.00    +0.204 A 
ATOM     23  C   LIG    1       24.300 -13.165   4.031  0.00  0.00    +0.167 A 
ATOM     24  C   LIG    1       23.315 -14.168   4.042  0.00  0.00    +0.072 A 
ATOM     25  C   LIG    1       23.631 -15.518   3.862  0.00  0.00    +0.035 A 
ATOM     26  C   LIG    1       24.963 -15.836   3.585  0.00  0.00    +0.072 A 
BRANCH  21  28
ATOM     27  C   LIG    1       28.014 -15.815   4.334  0.00  0.00    +0.277 C 
ATOM     28  O   LIG    1       27.291 -15.144   3.308  0.00  0.00    -0.491 OA
ENDBRANCH  21  28
BRANCH  22  29
ATOM     29  O   LIG    1       26.681 -12.631   3.577  0.00  0.00    -0.488 OA
ATOM     30  C   LIG    1       27.599 -12.478   4.646  0.00  0.00    +0.277 C 
ENDBRANCH  22  29
BRANCH  23  31
ATOM     31  O   LIG    1       23.965 -11.848   4.214  0.00  0.00    -0.491 OA
ATOM     32  C   LIG    1       23.257 -11.538   5.414  0.00  0.00    +0.277 C 
ENDBRANCH  23  31
ENDBRANCH  19  25
ENDBRANCH  18  19
ENDBRANCH   1  18
TORSDOF 8
ENDMDL
MODEL 3
REMARK VINA RESULT:       0.0      3.662      6.881
REMARK  Name = *****
REMARK                            x       y       z     vdW  Elec       q    Type
REMARK                         _______ _______ _______ _____ _____    ______ ____
ROOT
ATOM      1  C   LIG    1       23.902 -18.356   3.997  0.00  0.00    -0.027 A 
ATOM      2  C   LIG    1       23.863 -19.207   5.125  0.00  0.00    -0.033 A 
ATOM      3  C   LIG    1       22.572 -19.380   5.893  0.00  0.00    +0.045 C 
ATOM      4  C   LIG    1       25.058 -19.905   5.533  0.00  0.00    +0.043 A 
ATOM      5  C   LIG    1       26.286 -19.574   4.929  0.00  0.00    +0.078 A 
ATOM      6  N   LIG    1       27.454 -20.095   5.293  0.00  0.00    -0.215 NA
ATOM      7  C   LIG    1       27.452 -21.018   6.249  0.00  0.00    +0.215 A 
ATOM      8  N   LIG    1       26.360 -21.475   6.858  0.00  0.00    -0.200 NA
ATOM      9  C   LIG    1       26.299 -18.676   3.879  0.00  0.00    +0.029 A 
ATOM     10  C   LIG    1       25.194 -20.944   6.477  0.00  0.00    +0.129 A 
ATOM     11  C   LIG    1       25.136 -18.096   3.388  0.00  0.00    +0.007 A 
ENDROOT
BRANCH   7  12
ATOM     12  N   LIG    1       28.670 -21.519   6.655  0.00  0.00    -0.327 N 
ATOM     13  H   LIG    1       29.292 -21.580   5.861  0.00  0.00    +0.145 HD
ATOM     14  H   LIG    1       28.520 -22.369   7.185  0.00  0.00    +0.145 HD
ENDBRANCH   7  12
BRANCH  10  15
ATOM     15  N   LIG    1       24.085 -21.572   7.062  0.00  0.00    -0.343 N 
ATOM     16  H   LIG    1       23.271 -21.467   6.467  0.00  0.00    +0.144 HD
ATOM     17  H   LIG    1       24.333 -22.554   7.162  0.00  0.00    +0.144 HD
ENDBRANCH  10  15
BRANCH   1  18
ATOM     18  C   LIG    1       22.669 -17.729   3.389  0.00  0.00    +0.137 C 
BRANCH  18  19
ATOM     19  N   LIG    1       22.374 -16.453   4.018  0.00  0.00    -0.340 N 
ATOM     20  H   LIG    1       21.804 -16.516   4.857  0.00  0.00    +0.146 HD
BRANCH  19  25
ATOM     21  C   LIG    1       24.274 -13.373   4.962  0.00  0.00    +0.167 A 
ATOM     22  C   LIG    1       25.516 -13.632   4.349  0.00  0.00    +0.204 A 
ATOM     23  C   LIG    1       25.674 -14.808   3.593  0.00  0.00    +0.167 A 
ATOM     24  C   LIG    1       24.614 -15.728   3.515  0.00  0.00    +0.072 A 
ATOM     25  C   LIG    1       23.368 -15.473   4.095  0.00  0.00    +0.035 A 
ATOM     26  C   LIG    1       23.231 -14.297   4.836  0.00  0.00    +0.072 A 
BRANCH  21  28
ATOM     27  C   LIG    1       22.944 -11.455   5.513  0.00  0.00    +0.277 C 
ATOM     28  O   LIG    1       24.158 -12.185   5.646  0.00  0.00    -0.491 OA
ENDBRANCH  21  28
BRANCH  22  29
ATOM     29  O   LIG    1       26.491 -12.700   4.619  0.00  0.00    -0.488 OA
ATOM     30  C   LIG    1       27.654 -13.129   5.307  0.00  0.00    +0.277 C 
ENDBRANCH  22  29
BRANCH  23  31
ATOM     31  O   LIG    1       26.886 -15.079   3.012  0.00  0.00    -0.491 OA
ATOM     32  C   LIG    1       27.389 -14.091   2.114  0.00  0.00    +0.277 C 
ENDBRANCH  23  31
ENDBRANCH  19  25
ENDBRANCH  18  19
ENDBRANCH   1  18
TORSDOF 8
ENDMDL
