MODEL 1
REMARK VINA RESULT:      -7.7      0.000      0.000
REMARK  Name = *****
REMARK                            x       y       z     vdW  Elec       q    Type
REMARK                         _______ _______ _______ _____ _____    ______ ____
ROOT
ATOM      1  C   LIG    1       26.659 -20.451   6.491  0.00  0.00    -0.045 A 
ATOM      2  C   LIG    1       25.515 -20.412   5.674  0.00  0.00    +0.016 A 
ATOM      3  C   LIG    1       24.233 -20.640   6.211  0.00  0.00    +0.055 A 
ATOM      4  C   LIG    1       24.106 -20.897   7.581  0.00  0.00    +0.012 A 
ATOM      5  C   LIG    1       25.235 -20.931   8.400  0.00  0.00    +0.001 A 
ATOM      6  C   LIG    1       26.502 -20.715   7.856  0.00  0.00    +0.003 A 
ENDROOT
BRANCH   3   7
ATOM      7  C   LIG    1       23.025 -20.612   5.307  0.00  0.00    +0.417 C 
ATOM      8  F   LIG    1       23.357 -20.722   3.990  0.00  0.00    -0.166 F 
ATOM      9  F   LIG    1       22.312 -19.457   5.416  0.00  0.00    -0.166 F 
ATOM     10  F   LIG    1       22.138 -21.620   5.549  0.00  0.00    -0.166 F 
ENDBRANCH   3   7
BRANCH   1  11
ATOM     11  C   LIG    1       28.034 -20.224   5.896  0.00  0.00    +0.053 C 
BRANCH  11  12
ATOM     12  C   LIG    1       29.103 -19.706   6.896  0.00  0.00    +0.055 C 
ATOM     13  C   LIG    1       29.873 -18.520   6.301  0.00  0.00    +0.024 C 
BRANCH  12  14
ATOM     14  N   LIG    1       30.010 -20.822   7.245  0.00  0.00    -0.314 NA
ATOM     15  H   LIG    1       29.461 -21.672   7.380  0.00  0.00    +0.122 HD
BRANCH  14  17
ATOM     16  C   LIG    1       31.197 -21.885   9.111  0.00  0.00    +0.020 C 
ATOM     17  C   LIG    1       30.800 -20.572   8.452  0.00  0.00    +0.077 C 
ENDBRANCH  14  17
ENDBRANCH  12  14
ENDBRANCH  11  12
ENDBRANCH   1  11
TORSDOF 5
ENDMDL
MODEL 2
REMARK VINA RESULT:      -7.6      3.331      4.028
REMARK  Name = *****
REMARK                            x       y       z     vdW  Elec       q    Type
REMARK                         _______ _______ _______ _____ _____    ______ ____
ROOT
ATOM      1  C   LIG    1       25.661 -22.484   7.666  0.00  0.00    -0.045 A 
ATOM      2  C   LIG    1       25.834 -23.767   7.120  0.00  0.00    +0.016 A 
ATOM      3  C   LIG    1       24.745 -24.477   6.579  0.00  0.00    +0.055 A 
ATOM      4  C   LIG    1       23.478 -23.883   6.580  0.00  0.00    +0.012 A 
ATOM      5  C   LIG    1       23.298 -22.607   7.114  0.00  0.00    +0.001 A 
ATOM      6  C   LIG    1       24.382 -21.916   7.658  0.00  0.00    +0.003 A 
ENDROOT
BRANCH   3   7
ATOM      7  C   LIG    1       24.956 -25.863   6.018  0.00  0.00    +0.417 C 
ATOM      8  F   LIG    1       25.149 -25.856   4.669  0.00  0.00    -0.166 F 
ATOM      9  F   LIG    1       23.895 -26.687   6.239  0.00  0.00    -0.166 F 
ATOM     10  F   LIG    1       26.040 -26.505   6.542  0.00  0.00    -0.166 F 
ENDBRANCH   3   7
BRANCH   1  11
ATOM     11  C   LIG    1       26.838 -21.739   8.263  0.00  0.00    +0.053 C 
BRANCH  11  12
ATOM     12  C   LIG    1       27.102 -20.335   7.654  0.00  0.00    +0.055 C 
ATOM     13  C   LIG    1       27.073 -20.395   6.122  0.00  0.00    +0.024 C 
BRANCH  12  14
ATOM     14  N   LIG    1       28.403 -19.837   8.153  0.00  0.00    -0.314 NA
ATOM     15  H   LIG    1       28.477 -18.837   7.961  0.00  0.00    +0.122 HD
BRANCH  14  17
ATOM     16  C   LIG    1       30.582 -19.510   7.072  0.00  0.00    +0.020 C 
ATOM     17  C   LIG    1       29.553 -20.520   7.559  0.00  0.00    +0.077 C 
ENDBRANCH  14  17
ENDBRANCH  12  14
ENDBRANCH  11  12
ENDBRANCH   1  11
TORSDOF 5
ENDMDL
MODEL 3
REMARK VINA RESULT:      -7.5      2.636      3.168
REMARK  Name = *****
REMARK                            x       y       z     vdW  Elec       q    Type
REMARK                         _______ _______ _______ _____ _____    ______ ____
ROOT
ATOM      1  C   LIG    1       26.664 -21.645   7.664  0.00  0.00    -0.045 A 
ATOM      2  C   LIG    1       26.277 -22.911   7.192  0.00  0.00    +0.016 A 
ATOM      3  C   LIG    1       24.924 -23.207   6.938  0.00  0.00    +0.055 A 
ATOM      4  C   LIG    1       23.960 -22.216   7.152  0.00  0.00    +0.012 A 
ATOM      5  C   LIG    1       24.335 -20.954   7.612  0.00  0.00    +0.001 A 
ATOM      6  C   LIG    1       25.678 -20.674   7.872  0.00  0.00    +0.003 A 
ENDROOT
BRANCH   3   7
ATOM      7  C   LIG    1       24.536 -24.583   6.453  0.00  0.00    +0.417 C 
ATOM      8  F   LIG    1       24.649 -24.710   5.101  0.00  0.00    -0.166 F 
ATOM      9  F   LIG    1       23.245 -24.900   6.750  0.00  0.00    -0.166 F 
ATOM     10  F   LIG    1       25.296 -25.584   6.982  0.00  0.00    -0.166 F 
ENDBRANCH   3   7
BRANCH   1  11
ATOM     11  C   LIG    1       28.122 -21.346   7.952  0.00  0.00    +0.053 C 
BRANCH  11  12
ATOM     12  C   LIG    1       28.561 -19.886   7.660  0.00  0.00    +0.055 C 
ATOM     13  C   LIG    1       28.876 -19.702   6.170  0.00  0.00    +0.024 C 
BRANCH  12  14
ATOM     14  N   LIG    1       29.732 -19.562   8.506  0.00  0.00    -0.314 NA
ATOM     15  H   LIG    1       29.505 -19.754   9.482  0.00  0.00    +0.122 HD
BRANCH  14  17
ATOM     16  C   LIG    1       30.227 -17.508   9.754  0.00  0.00    +0.020 C 
ATOM     17  C   LIG    1       30.168 -18.170   8.385  0.00  0.00    +0.077 C 
ENDBRANCH  14  17
ENDBRANCH  12  14
ENDBRANCH  11  12
ENDBRANCH   1  11
TORSDOF 5
ENDMDL
MODEL 4
REMARK VINA RESULT:      -7.4      3.482      4.865
REMARK  Name = *****
REMARK                            x       y       z     vdW  Elec       q    Type
REMARK                         _______ _______ _______ _____ _____    ______ ____
ROOT
ATOM      1  C   LIG    1       24.796 -21.895   6.957  0.00  0.00    -0.045 A 
ATOM      2  C   LIG    1       25.369 -23.156   6.717  0.00  0.00    +0.016 A 
ATOM      3  C   LIG    1       24.564 -24.304   6.583  0.00  0.00    +0.055 A 
ATOM      4  C   LIG    1       23.174 -24.174   6.683  0.00  0.00    +0.012 A 
ATOM      5  C   LIG    1       22.596 -22.926   6.914  0.00  0.00    +0.001 A 
ATOM      6  C   LIG    1       23.404 -21.796   7.056  0.00  0.00    +0.003 A 
ENDROOT
BRANCH   3   7
ATOM      7  C   LIG    1       25.208 -25.648   6.347  0.00  0.00    +0.417 C 
ATOM      8  F   LIG    1       26.095 -25.981   7.326  0.00  0.00    -0.166 F 
ATOM      9  F   LIG    1       25.906 -25.699   5.179  0.00  0.00    -0.166 F 
ATOM     10  F   LIG    1       24.316 -26.679   6.292  0.00  0.00    -0.166 F 
ENDBRANCH   3   7
BRANCH   1  11
ATOM     11  C   LIG    1       25.676 -20.671   7.118  0.00  0.00    +0.053 C 
BRANCH  11  12
ATOM     12  C   LIG    1       27.019 -20.723   6.341  0.00  0.00    +0.055 C 
ATOM     13  C   LIG    1       28.165 -20.175   7.202  0.00  0.00    +0.024 C 
BRANCH  12  14
ATOM     14  N   LIG    1       26.872 -19.958   5.083  0.00  0.00    -0.314 NA
ATOM     15  H   LIG    1       27.005 -18.964   5.275  0.00  0.00    +0.122 HD
BRANCH  14  17
ATOM     16  C   LIG    1       25.199 -18.920   3.617  0.00  0.00    +0.020 C 
ATOM     17  C   LIG    1       25.570 -20.146   4.439  0.00  0.00    +0.077 C 
ENDBRANCH  14  17
ENDBRANCH  12  14
ENDBRANCH  11  12
ENDBRANCH   1  11
TORSDOF 5
ENDMDL
MODEL 5
REMARK VINA RESULT:      -7.4      4.134      5.529
REMARK  Name = *****
REMARK                            x       y       z     vdW  Elec       q    Type
REMARK                         _______ _______ _______ _____ _____    ______ ____
ROOT
ATOM      1  C   LIG    1       23.691 -21.381   6.404  0.00  0.00    -0.045 A 
ATOM      2  C   LIG    1       23.903 -22.739   6.113  0.00  0.00    +0.016 A 
ATOM      3  C   LIG    1       24.895 -23.478   6.788  0.00  0.00    +0.055 A 
ATOM      4  C   LIG    1       25.666 -22.843   7.768  0.00  0.00    +0.012 A 
ATOM      5  C   LIG    1       25.457 -21.497   8.069  0.00  0.00    +0.001 A 
ATOM      6  C   LIG    1       24.479 -20.771   7.386  0.00  0.00    +0.003 A 
ENDROOT
BRANCH   3   7
ATOM      7  C   LIG    1       25.115 -24.930   6.440  0.00  0.00    +0.417 C 
ATOM      8  F   LIG    1       23.967 -25.662   6.501  0.00  0.00    -0.166 F 
ATOM      9  F   LIG    1       25.994 -25.544   7.280  0.00  0.00    -0.166 F 
ATOM     10  F   LIG    1       25.608 -25.122   5.182  0.00  0.00    -0.166 F 
ENDBRANCH   3   7
BRANCH   1  11
ATOM     11  C   LIG    1       22.634 -20.592   5.656  0.00  0.00    +0.053 C 
BRANCH  11  12
ATOM     12  C   LIG    1       23.176 -19.405   4.815  0.00  0.00    +0.055 C 
ATOM     13  C   LIG    1       22.034 -18.471   4.396  0.00  0.00    +0.024 C 
BRANCH  12  14
ATOM     14  N   LIG    1       23.895 -19.944   3.639  0.00  0.00    -0.314 NA
ATOM     15  H   LIG    1       23.763 -20.955   3.597  0.00  0.00    +0.122 HD
BRANCH  14  17
ATOM     16  C   LIG    1       25.581 -18.184   3.345  0.00  0.00    +0.020 C 
ATOM     17  C   LIG    1       25.330 -19.654   3.653  0.00  0.00    +0.077 C 
ENDBRANCH  14  17
ENDBRANCH  12  14
ENDBRANCH  11  12
ENDBRANCH   1  11
TORSDOF 5
ENDMDL
MODEL 6
REMARK VINA RESULT:      -7.4      1.453      1.941
REMARK  Name = *****
REMARK                            x       y       z     vdW  Elec       q    Type
REMARK                         _______ _______ _______ _____ _____    ______ ____
ROOT
ATOM      1  C   LIG    1       25.916 -21.018   6.726  0.00  0.00    -0.045 A 
ATOM      2  C   LIG    1       25.649 -20.450   5.469  0.00  0.00    +0.016 A 
ATOM      3  C   LIG    1       24.335 -20.116   5.089  0.00  0.00    +0.055 A 
ATOM      4  C   LIG    1       23.288 -20.347   5.989  0.00  0.00    +0.012 A 
ATOM      5  C   LIG    1       23.544 -20.904   7.242  0.00  0.00    +0.001 A 
ATOM      6  C   LIG    1       24.850 -21.242   7.604  0.00  0.00    +0.003 A 
ENDROOT
BRANCH   3   7
ATOM      7  C   LIG    1       24.075 -19.527   3.724  0.00  0.00    +0.417 C 
ATOM      8  F   LIG    1       24.123 -20.463   2.734  0.00  0.00    -0.166 F 
ATOM      9  F   LIG    1       24.986 -18.574   3.380  0.00  0.00    -0.166 F 
ATOM     10  F   LIG    1       22.853 -18.931   3.609  0.00  0.00    -0.166 F 
ENDBRANCH   3   7
BRANCH   1  11
ATOM     11  C   LIG    1       27.333 -21.391   7.114  0.00  0.00    +0.053 C 
BRANCH  11  12
ATOM     12  C   LIG    1       28.260 -20.189   7.442  0.00  0.00    +0.055 C 
ATOM     13  C   LIG    1       28.859 -19.600   6.158  0.00  0.00    +0.024 C 
BRANCH  12  14
ATOM     14  N   LIG    1       29.316 -20.643   8.374  0.00  0.00    -0.314 NA
ATOM     15  H   LIG    1       29.093 -20.323   9.318  0.00  0.00    +0.122 HD
BRANCH  14  17
ATOM     16  C   LIG    1       31.159 -19.168   9.048  0.00  0.00    +0.020 C 
ATOM     17  C   LIG    1       30.653 -20.165   8.015  0.00  0.00    +0.077 C 
ENDBRANCH  14  17
ENDBRANCH  12  14
ENDBRANCH  11  12
ENDBRANCH   1  11
TORSDOF 5
ENDMDL
MODEL 7
REMARK VINA RESULT:      -7.4      1.179      1.492
REMARK  Name = *****
REMARK                            x       y       z     vdW  Elec       q    Type
REMARK                         _______ _______ _______ _____ _____    ______ ____
ROOT
ATOM      1  C   LIG    1       26.163 -21.241   7.443  0.00  0.00    -0.045 A 
ATOM      2  C   LIG    1       25.069 -20.642   6.797  0.00  0.00    +0.016 A 
ATOM      3  C   LIG    1       24.094 -21.423   6.147  0.00  0.00    +0.055 A 
ATOM      4  C   LIG    1       24.222 -22.817   6.159  0.00  0.00    +0.012 A 
ATOM      5  C   LIG    1       25.301 -23.421   6.804  0.00  0.00    +0.001 A 
ATOM      6  C   LIG    1       26.268 -22.637   7.436  0.00  0.00    +0.003 A 
ENDROOT
BRANCH   3   7
ATOM      7  C   LIG    1       22.941 -20.751   5.443  0.00  0.00    +0.417 C 
ATOM      8  F   LIG    1       23.251 -20.379   4.170  0.00  0.00    -0.166 F 
ATOM      9  F   LIG    1       22.529 -19.616   6.073  0.00  0.00    -0.166 F 
ATOM     10  F   LIG    1       21.832 -21.539   5.336  0.00  0.00    -0.166 F 
ENDBRANCH   3   7
BRANCH   1  11
ATOM     11  C   LIG    1       27.216 -20.387   8.122  0.00  0.00    +0.053 C 
BRANCH  11  12
ATOM     12  C   LIG    1       28.481 -20.105   7.267  0.00  0.00    +0.055 C 
ATOM     13  C   LIG    1       28.117 -19.985   5.782  0.00  0.00    +0.024 C 
BRANCH  12  14
ATOM     14  N   LIG    1       29.463 -21.187   7.500  0.00  0.00    -0.314 NA
ATOM     15  H   LIG    1       28.995 -21.978   7.943  0.00  0.00    +0.122 HD
BRANCH  14  17
ATOM     16  C   LIG    1       31.107 -21.953   9.154  0.00  0.00    +0.020 C 
ATOM     17  C   LIG    1       30.592 -20.776   8.338  0.00  0.00    +0.077 C 
ENDBRANCH  14  17
ENDBRANCH  12  14
ENDBRANCH  11  12
ENDBRANCH   1  11
TORSDOF 5
ENDMDL
MODEL 8
REMARK VINA RESULT:      -7.3      4.769      6.054
REMARK  Name = *****
REMARK                            x       y       z     vdW  Elec       q    Type
REMARK                         _______ _______ _______ _____ _____    ______ ____
ROOT
ATOM      1  C   LIG    1       23.998 -23.518   6.739  0.00  0.00    -0.045 A 
ATOM      2  C   LIG    1       25.104 -22.909   7.358  0.00  0.00    +0.016 A 
ATOM      3  C   LIG    1       25.130 -21.520   7.590  0.00  0.00    +0.055 A 
ATOM      4  C   LIG    1       24.029 -20.746   7.206  0.00  0.00    +0.012 A 
ATOM      5  C   LIG    1       22.924 -21.342   6.598  0.00  0.00    +0.001 A 
ATOM      6  C   LIG    1       22.913 -22.719   6.361  0.00  0.00    +0.003 A 
ENDROOT
BRANCH   3   7
ATOM      7  C   LIG    1       26.339 -20.890   8.237  0.00  0.00    +0.417 C 
ATOM      8  F   LIG    1       26.031 -20.229   9.388  0.00  0.00    -0.166 F 
ATOM      9  F   LIG    1       26.949 -19.975   7.434  0.00  0.00    -0.166 F 
ATOM     10  F   LIG    1       27.308 -21.789   8.577  0.00  0.00    -0.166 F 
ENDBRANCH   3   7
BRANCH   1  11
ATOM     11  C   LIG    1       23.992 -25.011   6.476  0.00  0.00    +0.053 C 
BRANCH  11  12
ATOM     12  C   LIG    1       25.368 -25.611   6.079  0.00  0.00    +0.055 C 
ATOM     13  C   LIG    1       25.413 -25.918   4.576  0.00  0.00    +0.024 C 
BRANCH  12  14
ATOM     14  N   LIG    1       25.609 -26.826   6.888  0.00  0.00    -0.314 NA
ATOM     15  H   LIG    1       26.591 -27.095   6.809  0.00  0.00    +0.122 HD
BRANCH  14  17
ATOM     16  C   LIG    1       24.935 -29.112   7.476  0.00  0.00    +0.020 C 
ATOM     17  C   LIG    1       24.774 -27.962   6.492  0.00  0.00    +0.077 C 
ENDBRANCH  14  17
ENDBRANCH  12  14
ENDBRANCH  11  12
ENDBRANCH   1  11
TORSDOF 5
ENDMDL
MODEL 9
REMARK VINA RESULT:      -7.3      3.808      5.093
REMARK  Name = *****
REMARK                            x       y       z     vdW  Elec       q    Type
REMARK                         _______ _______ _______ _____ _____    ______ ____
ROOT
ATOM      1  C   LIG    1       24.908 -22.445   6.405  0.00  0.00    -0.045 A 
ATOM      2  C   LIG    1       24.962 -21.685   5.224  0.00  0.00    +0.016 A 
ATOM      3  C   LIG    1       24.152 -20.545   5.058  0.00  0.00    +0.055 A 
ATOM      4  C   LIG    1       23.292 -20.166   6.095  0.00  0.00    +0.012 A 
ATOM      5  C   LIG    1       23.237 -20.909   7.274  0.00  0.00    +0.001 A 
ATOM      6  C   LIG    1       24.036 -22.045   7.424  0.00  0.00    +0.003 A 
ENDROOT
BRANCH   3   7
ATOM      7  C   LIG    1       24.215 -19.760   3.771  0.00  0.00    +0.417 C 
ATOM      8  F   LIG    1       23.175 -18.890   3.638  0.00  0.00    -0.166 F 
ATOM      9  F   LIG    1       24.177 -20.557   2.666  0.00  0.00    -0.166 F 
ATOM     10  F   LIG    1       25.345 -19.006   3.645  0.00  0.00    -0.166 F 
ENDBRANCH   3   7
BRANCH   1  11
ATOM     11  C   LIG    1       25.771 -23.681   6.562  0.00  0.00    +0.053 C 
BRANCH  11  12
ATOM     12  C   LIG    1       25.318 -24.906   5.722  0.00  0.00    +0.055 C 
ATOM     13  C   LIG    1       23.927 -25.381   6.161  0.00  0.00    +0.024 C 
BRANCH  12  14
ATOM     14  N   LIG    1       26.327 -25.980   5.864  0.00  0.00    -0.314 NA
ATOM     15  H   LIG    1       27.262 -25.573   5.807  0.00  0.00    +0.122 HD
BRANCH  14  17
ATOM     16  C   LIG    1       25.541 -28.266   5.440  0.00  0.00    +0.020 C 
ATOM     17  C   LIG    1       26.205 -27.029   4.851  0.00  0.00    +0.077 C 
ENDBRANCH  14  17
ENDBRANCH  12  14
ENDBRANCH  11  12
ENDBRANCH   1  11
TORSDOF 5
ENDMDL
