MODEL 1
REMARK VINA RESULT:       3.1      0.000      0.000
REMARK  Name = *****
REMARK                            x       y       z     vdW  Elec       q    Type
REMARK                         _______ _______ _______ _____ _____    ______ ____
ROOT
ATOM      1  C   LIG    1       27.455 -18.853   4.706  0.00  0.00    +0.057 A 
ATOM      2  C   LIG    1       27.142 -17.516   4.342  0.00  0.00    +0.022 A 
ATOM      3  C   LIG    1       25.821 -17.291   3.856  0.00  0.00    +0.084 A 
ATOM      4  N   LIG    1       24.932 -18.309   3.784  0.00  0.00    -0.212 NA
ATOM      5  C   LIG    1       25.329 -19.512   4.168  0.00  0.00    +0.238 A 
ATOM      6  N   LIG    1       26.542 -19.848   4.605  0.00  0.00    -0.217 NA
ENDROOT
BRANCH   3   7
ATOM      7  C   LIG    1       25.178 -16.005   3.372  0.00  0.00    +0.001 A 
ATOM      8  C   LIG    1       23.942 -15.566   3.930  0.00  0.00    +0.013 A 
ATOM      9  C   LIG    1       23.289 -14.391   3.518  0.00  0.00    +0.039 A 
ATOM     10  C   LIG    1       23.859 -13.611   2.530  0.00  0.00    +0.123 A 
ATOM     11  F   LIG    1       23.232 -12.507   2.101  0.00  0.00    -0.205 F 
ATOM     12  C   LIG    1       25.095 -13.954   2.006  0.00  0.00    +0.039 A 
ATOM     13  C   LIG    1       25.752 -15.122   2.443  0.00  0.00    +0.013 A 
ENDBRANCH   3   7
BRANCH   1  15
ATOM     14  C   LIG    1       29.441 -18.147   6.085  0.00  0.00    +0.014 C 
ATOM     15  C   LIG    1       28.781 -19.314   5.329  0.00  0.00    +0.032 C 
ATOM     16  C   LIG    1       28.661 -20.488   6.322  0.00  0.00    +0.014 C 
ENDBRANCH   1  15
BRANCH   2  17
ATOM     17  C   LIG    1       28.151 -16.436   4.446  0.00  0.00    +0.010 C 
ATOM     18  C   LIG    1       27.844 -15.124   4.394  0.00  0.00    +0.005 C 
BRANCH  18  19
ATOM     19  C   LIG    1       28.852 -14.002   4.284  0.00  0.00    +0.140 C 
BRANCH  19  20
ATOM     20  O   LIG    1       28.997 -13.716   2.899  0.00  0.00    -0.388 OA
ATOM     21  H   LIG    1       29.933 -13.811   2.660  0.00  0.00    +0.210 HD
ENDBRANCH  19  20
BRANCH  19  22
ATOM     22  C   LIG    1       28.526 -12.687   5.022  0.00  0.00    +0.067 C 
BRANCH  22  23
ATOM     23  C   LIG    1       27.169 -12.014   4.723  0.00  0.00    +0.128 C 
BRANCH  23  24
ATOM     24  O   LIG    1       26.958 -11.981   3.291  0.00  0.00    -0.391 OA
ATOM     25  H   LIG    1       26.899 -11.052   2.999  0.00  0.00    +0.210 HD
ENDBRANCH  23  24
BRANCH  23  26
ATOM     26  C   LIG    1       25.958 -12.758   5.291  0.00  0.00    +0.151 C 
BRANCH  26  27
ATOM     27  C   LIG    1       24.753 -11.886   5.535  0.00  0.00    +0.307 C 
ATOM     28  O   LIG    1       24.452 -11.466   6.650  0.00  0.00    -0.251 OA
BRANCH  27  29
ATOM     29  O   LIG    1       23.976 -11.646   4.461  0.00  0.00    -0.481 OA
ATOM     30  H   LIG    1       24.161 -12.293   3.736  0.00  0.00    +0.295 HD
ENDBRANCH  27  29
ENDBRANCH  26  27
ENDBRANCH  23  26
ENDBRANCH  22  23
ENDBRANCH  19  22
ENDBRANCH  18  19
ENDBRANCH   2  17
BRANCH   5  31
ATOM     31  N   LIG    1       24.352 -20.514   4.177  0.00  0.00    -0.178 N 
ATOM     32  C   LIG    1       23.806 -20.873   2.866  0.00  0.00    +0.160 C 
BRANCH  31  33
ATOM     33  S   LIG    1       23.302 -20.444   5.475  0.00  0.00    +0.045 S 
ATOM     34  O   LIG    1       22.373 -21.571   5.403  0.00  0.00    -0.155 OA
ATOM     35  O   LIG    1       22.797 -19.101   5.571  0.00  0.00    -0.155 OA
ATOM     36  C   LIG    1       24.335 -20.729   6.905  0.00  0.00    +0.218 C 
ENDBRANCH  31  33
ENDBRANCH   5  31
TORSDOF 13
ENDMDL
MODEL 2
REMARK VINA RESULT:       5.4      3.382      7.691
REMARK  Name = *****
REMARK                            x       y       z     vdW  Elec       q    Type
REMARK                         _______ _______ _______ _____ _____    ______ ____
ROOT
ATOM      1  C   LIG    1       25.264 -15.283   3.173  0.00  0.00    +0.057 A 
ATOM      2  C   LIG    1       25.628 -16.565   3.666  0.00  0.00    +0.022 A 
ATOM      3  C   LIG    1       26.930 -16.672   4.237  0.00  0.00    +0.084 A 
ATOM      4  N   LIG    1       27.738 -15.588   4.315  0.00  0.00    -0.212 NA
ATOM      5  C   LIG    1       27.286 -14.438   3.839  0.00  0.00    +0.238 A 
ATOM      6  N   LIG    1       26.107 -14.226   3.256  0.00  0.00    -0.217 NA
ENDROOT
BRANCH   3   7
ATOM      7  C   LIG    1       27.627 -17.882   4.829  0.00  0.00    +0.001 A 
ATOM      8  C   LIG    1       27.092 -19.188   4.627  0.00  0.00    +0.013 A 
ATOM      9  C   LIG    1       27.682 -20.349   5.157  0.00  0.00    +0.039 A 
ATOM     10  C   LIG    1       28.836 -20.238   5.908  0.00  0.00    +0.123 A 
ATOM     11  F   LIG    1       29.392 -21.330   6.450  0.00  0.00    -0.205 F 
ATOM     12  C   LIG    1       29.438 -19.001   6.073  0.00  0.00    +0.039 A 
ATOM     13  C   LIG    1       28.850 -17.847   5.518  0.00  0.00    +0.013 A 
ENDBRANCH   3   7
BRANCH   1  15
ATOM     14  C   LIG    1       22.798 -15.122   3.660  0.00  0.00    +0.014 C 
ATOM     15  C   LIG    1       23.891 -14.914   2.596  0.00  0.00    +0.032 C 
ATOM     16  C   LIG    1       23.763 -13.461   2.095  0.00  0.00    +0.014 C 
ENDBRANCH   1  15
BRANCH   2  17
ATOM     17  C   LIG    1       24.703 -17.718   3.561  0.00  0.00    +0.010 C 
ATOM     18  C   LIG    1       25.066 -18.919   3.064  0.00  0.00    +0.005 C 
BRANCH  18  19
ATOM     19  C   LIG    1       24.111 -20.047   2.746  0.00  0.00    +0.140 C 
BRANCH  19  20
ATOM     20  O   LIG    1       24.599 -21.199   3.419  0.00  0.00    -0.388 OA
ATOM     21  H   LIG    1       24.990 -21.799   2.763  0.00  0.00    +0.210 HD
ENDBRANCH  19  20
BRANCH  19  22
ATOM     22  C   LIG    1       22.630 -19.846   3.133  0.00  0.00    +0.067 C 
BRANCH  22  23
ATOM     23  C   LIG    1       22.309 -18.803   4.224  0.00  0.00    +0.128 C 
BRANCH  23  24
ATOM     24  O   LIG    1       20.877 -18.594   4.278  0.00  0.00    -0.391 OA
ATOM     25  H   LIG    1       20.432 -19.310   3.788  0.00  0.00    +0.210 HD
ENDBRANCH  23  24
BRANCH  23  26
ATOM     26  C   LIG    1       22.708 -19.229   5.640  0.00  0.00    +0.151 C 
BRANCH  26  27
ATOM     27  C   LIG    1       22.876 -20.716   5.816  0.00  0.00    +0.307 C 
ATOM     28  O   LIG    1       21.968 -21.517   5.605  0.00  0.00    -0.251 OA
BRANCH  27  29
ATOM     29  O   LIG    1       24.071 -21.118   6.290  0.00  0.00    -0.481 OA
ATOM     30  H   LIG    1       24.801 -20.880   5.666  0.00  0.00    +0.295 HD
ENDBRANCH  27  29
ENDBRANCH  26  27
ENDBRANCH  23  26
ENDBRANCH  22  23
ENDBRANCH  19  22
ENDBRANCH  18  19
ENDBRANCH   2  17
BRANCH   5  31
ATOM     31  N   LIG    1       28.107 -13.321   4.033  0.00  0.00    -0.178 N 
ATOM     32  C   LIG    1       29.469 -13.441   3.503  0.00  0.00    +0.160 C 
BRANCH  31  33
ATOM     33  S   LIG    1       27.899 -12.557   5.503  0.00  0.00    +0.045 S 
ATOM     34  O   LIG    1       26.581 -11.926   5.534  0.00  0.00    -0.155 OA
ATOM     35  O   LIG    1       29.076 -11.777   5.774  0.00  0.00    -0.155 OA
ATOM     36  C   LIG    1       27.853 -13.885   6.697  0.00  0.00    +0.218 C 
ENDBRANCH  31  33
ENDBRANCH   5  31
TORSDOF 13
ENDMDL
