MODEL 1
REMARK VINA RESULT:       2.2      0.000      0.000
REMARK  Name = *****
REMARK                            x       y       z     vdW  Elec       q    Type
REMARK                         _______ _______ _______ _____ _____    ______ ____
ROOT
ATOM      1  C   LIG    1       26.269 -19.353   4.177  0.00  0.00    +0.078 C 
ATOM      2  C   LIG    1       25.718 -18.002   3.856  0.00  0.00    +0.023 A 
ATOM      3  C   LIG    1       24.331 -17.745   3.805  0.00  0.00    +0.044 A 
ATOM      4  C   LIG    1       23.919 -16.419   3.567  0.00  0.00    +0.025 A 
ATOM      5  C   LIG    1       24.845 -15.394   3.356  0.00  0.00    +0.022 A 
ATOM      6  C   LIG    1       26.205 -15.676   3.375  0.00  0.00    +0.042 A 
ATOM      7 CL   LIG    1       27.342 -14.416   3.105  0.00  0.00    -0.084 Cl
ATOM      8  N   LIG    1       23.330 -18.769   3.970  0.00  0.00    -0.287 N 
ATOM      9  C   LIG    1       23.488 -20.061   3.434  0.00  0.00    +0.077 C 
ATOM     10  S   LIG    1       22.364 -21.314   3.578  0.00  0.00    -0.038 S 
ATOM     11  C   LIG    1       24.767 -20.331   2.637  0.00  0.00    +0.201 C 
ATOM     12  C   LIG    1       26.646 -16.972   3.614  0.00  0.00    +0.032 A 
ATOM     13  N   LIG    1       25.861 -20.436   3.598  0.00  0.00    -0.276 NA
ENDROOT
BRANCH   1  16
ATOM     14  F   LIG    1       26.454 -21.469   6.161  0.00  0.00    -0.205 F 
ATOM     15  C   LIG    1       27.404 -20.523   6.129  0.00  0.00    +0.133 A 
ATOM     16  C   LIG    1       27.372 -19.497   5.182  0.00  0.00    +0.036 A 
ATOM     17  C   LIG    1       28.432 -18.577   5.150  0.00  0.00    +0.013 A 
ATOM     18  C   LIG    1       29.475 -18.661   6.076  0.00  0.00    +0.001 A 
ATOM     19  C   LIG    1       29.474 -19.668   7.040  0.00  0.00    +0.003 A 
ATOM     20  C   LIG    1       28.440 -20.605   7.062  0.00  0.00    +0.039 A 
ENDBRANCH   1  16
BRANCH   8  21
ATOM     21  C   LIG    1       22.092 -18.390   4.710  0.00  0.00    +0.224 C 
BRANCH  21  22
ATOM     22  C   LIG    1       20.822 -18.223   3.868  0.00  0.00    +0.406 C 
ATOM     23  F   LIG    1       19.991 -19.277   4.073  0.00  0.00    -0.169 F 
ATOM     24  F   LIG    1       21.095 -18.186   2.546  0.00  0.00    -0.169 F 
ATOM     25  F   LIG    1       20.125 -17.109   4.183  0.00  0.00    -0.169 F 
ENDBRANCH  21  22
ENDBRANCH   8  21
TORSDOF 3
ENDMDL
MODEL 2
REMARK VINA RESULT:       4.7      4.081      5.974
REMARK  Name = *****
REMARK                            x       y       z     vdW  Elec       q    Type
REMARK                         _______ _______ _______ _____ _____    ______ ____
ROOT
ATOM      1  C   LIG    1       25.645 -18.709   4.066  0.00  0.00    +0.078 C 
ATOM      2  C   LIG    1       26.988 -18.600   4.710  0.00  0.00    +0.023 A 
ATOM      3  C   LIG    1       27.660 -17.366   4.852  0.00  0.00    +0.044 A 
ATOM      4  C   LIG    1       28.888 -17.365   5.542  0.00  0.00    +0.025 A 
ATOM      5  C   LIG    1       29.445 -18.545   6.044  0.00  0.00    +0.022 A 
ATOM      6  C   LIG    1       28.785 -19.753   5.861  0.00  0.00    +0.042 A 
ATOM      7 CL   LIG    1       29.475 -21.204   6.470  0.00  0.00    -0.084 Cl
ATOM      8  N   LIG    1       27.157 -16.126   4.317  0.00  0.00    -0.287 N 
ATOM      9  C   LIG    1       26.516 -16.058   3.066  0.00  0.00    +0.077 C 
ATOM     10  S   LIG    1       25.904 -14.647   2.367  0.00  0.00    -0.038 S 
ATOM     11  C   LIG    1       26.396 -17.362   2.275  0.00  0.00    +0.201 C 
ATOM     12  C   LIG    1       27.567 -19.790   5.191  0.00  0.00    +0.032 A 
ATOM     13  N   LIG    1       25.366 -18.168   2.923  0.00  0.00    -0.276 NA
ENDROOT
BRANCH   1  16
ATOM     14  F   LIG    1       22.797 -18.294   3.661  0.00  0.00    -0.205 F 
ATOM     15  C   LIG    1       23.200 -19.251   4.509  0.00  0.00    +0.133 A 
ATOM     16  C   LIG    1       24.557 -19.504   4.723  0.00  0.00    +0.036 A 
ATOM     17  C   LIG    1       24.919 -20.566   5.566  0.00  0.00    +0.013 A 
ATOM     18  C   LIG    1       23.941 -21.326   6.213  0.00  0.00    +0.001 A 
ATOM     19  C   LIG    1       22.591 -21.037   6.020  0.00  0.00    +0.003 A 
ATOM     20  C   LIG    1       22.220 -20.003   5.161  0.00  0.00    +0.039 A 
ENDBRANCH   1  16
BRANCH   8  21
ATOM     21  C   LIG    1       27.377 -14.899   5.136  0.00  0.00    +0.224 C 
BRANCH  21  22
ATOM     22  C   LIG    1       27.910 -13.671   4.390  0.00  0.00    +0.406 C 
ATOM     23  F   LIG    1       28.580 -12.863   5.251  0.00  0.00    -0.169 F 
ATOM     24  F   LIG    1       26.912 -12.936   3.853  0.00  0.00    -0.169 F 
ATOM     25  F   LIG    1       28.774 -13.990   3.402  0.00  0.00    -0.169 F 
ENDBRANCH  21  22
ENDBRANCH   8  21
TORSDOF 3
ENDMDL
MODEL 3
REMARK VINA RESULT:       4.7      1.725      2.178
REMARK  Name = *****
REMARK                            x       y       z     vdW  Elec       q    Type
REMARK                         _______ _______ _______ _____ _____    ______ ____
ROOT
ATOM      1  C   LIG    1       26.087 -19.049   4.250  0.00  0.00    +0.078 C 
ATOM      2  C   LIG    1       25.731 -17.642   3.892  0.00  0.00    +0.023 A 
ATOM      3  C   LIG    1       24.400 -17.172   3.910  0.00  0.00    +0.044 A 
ATOM      4  C   LIG    1       24.183 -15.810   3.628  0.00  0.00    +0.025 A 
ATOM      5  C   LIG    1       25.241 -14.952   3.310  0.00  0.00    +0.022 A 
ATOM      6  C   LIG    1       26.538 -15.444   3.263  0.00  0.00    +0.042 A 
ATOM      7 CL   LIG    1       27.836 -14.392   2.862  0.00  0.00    -0.084 Cl
ATOM      8  N   LIG    1       23.266 -18.018   4.187  0.00  0.00    -0.287 N 
ATOM      9  C   LIG    1       23.186 -19.340   3.710  0.00  0.00    +0.077 C 
ATOM     10  S   LIG    1       21.894 -20.393   3.985  0.00  0.00    -0.038 S 
ATOM     11  C   LIG    1       24.352 -19.841   2.854  0.00  0.00    +0.201 C 
ATOM     12  C   LIG    1       26.789 -16.782   3.543  0.00  0.00    +0.032 A 
ATOM     13  N   LIG    1       25.478 -20.077   3.753  0.00  0.00    -0.276 NA
ENDROOT
BRANCH   1  16
ATOM     14  F   LIG    1       28.607 -17.602   4.299  0.00  0.00    -0.205 F 
ATOM     15  C   LIG    1       28.419 -18.610   5.164  0.00  0.00    +0.133 A 
ATOM     16  C   LIG    1       27.218 -19.322   5.195  0.00  0.00    +0.036 A 
ATOM     17  C   LIG    1       27.051 -20.318   6.170  0.00  0.00    +0.013 A 
ATOM     18  C   LIG    1       28.083 -20.620   7.062  0.00  0.00    +0.001 A 
ATOM     19  C   LIG    1       29.290 -19.926   6.994  0.00  0.00    +0.003 A 
ATOM     20  C   LIG    1       29.455 -18.915   6.048  0.00  0.00    +0.039 A 
ENDBRANCH   1  16
BRANCH   8  21
ATOM     21  C   LIG    1       22.153 -17.417   4.977  0.00  0.00    +0.224 C 
BRANCH  21  22
ATOM     22  C   LIG    1       22.262 -15.918   5.274  0.00  0.00    +0.406 C 
ATOM     23  F   LIG    1       23.459 -15.649   5.857  0.00  0.00    -0.169 F 
ATOM     24  F   LIG    1       21.303 -15.502   6.129  0.00  0.00    -0.169 F 
ATOM     25  F   LIG    1       22.190 -15.156   4.161  0.00  0.00    -0.169 F 
ENDBRANCH  21  22
ENDBRANCH   8  21
TORSDOF 3
ENDMDL
MODEL 4
REMARK VINA RESULT:       4.8      3.476      6.009
REMARK  Name = *****
REMARK                            x       y       z     vdW  Elec       q    Type
REMARK                         _______ _______ _______ _____ _____    ______ ____
ROOT
ATOM      1  C   LIG    1       24.887 -16.396   3.509  0.00  0.00    +0.078 C 
ATOM      2  C   LIG    1       23.851 -17.434   3.795  0.00  0.00    +0.023 A 
ATOM      3  C   LIG    1       24.130 -18.588   4.558  0.00  0.00    +0.044 A 
ATOM      4  C   LIG    1       23.062 -19.465   4.831  0.00  0.00    +0.025 A 
ATOM      5  C   LIG    1       21.775 -19.225   4.341  0.00  0.00    +0.022 A 
ATOM      6  C   LIG    1       21.532 -18.102   3.561  0.00  0.00    +0.042 A 
ATOM      7 CL   LIG    1       19.952 -17.813   2.950  0.00  0.00    -0.084 Cl
ATOM      8  N   LIG    1       25.444 -18.911   5.053  0.00  0.00    -0.287 N 
ATOM      9  C   LIG    1       26.606 -18.681   4.291  0.00  0.00    +0.077 C 
ATOM     10  S   LIG    1       28.179 -19.034   4.794  0.00  0.00    -0.038 S 
ATOM     11  C   LIG    1       26.414 -18.091   2.892  0.00  0.00    +0.201 C 
ATOM     12  C   LIG    1       22.561 -17.211   3.278  0.00  0.00    +0.032 A 
ATOM     13  N   LIG    1       26.067 -16.683   3.060  0.00  0.00    -0.276 NA
ENDROOT
BRANCH   1  16
ATOM     14  F   LIG    1       25.987 -14.224   1.922  0.00  0.00    -0.205 F 
ATOM     15  C   LIG    1       25.143 -13.935   2.923  0.00  0.00    +0.133 A 
ATOM     16  C   LIG    1       24.571 -14.943   3.701  0.00  0.00    +0.036 A 
ATOM     17  C   LIG    1       23.638 -14.585   4.687  0.00  0.00    +0.013 A 
ATOM     18  C   LIG    1       23.322 -13.243   4.914  0.00  0.00    +0.001 A 
ATOM     19  C   LIG    1       23.930 -12.245   4.154  0.00  0.00    +0.003 A 
ATOM     20  C   LIG    1       24.836 -12.592   3.153  0.00  0.00    +0.039 A 
ENDBRANCH   1  16
BRANCH   8  21
ATOM     21  C   LIG    1       25.522 -19.540   6.403  0.00  0.00    +0.224 C 
BRANCH  21  22
ATOM     22  C   LIG    1       25.538 -21.071   6.440  0.00  0.00    +0.406 C 
ATOM     23  F   LIG    1       25.543 -21.564   5.174  0.00  0.00    -0.169 F 
ATOM     24  F   LIG    1       24.444 -21.572   7.054  0.00  0.00    -0.169 F 
ATOM     25  F   LIG    1       26.631 -21.571   7.058  0.00  0.00    -0.169 F 
ENDBRANCH  21  22
ENDBRANCH   8  21
TORSDOF 3
ENDMDL
