MODEL 1
REMARK VINA RESULT:      -9.5      0.000      0.000
REMARK  Name = *****
REMARK                            x       y       z     vdW  Elec       q    Type
REMARK                         _______ _______ _______ _____ _____    ______ ____
ROOT
ATOM      1  O   LIG    1       29.635 -20.058   6.308  0.00  0.00    -0.273 OA
ATOM      2  C   LIG    1       28.413 -20.210   6.319  0.00  0.00    +0.239 C 
ATOM      3  N   LIG    1       27.702 -19.978   5.170  0.00  0.00    -0.283 N 
ATOM      4  H   LIG    1       28.275 -19.573   4.439  0.00  0.00    +0.155 HD
ATOM      5  C   LIG    1       26.310 -20.025   5.012  0.00  0.00    +0.043 A 
ATOM      6  C   LIG    1       25.447 -20.834   5.773  0.00  0.00    +0.028 A 
ATOM      7  C   LIG    1       24.055 -20.707   5.620  0.00  0.00    +0.096 A 
ATOM      8  C   LIG    1       23.536 -19.838   4.654  0.00  0.00    +0.274 A 
ATOM      9  C   LIG    1       24.391 -19.091   3.839  0.00  0.00    +0.086 A 
ATOM     10  C   LIG    1       25.967 -21.924   6.657  0.00  0.00    +0.075 C 
ATOM     11  N   LIG    1       26.951 -21.789   7.479  0.00  0.00    -0.273 NA
ATOM     12  C   LIG    1       25.773 -19.190   4.020  0.00  0.00    +0.030 A 
ATOM     13  C   LIG    1       27.636 -20.508   7.589  0.00  0.00    +0.238 C 
ENDROOT
BRANCH  10  14
ATOM     14  C   LIG    1       25.328 -23.284   6.588  0.00  0.00    +0.001 A 
ATOM     15  C   LIG    1       23.936 -23.449   6.605  0.00  0.00    +0.010 A 
ATOM     16  C   LIG    1       23.380 -24.730   6.553  0.00  0.00    +0.001 A 
ATOM     17  C   LIG    1       24.207 -25.848   6.455  0.00  0.00    +0.000 A 
ATOM     18  C   LIG    1       25.590 -25.690   6.404  0.00  0.00    +0.001 A 
ATOM     19  C   LIG    1       26.150 -24.412   6.468  0.00  0.00    +0.010 A 
ENDBRANCH  10  14
BRANCH   8  20
ATOM     20  N   LIG    1       22.082 -19.734   4.471  0.00  0.00    +0.080 N 
ATOM     21  O   LIG    1       21.405 -20.755   4.661  0.00  0.00    -0.576 OA
ATOM     22  O   LIG    1       21.621 -18.633   4.144  0.00  0.00    +0.041 OA
ENDBRANCH   8  20
TORSDOF 2
ENDMDL
MODEL 2
REMARK VINA RESULT:      -8.2      2.835      5.760
REMARK  Name = *****
REMARK                            x       y       z     vdW  Elec       q    Type
REMARK                         _______ _______ _______ _____ _____    ______ ____
ROOT
ATOM      1  O   LIG    1       22.365 -19.815   5.257  0.00  0.00    -0.273 OA
ATOM      2  C   LIG    1       23.147 -20.645   5.723  0.00  0.00    +0.239 C 
ATOM      3  N   LIG    1       23.603 -21.656   4.918  0.00  0.00    -0.283 N 
ATOM      4  H   LIG    1       23.130 -21.678   4.023  0.00  0.00    +0.155 HD
ATOM      5  C   LIG    1       24.430 -22.726   5.289  0.00  0.00    +0.043 A 
ATOM      6  C   LIG    1       25.381 -22.678   6.324  0.00  0.00    +0.028 A 
ATOM      7  C   LIG    1       26.066 -23.848   6.699  0.00  0.00    +0.096 A 
ATOM      8  C   LIG    1       25.860 -25.035   5.986  0.00  0.00    +0.274 A 
ATOM      9  C   LIG    1       24.976 -25.067   4.904  0.00  0.00    +0.086 A 
ATOM     10  C   LIG    1       25.783 -21.385   6.963  0.00  0.00    +0.075 C 
ATOM     11  N   LIG    1       24.956 -20.479   7.359  0.00  0.00    -0.273 NA
ATOM     12  C   LIG    1       24.268 -23.913   4.559  0.00  0.00    +0.030 A 
ATOM     13  C   LIG    1       23.523 -20.681   7.194  0.00  0.00    +0.238 C 
ENDROOT
BRANCH  10  14
ATOM     14  C   LIG    1       27.246 -21.091   7.151  0.00  0.00    +0.001 A 
ATOM     15  C   LIG    1       27.990 -21.669   8.189  0.00  0.00    +0.010 A 
ATOM     16  C   LIG    1       29.345 -21.361   8.338  0.00  0.00    +0.001 A 
ATOM     17  C   LIG    1       29.969 -20.498   7.438  0.00  0.00    +0.000 A 
ATOM     18  C   LIG    1       29.244 -19.945   6.384  0.00  0.00    +0.001 A 
ATOM     19  C   LIG    1       27.887 -20.242   6.238  0.00  0.00    +0.010 A 
ENDBRANCH  10  14
BRANCH   8  20
ATOM     20  N   LIG    1       26.604 -26.246   6.355  0.00  0.00    +0.080 N 
ATOM     21  O   LIG    1       26.271 -26.831   7.396  0.00  0.00    -0.576 OA
ATOM     22  O   LIG    1       27.515 -26.612   5.602  0.00  0.00    +0.041 OA
ENDBRANCH   8  20
TORSDOF 2
ENDMDL
MODEL 3
REMARK VINA RESULT:      -8.1      2.466      4.796
REMARK  Name = *****
REMARK                            x       y       z     vdW  Elec       q    Type
REMARK                         _______ _______ _______ _____ _____    ______ ____
ROOT
ATOM      1  O   LIG    1       29.175 -19.308   7.848  0.00  0.00    -0.273 OA
ATOM      2  C   LIG    1       28.378 -20.013   7.227  0.00  0.00    +0.239 C 
ATOM      3  N   LIG    1       27.608 -20.913   7.916  0.00  0.00    -0.283 N 
ATOM      4  H   LIG    1       27.878 -20.986   8.889  0.00  0.00    +0.155 HD
ATOM      5  C   LIG    1       26.709 -21.845   7.377  0.00  0.00    +0.043 A 
ATOM      6  C   LIG    1       26.010 -21.673   6.169  0.00  0.00    +0.028 A 
ATOM      7  C   LIG    1       25.232 -22.727   5.655  0.00  0.00    +0.096 A 
ATOM      8  C   LIG    1       25.091 -23.911   6.389  0.00  0.00    +0.274 A 
ATOM      9  C   LIG    1       25.718 -24.055   7.630  0.00  0.00    +0.086 A 
ATOM     10  C   LIG    1       25.964 -20.351   5.468  0.00  0.00    +0.075 C 
ATOM     11  N   LIG    1       26.993 -19.603   5.254  0.00  0.00    -0.273 NA
ATOM     12  C   LIG    1       26.521 -23.022   8.119  0.00  0.00    +0.030 A 
ATOM     13  C   LIG    1       28.309 -20.030   5.710  0.00  0.00    +0.238 C 
ENDROOT
BRANCH  10  14
ATOM     14  C   LIG    1       24.639 -19.829   4.985  0.00  0.00    +0.001 A 
ATOM     15  C   LIG    1       24.527 -19.057   3.820  0.00  0.00    +0.010 A 
ATOM     16  C   LIG    1       23.280 -18.579   3.411  0.00  0.00    +0.001 A 
ATOM     17  C   LIG    1       22.137 -18.892   4.144  0.00  0.00    +0.000 A 
ATOM     18  C   LIG    1       22.235 -19.687   5.284  0.00  0.00    +0.001 A 
ATOM     19  C   LIG    1       23.481 -20.157   5.703  0.00  0.00    +0.010 A 
ENDBRANCH  10  14
BRANCH   8  20
ATOM     20  N   LIG    1       24.248 -24.995   5.869  0.00  0.00    +0.080 N 
ATOM     21  O   LIG    1       24.679 -25.646   4.906  0.00  0.00    -0.576 OA
ATOM     22  O   LIG    1       23.162 -25.197   6.427  0.00  0.00    +0.041 OA
ENDBRANCH   8  20
TORSDOF 2
ENDMDL
MODEL 4
REMARK VINA RESULT:      -7.7      2.180      4.502
REMARK  Name = *****
REMARK                            x       y       z     vdW  Elec       q    Type
REMARK                         _______ _______ _______ _____ _____    ______ ____
ROOT
ATOM      1  O   LIG    1       23.624 -25.964   6.735  0.00  0.00    -0.273 OA
ATOM      2  C   LIG    1       23.954 -24.860   6.299  0.00  0.00    +0.239 C 
ATOM      3  N   LIG    1       23.081 -23.810   6.413  0.00  0.00    -0.283 N 
ATOM      4  H   LIG    1       22.173 -24.100   6.752  0.00  0.00    +0.155 HD
ATOM      5  C   LIG    1       23.249 -22.510   5.913  0.00  0.00    +0.043 A 
ATOM      6  C   LIG    1       24.494 -21.883   5.724  0.00  0.00    +0.028 A 
ATOM      7  C   LIG    1       24.554 -20.627   5.094  0.00  0.00    +0.096 A 
ATOM      8  C   LIG    1       23.372 -19.970   4.733  0.00  0.00    +0.274 A 
ATOM      9  C   LIG    1       22.129 -20.554   4.993  0.00  0.00    +0.086 A 
ATOM     10  C   LIG    1       25.757 -22.454   6.289  0.00  0.00    +0.075 C 
ATOM     11  N   LIG    1       26.101 -23.694   6.198  0.00  0.00    -0.273 NA
ATOM     12  C   LIG    1       22.073 -21.820   5.583  0.00  0.00    +0.030 A 
ATOM     13  C   LIG    1       25.233 -24.640   5.510  0.00  0.00    +0.238 C 
ENDROOT
BRANCH  10  14
ATOM     14  C   LIG    1       26.697 -21.546   7.033  0.00  0.00    +0.001 A 
ATOM     15  C   LIG    1       26.302 -20.858   8.189  0.00  0.00    +0.010 A 
ATOM     16  C   LIG    1       27.201 -20.014   8.845  0.00  0.00    +0.001 A 
ATOM     17  C   LIG    1       28.503 -19.874   8.369  0.00  0.00    +0.000 A 
ATOM     18  C   LIG    1       28.913 -20.579   7.239  0.00  0.00    +0.001 A 
ATOM     19  C   LIG    1       28.015 -21.415   6.574  0.00  0.00    +0.010 A 
ENDBRANCH  10  14
BRANCH   8  20
ATOM     20  N   LIG    1       23.436 -18.642   4.109  0.00  0.00    +0.080 N 
ATOM     21  O   LIG    1       24.464 -18.352   3.481  0.00  0.00    -0.576 OA
ATOM     22  O   LIG    1       22.457 -17.897   4.243  0.00  0.00    +0.041 OA
ENDBRANCH   8  20
TORSDOF 2
ENDMDL
MODEL 5
REMARK VINA RESULT:      -7.2      6.261      8.977
REMARK  Name = *****
REMARK                            x       y       z     vdW  Elec       q    Type
REMARK                         _______ _______ _______ _____ _____    ______ ____
ROOT
ATOM      1  O   LIG    1       24.715 -33.349   7.132  0.00  0.00    -0.273 OA
ATOM      2  C   LIG    1       25.115 -32.190   7.254  0.00  0.00    +0.239 C 
ATOM      3  N   LIG    1       24.329 -31.162   6.803  0.00  0.00    -0.283 N 
ATOM      4  H   LIG    1       23.522 -31.493   6.288  0.00  0.00    +0.155 HD
ATOM      5  C   LIG    1       24.648 -29.796   6.787  0.00  0.00    +0.043 A 
ATOM      6  C   LIG    1       25.516 -29.169   7.698  0.00  0.00    +0.028 A 
ATOM      7  C   LIG    1       25.868 -27.820   7.513  0.00  0.00    +0.096 A 
ATOM      8  C   LIG    1       25.288 -27.085   6.472  0.00  0.00    +0.274 A 
ATOM      9  C   LIG    1       24.361 -27.683   5.613  0.00  0.00    +0.086 A 
ATOM     10  C   LIG    1       25.985 -29.860   8.941  0.00  0.00    +0.075 C 
ATOM     11  N   LIG    1       26.435 -31.068   8.980  0.00  0.00    -0.273 NA
ATOM     12  C   LIG    1       24.044 -29.034   5.776  0.00  0.00    +0.030 A 
ATOM     13  C   LIG    1       26.509 -31.854   7.755  0.00  0.00    +0.238 C 
ENDROOT
BRANCH  10  14
ATOM     14  C   LIG    1       25.921 -29.123  10.251  0.00  0.00    +0.001 A 
ATOM     15  C   LIG    1       26.903 -28.196  10.628  0.00  0.00    +0.010 A 
ATOM     16  C   LIG    1       26.815 -27.541  11.859  0.00  0.00    +0.001 A 
ATOM     17  C   LIG    1       25.735 -27.786  12.706  0.00  0.00    +0.000 A 
ATOM     18  C   LIG    1       24.738 -28.681  12.323  0.00  0.00    +0.001 A 
ATOM     19  C   LIG    1       24.828 -29.346  11.099  0.00  0.00    +0.010 A 
ENDBRANCH  10  14
BRANCH   8  20
ATOM     20  N   LIG    1       25.628 -25.667   6.303  0.00  0.00    +0.080 N 
ATOM     21  O   LIG    1       25.699 -25.227   5.147  0.00  0.00    -0.576 OA
ATOM     22  O   LIG    1       25.817 -24.996   7.325  0.00  0.00    +0.041 OA
ENDBRANCH   8  20
TORSDOF 2
ENDMDL
MODEL 6
REMARK VINA RESULT:      -7.1      2.491      5.866
REMARK  Name = *****
REMARK                            x       y       z     vdW  Elec       q    Type
REMARK                         _______ _______ _______ _____ _____    ______ ____
ROOT
ATOM      1  O   LIG    1       23.325 -25.490   6.269  0.00  0.00    -0.273 OA
ATOM      2  C   LIG    1       23.797 -24.381   6.524  0.00  0.00    +0.239 C 
ATOM      3  N   LIG    1       25.126 -24.150   6.281  0.00  0.00    -0.283 N 
ATOM      4  H   LIG    1       25.621 -24.994   6.018  0.00  0.00    +0.155 HD
ATOM      5  C   LIG    1       25.851 -22.986   6.575  0.00  0.00    +0.043 A 
ATOM      6  C   LIG    1       25.299 -21.694   6.628  0.00  0.00    +0.028 A 
ATOM      7  C   LIG    1       26.088 -20.614   7.060  0.00  0.00    +0.096 A 
ATOM      8  C   LIG    1       27.442 -20.814   7.356  0.00  0.00    +0.274 A 
ATOM      9  C   LIG    1       28.016 -22.082   7.227  0.00  0.00    +0.086 A 
ATOM     10  C   LIG    1       23.922 -21.406   6.115  0.00  0.00    +0.075 C 
ATOM     11  N   LIG    1       22.881 -22.119   6.380  0.00  0.00    -0.273 NA
ATOM     12  C   LIG    1       27.219 -23.161   6.835  0.00  0.00    +0.030 A 
ATOM     13  C   LIG    1       23.004 -23.296   7.230  0.00  0.00    +0.238 C 
ENDROOT
BRANCH  10  14
ATOM     14  C   LIG    1       23.715 -20.220   5.214  0.00  0.00    +0.001 A 
ATOM     15  C   LIG    1       24.649 -19.865   4.230  0.00  0.00    +0.010 A 
ATOM     16  C   LIG    1       24.427 -18.749   3.420  0.00  0.00    +0.001 A 
ATOM     17  C   LIG    1       23.262 -17.998   3.569  0.00  0.00    +0.000 A 
ATOM     18  C   LIG    1       22.313 -18.364   4.522  0.00  0.00    +0.001 A 
ATOM     19  C   LIG    1       22.537 -19.472   5.341  0.00  0.00    +0.010 A 
ENDBRANCH  10  14
BRANCH   8  20
ATOM     20  N   LIG    1       28.274 -19.677   7.771  0.00  0.00    +0.080 N 
ATOM     21  O   LIG    1       28.283 -19.380   8.974  0.00  0.00    -0.576 OA
ATOM     22  O   LIG    1       28.920 -19.089   6.895  0.00  0.00    +0.041 OA
ENDBRANCH   8  20
TORSDOF 2
ENDMDL
MODEL 7
REMARK VINA RESULT:      -7.1      7.077     10.015
REMARK  Name = *****
REMARK                            x       y       z     vdW  Elec       q    Type
REMARK                         _______ _______ _______ _____ _____    ______ ____
ROOT
ATOM      1  O   LIG    1       27.280 -32.896   5.214  0.00  0.00    -0.273 OA
ATOM      2  C   LIG    1       26.541 -32.208   5.920  0.00  0.00    +0.239 C 
ATOM      3  N   LIG    1       26.891 -31.978   7.225  0.00  0.00    -0.283 N 
ATOM      4  H   LIG    1       27.694 -32.525   7.510  0.00  0.00    +0.155 HD
ATOM      5  C   LIG    1       26.145 -31.290   8.193  0.00  0.00    +0.043 A 
ATOM      6  C   LIG    1       25.234 -30.256   7.911  0.00  0.00    +0.028 A 
ATOM      7  C   LIG    1       24.443 -29.722   8.944  0.00  0.00    +0.096 A 
ATOM      8  C   LIG    1       24.624 -30.162  10.260  0.00  0.00    +0.274 A 
ATOM      9  C   LIG    1       25.586 -31.132  10.557  0.00  0.00    +0.086 A 
ATOM     10  C   LIG    1       25.167 -29.613   6.561  0.00  0.00    +0.075 C 
ATOM     11  N   LIG    1       25.142 -30.259   5.446  0.00  0.00    -0.273 NA
ATOM     12  C   LIG    1       26.343 -31.688   9.523  0.00  0.00    +0.030 A 
ATOM     13  C   LIG    1       25.184 -31.715   5.449  0.00  0.00    +0.238 C 
ENDROOT
BRANCH  10  14
ATOM     14  C   LIG    1       25.142 -28.112   6.471  0.00  0.00    +0.001 A 
ATOM     15  C   LIG    1       26.055 -27.312   7.173  0.00  0.00    +0.010 A 
ATOM     16  C   LIG    1       25.992 -25.921   7.073  0.00  0.00    +0.001 A 
ATOM     17  C   LIG    1       25.038 -25.321   6.253  0.00  0.00    +0.000 A 
ATOM     18  C   LIG    1       24.148 -26.109   5.527  0.00  0.00    +0.001 A 
ATOM     19  C   LIG    1       24.200 -27.500   5.632  0.00  0.00    +0.010 A 
ENDBRANCH  10  14
BRANCH   8  20
ATOM     20  N   LIG    1       23.823 -29.576  11.343  0.00  0.00    +0.080 N 
ATOM     21  O   LIG    1       22.598 -29.763  11.317  0.00  0.00    -0.576 OA
ATOM     22  O   LIG    1       24.420 -28.936  12.218  0.00  0.00    +0.041 OA
ENDBRANCH   8  20
TORSDOF 2
ENDMDL
MODEL 8
REMARK VINA RESULT:      -6.9      6.987     10.256
REMARK  Name = *****
REMARK                            x       y       z     vdW  Elec       q    Type
REMARK                         _______ _______ _______ _____ _____    ______ ____
ROOT
ATOM      1  O   LIG    1       24.435 -33.645   4.994  0.00  0.00    -0.273 OA
ATOM      2  C   LIG    1       24.547 -32.709   5.788  0.00  0.00    +0.239 C 
ATOM      3  N   LIG    1       25.732 -32.539   6.455  0.00  0.00    -0.283 N 
ATOM      4  H   LIG    1       26.373 -33.307   6.302  0.00  0.00    +0.155 HD
ATOM      5  C   LIG    1       26.019 -31.585   7.443  0.00  0.00    +0.043 A 
ATOM      6  C   LIG    1       25.407 -30.323   7.534  0.00  0.00    +0.028 A 
ATOM      7  C   LIG    1       25.673 -29.496   8.640  0.00  0.00    +0.096 A 
ATOM      8  C   LIG    1       26.608 -29.897   9.602  0.00  0.00    +0.274 A 
ATOM      9  C   LIG    1       27.279 -31.116   9.472  0.00  0.00    +0.086 A 
ATOM     10  C   LIG    1       24.571 -29.771   6.422  0.00  0.00    +0.075 C 
ATOM     11  N   LIG    1       23.655 -30.433   5.800  0.00  0.00    -0.273 NA
ATOM     12  C   LIG    1       26.984 -31.953   8.393  0.00  0.00    +0.030 A 
ATOM     13  C   LIG    1       23.381 -31.815   6.170  0.00  0.00    +0.238 C 
ENDROOT
BRANCH  10  14
ATOM     14  C   LIG    1       24.807 -28.357   5.966  0.00  0.00    +0.001 A 
ATOM     15  C   LIG    1       24.077 -27.280   6.487  0.00  0.00    +0.010 A 
ATOM     16  C   LIG    1       24.316 -25.982   6.029  0.00  0.00    +0.001 A 
ATOM     17  C   LIG    1       25.303 -25.749   5.072  0.00  0.00    +0.000 A 
ATOM     18  C   LIG    1       26.055 -26.810   4.574  0.00  0.00    +0.001 A 
ATOM     19  C   LIG    1       25.811 -28.110   5.020  0.00  0.00    +0.010 A 
ENDBRANCH  10  14
BRANCH   8  20
ATOM     20  N   LIG    1       26.912 -29.015  10.736  0.00  0.00    +0.080 N 
ATOM     21  O   LIG    1       25.970 -28.399  11.254  0.00  0.00    -0.576 OA
ATOM     22  O   LIG    1       28.090 -28.947  11.110  0.00  0.00    +0.041 OA
ENDBRANCH   8  20
TORSDOF 2
ENDMDL
MODEL 9
REMARK VINA RESULT:      -6.9      6.326      8.945
REMARK  Name = *****
REMARK                            x       y       z     vdW  Elec       q    Type
REMARK                         _______ _______ _______ _____ _____    ______ ____
ROOT
ATOM      1  O   LIG    1       25.676 -33.327   5.345  0.00  0.00    -0.273 OA
ATOM      2  C   LIG    1       25.691 -32.213   5.869  0.00  0.00    +0.239 C 
ATOM      3  N   LIG    1       24.885 -31.227   5.361  0.00  0.00    -0.283 N 
ATOM      4  H   LIG    1       24.436 -31.505   4.498  0.00  0.00    +0.155 HD
ATOM      5  C   LIG    1       24.823 -29.888   5.774  0.00  0.00    +0.043 A 
ATOM      6  C   LIG    1       25.107 -29.440   7.076  0.00  0.00    +0.028 A 
ATOM      7  C   LIG    1       25.140 -28.061   7.349  0.00  0.00    +0.096 A 
ATOM      8  C   LIG    1       24.809 -27.143   6.344  0.00  0.00    +0.274 A 
ATOM      9  C   LIG    1       24.447 -27.588   5.070  0.00  0.00    +0.086 A 
ATOM     10  C   LIG    1       25.252 -30.393   8.221  0.00  0.00    +0.075 C 
ATOM     11  N   LIG    1       25.954 -31.475   8.186  0.00  0.00    -0.273 NA
ATOM     12  C   LIG    1       24.453 -28.957   4.791  0.00  0.00    +0.030 A 
ATOM     13  C   LIG    1       26.668 -31.837   6.969  0.00  0.00    +0.238 C 
ENDROOT
BRANCH  10  14
ATOM     14  C   LIG    1       24.528 -30.101   9.507  0.00  0.00    +0.001 A 
ATOM     15  C   LIG    1       23.152 -30.329   9.650  0.00  0.00    +0.010 A 
ATOM     16  C   LIG    1       22.513 -30.034  10.856  0.00  0.00    +0.001 A 
ATOM     17  C   LIG    1       23.246 -29.537  11.933  0.00  0.00    +0.000 A 
ATOM     18  C   LIG    1       24.620 -29.339  11.809  0.00  0.00    +0.001 A 
ATOM     19  C   LIG    1       25.261 -29.622  10.602  0.00  0.00    +0.010 A 
ENDBRANCH  10  14
BRANCH   8  20
ATOM     20  N   LIG    1       24.809 -25.705   6.642  0.00  0.00    +0.080 N 
ATOM     21  O   LIG    1       25.888 -25.182   6.954  0.00  0.00    -0.576 OA
ATOM     22  O   LIG    1       23.731 -25.102   6.556  0.00  0.00    +0.041 OA
ENDBRANCH   8  20
TORSDOF 2
ENDMDL
