MODEL 1
REMARK VINA RESULT:      -8.6      0.000      0.000
REMARK  Name = *****
REMARK                            x       y       z     vdW  Elec       q    Type
REMARK                         _______ _______ _______ _____ _____    ______ ____
ROOT
ATOM      1  C   LIG    1       25.449 -21.546   6.295  0.00  0.00    +0.159 C 
ENDROOT
BRANCH   1   2
ATOM      2  C   LIG    1       24.570 -20.607   5.477  0.00  0.00    -0.031 A 
ATOM      3  C   LIG    1       25.089 -19.992   4.325  0.00  0.00    +0.004 A 
ATOM      4  C   LIG    1       24.323 -19.084   3.590  0.00  0.00    +0.000 A 
ATOM      5  C   LIG    1       23.028 -18.774   3.996  0.00  0.00    +0.000 A 
ATOM      6  C   LIG    1       22.494 -19.383   5.128  0.00  0.00    +0.000 A 
ATOM      7  C   LIG    1       23.252 -20.302   5.857  0.00  0.00    +0.004 A 
ENDBRANCH   1   2
BRANCH   1   8
ATOM      8  C   LIG    1       24.894 -22.989   6.485  0.00  0.00    +0.083 C 
ATOM      9  C   LIG    1       24.659 -23.726   5.153  0.00  0.00    +0.036 C 
ATOM     10  C   LIG    1       24.824 -25.199   5.502  0.00  0.00    +0.003 C 
ATOM     11  C   LIG    1       26.018 -25.194   6.435  0.00  0.00    +0.003 C 
ATOM     12  C   LIG    1       25.871 -23.916   7.259  0.00  0.00    +0.036 C 
BRANCH   8  13
ATOM     13  O   LIG    1       23.645 -22.984   7.192  0.00  0.00    -0.387 OA
ATOM     14  H   LIG    1       23.140 -23.769   6.899  0.00  0.00    +0.210 HD
ENDBRANCH   8  13
ENDBRANCH   1   8
BRANCH   1  15
ATOM     15  C   LIG    1       25.819 -20.941   7.648  0.00  0.00    +0.317 C 
ATOM     16  O   LIG    1       25.104 -20.979   8.642  0.00  0.00    -0.250 OA
BRANCH  15  17
ATOM     17  O   LIG    1       27.060 -20.382   7.597  0.00  0.00    -0.463 OA
BRANCH  17  18
ATOM     18  C   LIG    1       28.162 -21.282   7.781  0.00  0.00    +0.247 C 
BRANCH  18  19
ATOM     19  C   LIG    1       29.535 -20.597   7.640  0.00  0.00    +0.125 C 
BRANCH  19  21
ATOM     20  C   LIG    1       31.086 -21.784   9.047  0.00  0.00    +0.104 C 
ATOM     21  N   LIG    1       30.352 -20.528   8.869  0.00  0.00    -0.305 NA
ATOM     22  C   LIG    1       31.284 -19.402   8.861  0.00  0.00    +0.104 C 
ENDBRANCH  19  21
ENDBRANCH  18  19
ENDBRANCH  17  18
ENDBRANCH  15  17
ENDBRANCH   1  15
TORSDOF 8
ENDMDL
MODEL 2
REMARK VINA RESULT:      -8.6      0.135      1.060
REMARK  Name = *****
REMARK                            x       y       z     vdW  Elec       q    Type
REMARK                         _______ _______ _______ _____ _____    ______ ____
ROOT
ATOM      1  C   LIG    1       25.520 -21.601   6.390  0.00  0.00    +0.159 C 
ENDROOT
BRANCH   1   2
ATOM      2  C   LIG    1       24.702 -20.622   5.556  0.00  0.00    -0.031 A 
ATOM      3  C   LIG    1       23.368 -20.354   5.903  0.00  0.00    +0.004 A 
ATOM      4  C   LIG    1       22.580 -19.505   5.123  0.00  0.00    +0.000 A 
ATOM      5  C   LIG    1       23.112 -18.914   3.981  0.00  0.00    +0.000 A 
ATOM      6  C   LIG    1       24.436 -19.158   3.628  0.00  0.00    +0.000 A 
ATOM      7  C   LIG    1       25.230 -19.996   4.414  0.00  0.00    +0.004 A 
ENDBRANCH   1   2
BRANCH   1   8
ATOM      8  C   LIG    1       24.932 -23.040   6.504  0.00  0.00    +0.083 C 
ATOM      9  C   LIG    1       24.717 -23.715   5.137  0.00  0.00    +0.036 C 
ATOM     10  C   LIG    1       24.844 -25.203   5.427  0.00  0.00    +0.003 C 
ATOM     11  C   LIG    1       26.013 -25.263   6.389  0.00  0.00    +0.003 C 
ATOM     12  C   LIG    1       25.870 -24.018   7.262  0.00  0.00    +0.036 C 
BRANCH   8  13
ATOM     13  O   LIG    1       23.665 -23.038   7.179  0.00  0.00    -0.387 OA
ATOM     14  H   LIG    1       23.846 -23.004   8.140  0.00  0.00    +0.210 HD
ENDBRANCH   8  13
ENDBRANCH   1   8
BRANCH   1  15
ATOM     15  C   LIG    1       25.825 -21.045   7.779  0.00  0.00    +0.317 C 
ATOM     16  O   LIG    1       25.078 -21.146   8.746  0.00  0.00    -0.250 OA
BRANCH  15  17
ATOM     17  O   LIG    1       27.050 -20.448   7.796  0.00  0.00    -0.463 OA
BRANCH  17  18
ATOM     18  C   LIG    1       28.173 -21.313   7.580  0.00  0.00    +0.247 C 
BRANCH  18  19
ATOM     19  C   LIG    1       29.519 -20.565   7.550  0.00  0.00    +0.125 C 
BRANCH  19  21
ATOM     20  C   LIG    1       30.959 -21.813   9.023  0.00  0.00    +0.104 C 
ATOM     21  N   LIG    1       30.269 -20.534   8.823  0.00  0.00    -0.305 NA
ATOM     22  C   LIG    1       31.230 -19.434   8.882  0.00  0.00    +0.104 C 
ENDBRANCH  19  21
ENDBRANCH  18  19
ENDBRANCH  17  18
ENDBRANCH  15  17
ENDBRANCH   1  15
TORSDOF 8
ENDMDL
MODEL 3
REMARK VINA RESULT:      -8.1      1.667      4.206
REMARK  Name = *****
REMARK                            x       y       z     vdW  Elec       q    Type
REMARK                         _______ _______ _______ _____ _____    ______ ____
ROOT
ATOM      1  C   LIG    1       24.795 -22.256   7.366  0.00  0.00    +0.159 C 
ENDROOT
BRANCH   1   2
ATOM      2  C   LIG    1       24.872 -23.695   6.865  0.00  0.00    -0.031 A 
ATOM      3  C   LIG    1       23.692 -24.380   6.527  0.00  0.00    +0.004 A 
ATOM      4  C   LIG    1       23.730 -25.715   6.120  0.00  0.00    +0.000 A 
ATOM      5  C   LIG    1       24.946 -26.388   6.048  0.00  0.00    +0.000 A 
ATOM      6  C   LIG    1       26.126 -25.722   6.367  0.00  0.00    +0.000 A 
ATOM      7  C   LIG    1       26.092 -24.382   6.761  0.00  0.00    +0.004 A 
ENDBRANCH   1   2
BRANCH   1   8
ATOM      8  C   LIG    1       24.547 -21.177   6.270  0.00  0.00    +0.083 C 
ATOM      9  C   LIG    1       24.577 -21.750   4.841  0.00  0.00    +0.036 C 
ATOM     10  C   LIG    1       23.672 -20.822   4.043  0.00  0.00    +0.003 C 
ATOM     11  C   LIG    1       22.513 -20.583   4.991  0.00  0.00    +0.003 C 
ATOM     12  C   LIG    1       23.146 -20.515   6.379  0.00  0.00    +0.036 C 
BRANCH   8  13
ATOM     13  O   LIG    1       25.529 -20.132   6.328  0.00  0.00    -0.387 OA
ATOM     14  H   LIG    1       25.369 -19.626   7.149  0.00  0.00    +0.210 HD
ENDBRANCH   8  13
ENDBRANCH   1   8
BRANCH   1  15
ATOM     15  C   LIG    1       26.013 -21.884   8.207  0.00  0.00    +0.317 C 
ATOM     16  O   LIG    1       25.959 -21.413   9.337  0.00  0.00    -0.250 OA
BRANCH  15  17
ATOM     17  O   LIG    1       27.163 -22.174   7.536  0.00  0.00    -0.463 OA
BRANCH  17  18
ATOM     18  C   LIG    1       28.298 -21.355   7.852  0.00  0.00    +0.247 C 
BRANCH  18  19
ATOM     19  C   LIG    1       28.924 -20.683   6.615  0.00  0.00    +0.125 C 
BRANCH  19  21
ATOM     20  C   LIG    1       30.927 -19.486   7.210  0.00  0.00    +0.104 C 
ATOM     21  N   LIG    1       29.516 -19.347   6.836  0.00  0.00    -0.305 NA
ATOM     22  C   LIG    1       29.392 -18.478   5.667  0.00  0.00    +0.104 C 
ENDBRANCH  19  21
ENDBRANCH  18  19
ENDBRANCH  17  18
ENDBRANCH  15  17
ENDBRANCH   1  15
TORSDOF 8
ENDMDL
MODEL 4
REMARK VINA RESULT:      -8.0      2.931      5.733
REMARK  Name = *****
REMARK                            x       y       z     vdW  Elec       q    Type
REMARK                         _______ _______ _______ _____ _____    ______ ____
ROOT
ATOM      1  C   LIG    1       24.257 -22.025   5.754  0.00  0.00    +0.159 C 
ENDROOT
BRANCH   1   2
ATOM      2  C   LIG    1       25.335 -21.318   6.567  0.00  0.00    -0.031 A 
ATOM      3  C   LIG    1       26.493 -20.844   5.928  0.00  0.00    +0.004 A 
ATOM      4  C   LIG    1       27.521 -20.243   6.658  0.00  0.00    +0.000 A 
ATOM      5  C   LIG    1       27.410 -20.109   8.039  0.00  0.00    +0.000 A 
ATOM      6  C   LIG    1       26.264 -20.561   8.688  0.00  0.00    +0.000 A 
ATOM      7  C   LIG    1       25.229 -21.150   7.958  0.00  0.00    +0.004 A 
ENDBRANCH   1   2
BRANCH   1   8
ATOM      8  C   LIG    1       23.215 -21.092   5.067  0.00  0.00    +0.083 C 
ATOM      9  C   LIG    1       22.875 -19.846   5.905  0.00  0.00    +0.036 C 
ATOM     10  C   LIG    1       22.477 -18.797   4.876  0.00  0.00    +0.003 C 
ATOM     11  C   LIG    1       23.496 -19.001   3.773  0.00  0.00    +0.003 C 
ATOM     12  C   LIG    1       23.722 -20.511   3.719  0.00  0.00    +0.036 C 
BRANCH   8  13
ATOM     13  O   LIG    1       21.982 -21.780   4.810  0.00  0.00    -0.387 OA
ATOM     14  H   LIG    1       21.337 -21.487   5.485  0.00  0.00    +0.210 HD
ENDBRANCH   8  13
ENDBRANCH   1   8
BRANCH   1  15
ATOM     15  C   LIG    1       23.544 -23.099   6.572  0.00  0.00    +0.317 C 
ATOM     16  O   LIG    1       22.380 -23.026   6.948  0.00  0.00    -0.250 OA
BRANCH  15  17
ATOM     17  O   LIG    1       24.375 -24.155   6.800  0.00  0.00    -0.463 OA
BRANCH  17  18
ATOM     18  C   LIG    1       24.902 -24.802   5.633  0.00  0.00    +0.247 C 
BRANCH  18  19
ATOM     19  C   LIG    1       24.257 -26.174   5.355  0.00  0.00    +0.125 C 
BRANCH  19  21
ATOM     20  C   LIG    1       24.286 -28.546   5.765  0.00  0.00    +0.104 C 
ATOM     21  N   LIG    1       24.522 -27.226   6.358  0.00  0.00    -0.305 NA
ATOM     22  C   LIG    1       25.877 -27.157   6.900  0.00  0.00    +0.104 C 
ENDBRANCH  19  21
ENDBRANCH  18  19
ENDBRANCH  17  18
ENDBRANCH  15  17
ENDBRANCH   1  15
TORSDOF 8
ENDMDL
MODEL 5
REMARK VINA RESULT:      -7.9      1.190      4.076
REMARK  Name = *****
REMARK                            x       y       z     vdW  Elec       q    Type
REMARK                         _______ _______ _______ _____ _____    ______ ____
ROOT
ATOM      1  C   LIG    1       23.929 -22.122   6.982  0.00  0.00    +0.159 C 
ENDROOT
BRANCH   1   2
ATOM      2  C   LIG    1       24.410 -23.552   6.761  0.00  0.00    -0.031 A 
ATOM      3  C   LIG    1       25.777 -23.855   6.880  0.00  0.00    +0.004 A 
ATOM      4  C   LIG    1       26.251 -25.144   6.627  0.00  0.00    +0.000 A 
ATOM      5  C   LIG    1       25.367 -26.151   6.249  0.00  0.00    +0.000 A 
ATOM      6  C   LIG    1       24.008 -25.872   6.139  0.00  0.00    +0.000 A 
ATOM      7  C   LIG    1       23.530 -24.587   6.404  0.00  0.00    +0.004 A 
ENDBRANCH   1   2
BRANCH   1   8
ATOM      8  C   LIG    1       23.246 -21.448   5.755  0.00  0.00    +0.083 C 
ATOM      9  C   LIG    1       22.939 -19.956   5.978  0.00  0.00    +0.036 C 
ATOM     10  C   LIG    1       22.971 -19.351   4.582  0.00  0.00    +0.003 C 
ATOM     11  C   LIG    1       24.166 -20.031   3.946  0.00  0.00    +0.003 C 
ATOM     12  C   LIG    1       24.140 -21.461   4.484  0.00  0.00    +0.036 C 
BRANCH   8  13
ATOM     13  O   LIG    1       22.007 -22.091   5.423  0.00  0.00    -0.387 OA
ATOM     14  H   LIG    1       21.503 -22.203   6.253  0.00  0.00    +0.210 HD
ENDBRANCH   8  13
ENDBRANCH   1   8
BRANCH   1  15
ATOM     15  C   LIG    1       25.041 -21.228   7.524  0.00  0.00    +0.317 C 
ATOM     16  O   LIG    1       25.001 -20.648   8.603  0.00  0.00    -0.250 OA
BRANCH  15  17
ATOM     17  O   LIG    1       26.090 -21.191   6.655  0.00  0.00    -0.463 OA
BRANCH  17  18
ATOM     18  C   LIG    1       27.216 -20.402   7.063  0.00  0.00    +0.247 C 
BRANCH  18  19
ATOM     19  C   LIG    1       28.388 -21.247   7.597  0.00  0.00    +0.125 C 
BRANCH  19  21
ATOM     20  C   LIG    1       30.551 -21.424   8.640  0.00  0.00    +0.104 C 
ATOM     21  N   LIG    1       29.525 -20.491   8.163  0.00  0.00    -0.305 NA
ATOM     22  C   LIG    1       30.108 -19.555   7.205  0.00  0.00    +0.104 C 
ENDBRANCH  19  21
ENDBRANCH  18  19
ENDBRANCH  17  18
ENDBRANCH  15  17
ENDBRANCH   1  15
TORSDOF 8
ENDMDL
MODEL 6
REMARK VINA RESULT:      -7.8      2.732      4.950
REMARK  Name = *****
REMARK                            x       y       z     vdW  Elec       q    Type
REMARK                         _______ _______ _______ _____ _____    ______ ____
ROOT
ATOM      1  C   LIG    1       24.144 -22.341   6.836  0.00  0.00    +0.159 C 
ENDROOT
BRANCH   1   2
ATOM      2  C   LIG    1       23.804 -21.317   5.759  0.00  0.00    -0.031 A 
ATOM      3  C   LIG    1       24.466 -21.360   4.521  0.00  0.00    +0.004 A 
ATOM      4  C   LIG    1       24.214 -20.400   3.539  0.00  0.00    +0.000 A 
ATOM      5  C   LIG    1       23.300 -19.378   3.780  0.00  0.00    +0.000 A 
ATOM      6  C   LIG    1       22.626 -19.326   4.997  0.00  0.00    +0.000 A 
ATOM      7  C   LIG    1       22.866 -20.293   5.976  0.00  0.00    +0.004 A 
ENDBRANCH   1   2
BRANCH   1   8
ATOM      8  C   LIG    1       25.556 -22.195   7.478  0.00  0.00    +0.083 C 
ATOM      9  C   LIG    1       26.545 -21.413   6.593  0.00  0.00    +0.036 C 
ATOM     10  C   LIG    1       27.518 -20.783   7.580  0.00  0.00    +0.003 C 
ATOM     11  C   LIG    1       26.610 -20.319   8.701  0.00  0.00    +0.003 C 
ATOM     12  C   LIG    1       25.534 -21.398   8.811  0.00  0.00    +0.036 C 
BRANCH   8  13
ATOM     13  O   LIG    1       26.148 -23.475   7.745  0.00  0.00    -0.387 OA
ATOM     14  H   LIG    1       25.461 -24.153   7.593  0.00  0.00    +0.210 HD
ENDBRANCH   8  13
ENDBRANCH   1   8
BRANCH   1  15
ATOM     15  C   LIG    1       23.934 -23.771   6.344  0.00  0.00    +0.317 C 
ATOM     16  O   LIG    1       23.010 -24.496   6.693  0.00  0.00    -0.250 OA
BRANCH  15  17
ATOM     17  O   LIG    1       24.900 -24.113   5.445  0.00  0.00    -0.463 OA
BRANCH  17  18
ATOM     18  C   LIG    1       24.740 -25.387   4.806  0.00  0.00    +0.247 C 
BRANCH  18  19
ATOM     19  C   LIG    1       25.939 -26.329   5.022  0.00  0.00    +0.125 C 
BRANCH  19  21
ATOM     20  C   LIG    1       25.963 -27.160   7.282  0.00  0.00    +0.104 C 
ATOM     21  N   LIG    1       25.691 -27.505   5.883  0.00  0.00    -0.305 NA
ATOM     22  C   LIG    1       24.329 -28.018   5.752  0.00  0.00    +0.104 C 
ENDBRANCH  19  21
ENDBRANCH  18  19
ENDBRANCH  17  18
ENDBRANCH  15  17
ENDBRANCH   1  15
TORSDOF 8
ENDMDL
MODEL 7
REMARK VINA RESULT:      -7.7      2.690      5.068
REMARK  Name = *****
REMARK                            x       y       z     vdW  Elec       q    Type
REMARK                         _______ _______ _______ _____ _____    ______ ____
ROOT
ATOM      1  C   LIG    1       24.279 -22.225   6.965  0.00  0.00    +0.159 C 
ENDROOT
BRANCH   1   2
ATOM      2  C   LIG    1       23.954 -21.183   5.900  0.00  0.00    -0.031 A 
ATOM      3  C   LIG    1       22.917 -20.261   6.120  0.00  0.00    +0.004 A 
ATOM      4  C   LIG    1       22.562 -19.333   5.138  0.00  0.00    +0.000 A 
ATOM      5  C   LIG    1       23.235 -19.314   3.920  0.00  0.00    +0.000 A 
ATOM      6  C   LIG    1       24.274 -20.212   3.690  0.00  0.00    +0.000 A 
ATOM      7  C   LIG    1       24.640 -21.131   4.675  0.00  0.00    +0.004 A 
ENDBRANCH   1   2
BRANCH   1   8
ATOM      8  C   LIG    1       25.690 -22.103   7.613  0.00  0.00    +0.083 C 
ATOM      9  C   LIG    1       26.773 -21.636   6.622  0.00  0.00    +0.036 C 
ATOM     10  C   LIG    1       27.799 -20.925   7.492  0.00  0.00    +0.003 C 
ATOM     11  C   LIG    1       26.937 -20.139   8.460  0.00  0.00    +0.003 C 
ATOM     12  C   LIG    1       25.743 -21.047   8.751  0.00  0.00    +0.036 C 
BRANCH   8  13
ATOM     13  O   LIG    1       26.129 -23.355   8.160  0.00  0.00    -0.387 OA
ATOM     14  H   LIG    1       26.225 -23.235   9.126  0.00  0.00    +0.210 HD
ENDBRANCH   8  13
ENDBRANCH   1   8
BRANCH   1  15
ATOM     15  C   LIG    1       24.054 -23.646   6.453  0.00  0.00    +0.317 C 
ATOM     16  O   LIG    1       23.028 -24.292   6.630  0.00  0.00    -0.250 OA
BRANCH  15  17
ATOM     17  O   LIG    1       25.141 -24.078   5.754  0.00  0.00    -0.463 OA
BRANCH  17  18
ATOM     18  C   LIG    1       24.880 -25.038   4.720  0.00  0.00    +0.247 C 
BRANCH  18  19
ATOM     19  C   LIG    1       25.500 -26.420   5.004  0.00  0.00    +0.125 C 
BRANCH  19  21
ATOM     20  C   LIG    1       24.427 -28.464   5.688  0.00  0.00    +0.104 C 
ATOM     21  N   LIG    1       24.926 -27.163   6.145  0.00  0.00    -0.305 NA
ATOM     22  C   LIG    1       25.885 -27.350   7.232  0.00  0.00    +0.104 C 
ENDBRANCH  19  21
ENDBRANCH  18  19
ENDBRANCH  17  18
ENDBRANCH  15  17
ENDBRANCH   1  15
TORSDOF 8
ENDMDL
MODEL 8
REMARK VINA RESULT:      -7.1      2.658      5.684
REMARK  Name = *****
REMARK                            x       y       z     vdW  Elec       q    Type
REMARK                         _______ _______ _______ _____ _____    ______ ____
ROOT
ATOM      1  C   LIG    1       25.564 -21.716   6.226  0.00  0.00    +0.159 C 
ENDROOT
BRANCH   1   2
ATOM      2  C   LIG    1       26.819 -20.877   6.442  0.00  0.00    -0.031 A 
ATOM      3  C   LIG    1       27.409 -20.820   7.716  0.00  0.00    +0.004 A 
ATOM      4  C   LIG    1       28.525 -20.014   7.954  0.00  0.00    +0.000 A 
ATOM      5  C   LIG    1       29.066 -19.250   6.924  0.00  0.00    +0.000 A 
ATOM      6  C   LIG    1       28.502 -19.303   5.653  0.00  0.00    +0.000 A 
ATOM      7  C   LIG    1       27.394 -20.119   5.409  0.00  0.00    +0.004 A 
ENDBRANCH   1   2
BRANCH   1   8
ATOM      8  C   LIG    1       24.214 -20.954   6.376  0.00  0.00    +0.083 C 
ATOM      9  C   LIG    1       24.087 -19.754   5.419  0.00  0.00    +0.036 C 
ATOM     10  C   LIG    1       22.589 -19.609   5.192  0.00  0.00    +0.003 C 
ATOM     11  C   LIG    1       22.128 -21.045   5.048  0.00  0.00    +0.003 C 
ATOM     12  C   LIG    1       22.981 -21.836   6.038  0.00  0.00    +0.036 C 
BRANCH   8  13
ATOM     13  O   LIG    1       24.038 -20.452   7.709  0.00  0.00    -0.387 OA
ATOM     14  H   LIG    1       23.452 -21.076   8.182  0.00  0.00    +0.210 HD
ENDBRANCH   8  13
ENDBRANCH   1   8
BRANCH   1  15
ATOM     15  C   LIG    1       25.563 -22.968   7.099  0.00  0.00    +0.317 C 
ATOM     16  O   LIG    1       25.189 -23.000   8.265  0.00  0.00    -0.250 OA
BRANCH  15  17
ATOM     17  O   LIG    1       26.010 -24.044   6.391  0.00  0.00    -0.463 OA
BRANCH  17  18
ATOM     18  C   LIG    1       25.067 -24.635   5.486  0.00  0.00    +0.247 C 
BRANCH  18  19
ATOM     19  C   LIG    1       24.384 -25.893   6.056  0.00  0.00    +0.125 C 
BRANCH  19  21
ATOM     20  C   LIG    1       26.068 -27.256   5.005  0.00  0.00    +0.104 C 
ATOM     21  N   LIG    1       24.642 -27.154   5.329  0.00  0.00    -0.305 NA
ATOM     22  C   LIG    1       24.215 -28.332   6.080  0.00  0.00    +0.104 C 
ENDBRANCH  19  21
ENDBRANCH  18  19
ENDBRANCH  17  18
ENDBRANCH  15  17
ENDBRANCH   1  15
TORSDOF 8
ENDMDL
MODEL 9
REMARK VINA RESULT:      -7.0      3.394      5.511
REMARK  Name = *****
REMARK                            x       y       z     vdW  Elec       q    Type
REMARK                         _______ _______ _______ _____ _____    ______ ____
ROOT
ATOM      1  C   LIG    1       24.878 -20.164   5.277  0.00  0.00    +0.159 C 
ENDROOT
BRANCH   1   2
ATOM      2  C   LIG    1       26.181 -20.210   6.069  0.00  0.00    -0.031 A 
ATOM      3  C   LIG    1       26.147 -20.412   7.459  0.00  0.00    +0.004 A 
ATOM      4  C   LIG    1       27.321 -20.402   8.214  0.00  0.00    +0.000 A 
ATOM      5  C   LIG    1       28.548 -20.185   7.594  0.00  0.00    +0.000 A 
ATOM      6  C   LIG    1       28.603 -19.995   6.216  0.00  0.00    +0.000 A 
ATOM      7  C   LIG    1       27.431 -20.018   5.456  0.00  0.00    +0.004 A 
ENDBRANCH   1   2
BRANCH   1   8
ATOM      8  C   LIG    1       24.070 -21.496   5.240  0.00  0.00    +0.083 C 
ATOM      9  C   LIG    1       24.936 -22.736   5.528  0.00  0.00    +0.036 C 
ATOM     10  C   LIG    1       23.966 -23.741   6.132  0.00  0.00    +0.003 C 
ATOM     11  C   LIG    1       23.124 -22.885   7.056  0.00  0.00    +0.003 C 
ATOM     12  C   LIG    1       22.956 -21.557   6.321  0.00  0.00    +0.036 C 
BRANCH   8  13
ATOM     13  O   LIG    1       23.450 -21.699   3.962  0.00  0.00    -0.387 OA
ATOM     14  H   LIG    1       22.842 -22.460   4.050  0.00  0.00    +0.210 HD
ENDBRANCH   8  13
ENDBRANCH   1   8
BRANCH   1  15
ATOM     15  C   LIG    1       25.095 -19.638   3.861  0.00  0.00    +0.317 C 
ATOM     16  O   LIG    1       25.433 -20.331   2.908  0.00  0.00    -0.250 OA
BRANCH  15  17
ATOM     17  O   LIG    1       24.833 -18.302   3.802  0.00  0.00    -0.463 OA
BRANCH  17  18
ATOM     18  C   LIG    1       25.859 -17.487   3.219  0.00  0.00    +0.247 C 
BRANCH  18  19
ATOM     19  C   LIG    1       25.637 -15.979   3.445  0.00  0.00    +0.125 C 
BRANCH  19  21
ATOM     20  C   LIG    1       26.134 -13.887   2.361  0.00  0.00    +0.104 C 
ATOM     21  N   LIG    1       26.716 -15.088   2.968  0.00  0.00    -0.305 NA
ATOM     22  C   LIG    1       27.643 -14.711   4.034  0.00  0.00    +0.104 C 
ENDBRANCH  19  21
ENDBRANCH  18  19
ENDBRANCH  17  18
ENDBRANCH  15  17
ENDBRANCH   1  15
TORSDOF 8
ENDMDL
