MODEL 1
REMARK VINA RESULT:      -5.3      0.000      0.000
REMARK  Name = *****
REMARK                            x       y       z     vdW  Elec       q    Type
REMARK                         _______ _______ _______ _____ _____    ______ ____
ROOT
ATOM      1  C   LIG    1       24.907 -28.568  12.589  0.00  0.00    +0.064 A 
ATOM      2  C   LIG    1       25.002 -29.334  11.397  0.00  0.00    +0.049 A 
ATOM      3  I   LIG    1       26.798 -29.049  10.177  0.00  0.00    -0.041 I 
ATOM      4  C   LIG    1       23.896 -30.072  10.893  0.00  0.00    +0.065 A 
ATOM      5  C   LIG    1       22.611 -29.812  11.470  0.00  0.00    +0.040 A 
ATOM      6  I   LIG    1       20.891 -30.999  10.892  0.00  0.00    -0.042 I 
ATOM      7  C   LIG    1       22.452 -28.865  12.527  0.00  0.00    +0.065 A 
ATOM      8  C   LIG    1       23.630 -28.406  13.170  0.00  0.00    +0.049 A 
ATOM      9  I   LIG    1       23.479 -27.930  15.317  0.00  0.00    -0.041 I 
ENDROOT
BRANCH   4  10
ATOM     10  C   LIG    1       24.074 -31.114   9.782  0.00  0.00    +0.246 C 
ATOM     11  N   LIG    1       23.842 -30.660   8.485  0.00  0.00    -0.309 N 
ATOM     12  H   LIG    1       23.181 -29.900   8.382  0.00  0.00    +0.149 HD
ATOM     13  O   LIG    1       24.380 -32.255  10.002  0.00  0.00    -0.270 OA
BRANCH  11  14
ATOM     14  C   LIG    1       23.903 -31.554   7.330  0.00  0.00    +0.138 C 
BRANCH  14  15
ATOM     15  C   LIG    1       24.816 -30.998   6.222  0.00  0.00    +0.157 C 
BRANCH  15  16
ATOM     16  O   LIG    1       24.652 -31.773   5.023  0.00  0.00    -0.388 OA
ATOM     17  H   LIG    1       24.331 -32.652   5.314  0.00  0.00    +0.210 HD
ENDBRANCH  15  16
BRANCH  15  18
ATOM     18  C   LIG    1       24.527 -29.529   5.894  0.00  0.00    +0.188 C 
BRANCH  18  19
ATOM     19  O   LIG    1       23.167 -29.409   5.462  0.00  0.00    -0.392 OA
ATOM     20  H   LIG    1       23.165 -29.446   4.489  0.00  0.00    +0.209 HD
ENDBRANCH  18  19
ENDBRANCH  15  18
ENDBRANCH  14  15
ENDBRANCH  11  14
ENDBRANCH   4  10
BRANCH   1  23
ATOM     21  C   LIG    1       27.830 -28.146  15.001  0.00  0.00    +0.110 C 
ATOM     22  C   LIG    1       26.776 -28.811  14.145  0.00  0.00    +0.217 C 
ATOM     23  N   LIG    1       26.078 -28.012  13.227  0.00  0.00    -0.267 N 
ATOM     24  O   LIG    1       26.481 -29.990  14.368  0.00  0.00    -0.276 OA
BRANCH  23  25
ATOM     25  C   LIG    1       26.402 -26.592  12.970  0.00  0.00    +0.147 C 
BRANCH  25  26
ATOM     26  C   LIG    1       25.904 -25.619  14.057  0.00  0.00    +0.158 C 
BRANCH  26  27
ATOM     27  O   LIG    1       24.805 -24.841  13.577  0.00  0.00    -0.388 OA
ATOM     28  H   LIG    1       25.099 -24.454  12.727  0.00  0.00    +0.210 HD
ENDBRANCH  26  27
BRANCH  26  29
ATOM     29  C   LIG    1       27.025 -24.651  14.462  0.00  0.00    +0.188 C 
BRANCH  29  30
ATOM     30  O   LIG    1       28.056 -24.703  13.470  0.00  0.00    -0.392 OA
ATOM     31  H   LIG    1       28.762 -25.286  13.804  0.00  0.00    +0.209 HD
ENDBRANCH  29  30
ENDBRANCH  26  29
ENDBRANCH  25  26
ENDBRANCH  23  25
ENDBRANCH   1  23
BRANCH   7  32
ATOM     32  C   LIG    1       21.127 -28.259  12.940  0.00  0.00    +0.246 C 
ATOM     33  N   LIG    1       20.331 -29.042  13.783  0.00  0.00    -0.309 N 
ATOM     34  H   LIG    1       20.604 -29.979  14.067  0.00  0.00    +0.149 HD
ATOM     35  O   LIG    1       20.767 -27.137  12.606  0.00  0.00    -0.270 OA
BRANCH  33  36
ATOM     36  C   LIG    1       19.122 -28.515  14.418  0.00  0.00    +0.138 C 
BRANCH  36  37
ATOM     37  C   LIG    1       18.162 -29.608  14.894  0.00  0.00    +0.157 C 
BRANCH  37  38
ATOM     38  O   LIG    1       16.822 -29.094  15.011  0.00  0.00    -0.388 OA
ATOM     39  H   LIG    1       16.922 -28.119  15.033  0.00  0.00    +0.210 HD
ENDBRANCH  37  38
BRANCH  37  40
ATOM     40  C   LIG    1       18.151 -30.785  13.910  0.00  0.00    +0.188 C 
BRANCH  40  41
ATOM     41  O   LIG    1       17.590 -30.348  12.669  0.00  0.00    -0.392 OA
ATOM     42  H   LIG    1       16.725 -30.785  12.568  0.00  0.00    +0.209 HD
ENDBRANCH  40  41
ENDBRANCH  37  40
ENDBRANCH  36  37
ENDBRANCH  33  36
ENDBRANCH   7  32
TORSDOF 18
ENDMDL
MODEL 2
REMARK VINA RESULT:      -5.2      2.068      6.549
REMARK  Name = *****
REMARK                            x       y       z     vdW  Elec       q    Type
REMARK                         _______ _______ _______ _____ _____    ______ ____
ROOT
ATOM      1  C   LIG    1       22.544 -30.538  12.261  0.00  0.00    +0.064 A 
ATOM      2  C   LIG    1       23.063 -31.304  11.184  0.00  0.00    +0.049 A 
ATOM      3  I   LIG    1       22.303 -33.346  10.966  0.00  0.00    -0.041 I 
ATOM      4  C   LIG    1       24.183 -30.866  10.426  0.00  0.00    +0.065 A 
ATOM      5  C   LIG    1       24.939 -29.763  10.943  0.00  0.00    +0.040 A 
ATOM      6  I   LIG    1       26.561 -28.911   9.783  0.00  0.00    -0.042 I 
ATOM      7  C   LIG    1       24.566 -29.116  12.159  0.00  0.00    +0.065 A 
ATOM      8  C   LIG    1       23.282 -29.410  12.684  0.00  0.00    +0.049 A 
ATOM      9  I   LIG    1       22.244 -27.789  13.759  0.00  0.00    -0.041 I 
ENDROOT
BRANCH   4  10
ATOM     10  C   LIG    1       24.561 -31.540   9.101  0.00  0.00    +0.246 C 
ATOM     11  N   LIG    1       23.910 -31.053   7.969  0.00  0.00    -0.309 N 
ATOM     12  H   LIG    1       22.985 -30.667   8.109  0.00  0.00    +0.149 HD
ATOM     13  O   LIG    1       25.355 -32.438   9.031  0.00  0.00    -0.270 OA
BRANCH  11  14
ATOM     14  C   LIG    1       24.113 -31.643   6.647  0.00  0.00    +0.138 C 
BRANCH  14  15
ATOM     15  C   LIG    1       25.092 -30.816   5.794  0.00  0.00    +0.157 C 
BRANCH  15  16
ATOM     16  O   LIG    1       25.276 -31.447   4.516  0.00  0.00    -0.388 OA
ATOM     17  H   LIG    1       25.027 -32.386   4.644  0.00  0.00    +0.210 HD
ENDBRANCH  15  16
BRANCH  15  18
ATOM     18  C   LIG    1       24.610 -29.379   5.562  0.00  0.00    +0.188 C 
BRANCH  18  19
ATOM     19  O   LIG    1       23.186 -29.386   5.414  0.00  0.00    -0.392 OA
ATOM     20  H   LIG    1       22.802 -29.143   6.275  0.00  0.00    +0.209 HD
ENDBRANCH  18  19
ENDBRANCH  15  18
ENDBRANCH  14  15
ENDBRANCH  11  14
ENDBRANCH   4  10
BRANCH   1  23
ATOM     21  C   LIG    1       19.944 -32.274  14.445  0.00  0.00    +0.110 C 
ATOM     22  C   LIG    1       21.276 -31.736  13.972  0.00  0.00    +0.217 C 
ATOM     23  N   LIG    1       21.278 -30.858  12.878  0.00  0.00    -0.267 N 
ATOM     24  O   LIG    1       22.313 -32.182  14.476  0.00  0.00    -0.276 OA
BRANCH  23  25
ATOM     25  C   LIG    1       20.045 -30.338  12.248  0.00  0.00    +0.147 C 
BRANCH  25  26
ATOM     26  C   LIG    1       19.542 -31.171  11.052  0.00  0.00    +0.158 C 
BRANCH  26  27
ATOM     27  O   LIG    1       19.344 -30.343   9.904  0.00  0.00    -0.388 OA
ATOM     28  H   LIG    1       18.902 -29.532  10.229  0.00  0.00    +0.210 HD
ENDBRANCH  26  27
BRANCH  26  29
ATOM     29  C   LIG    1       18.200 -31.837  11.391  0.00  0.00    +0.188 C 
BRANCH  29  30
ATOM     30  O   LIG    1       17.163 -30.857  11.280  0.00  0.00    -0.392 OA
ATOM     31  H   LIG    1       16.403 -31.276  10.838  0.00  0.00    +0.209 HD
ENDBRANCH  29  30
ENDBRANCH  26  29
ENDBRANCH  25  26
ENDBRANCH  23  25
ENDBRANCH   1  23
BRANCH   7  32
ATOM     32  C   LIG    1       25.480 -28.215  12.963  0.00  0.00    +0.246 C 
ATOM     33  N   LIG    1       26.296 -28.852  13.905  0.00  0.00    -0.309 N 
ATOM     34  H   LIG    1       26.249 -29.854  14.070  0.00  0.00    +0.149 HD
ATOM     35  O   LIG    1       25.552 -27.004  12.793  0.00  0.00    -0.270 OA
BRANCH  33  36
ATOM     36  C   LIG    1       27.362 -28.143  14.614  0.00  0.00    +0.138 C 
BRANCH  36  37
ATOM     37  C   LIG    1       28.746 -28.764  14.407  0.00  0.00    +0.157 C 
BRANCH  37  38
ATOM     38  O   LIG    1       29.780 -27.862  14.842  0.00  0.00    -0.388 OA
ATOM     39  H   LIG    1       29.315 -27.026  15.061  0.00  0.00    +0.210 HD
ENDBRANCH  37  38
BRANCH  37  40
ATOM     40  C   LIG    1       28.874 -30.073  15.197  0.00  0.00    +0.188 C 
BRANCH  40  41
ATOM     41  O   LIG    1       28.182 -31.109  14.496  0.00  0.00    -0.392 OA
ATOM     42  H   LIG    1       28.129 -31.881  15.090  0.00  0.00    +0.209 HD
ENDBRANCH  40  41
ENDBRANCH  37  40
ENDBRANCH  36  37
ENDBRANCH  33  36
ENDBRANCH   7  32
TORSDOF 18
ENDMDL
MODEL 3
REMARK VINA RESULT:      -5.1      1.955      2.721
REMARK  Name = *****
REMARK                            x       y       z     vdW  Elec       q    Type
REMARK                         _______ _______ _______ _____ _____    ______ ____
ROOT
ATOM      1  C   LIG    1       24.915 -30.039  12.776  0.00  0.00    +0.064 A 
ATOM      2  C   LIG    1       25.312 -30.028  11.412  0.00  0.00    +0.049 A 
ATOM      3  I   LIG    1       26.685 -28.438  10.794  0.00  0.00    -0.041 I 
ATOM      4  C   LIG    1       24.679 -30.853  10.443  0.00  0.00    +0.065 A 
ATOM      5  C   LIG    1       23.457 -31.499  10.822  0.00  0.00    +0.040 A 
ATOM      6  I   LIG    1       22.503 -32.909   9.480  0.00  0.00    -0.042 I 
ATOM      7  C   LIG    1       22.910 -31.338  12.131  0.00  0.00    +0.065 A 
ATOM      8  C   LIG    1       23.747 -30.758  13.118  0.00  0.00    +0.049 A 
ATOM      9  I   LIG    1       23.487 -31.458  15.192  0.00  0.00    -0.041 I 
ENDROOT
BRANCH   4  10
ATOM     10  C   LIG    1       25.287 -31.054   9.050  0.00  0.00    +0.246 C 
ATOM     11  N   LIG    1       24.704 -30.310   8.025  0.00  0.00    -0.309 N 
ATOM     12  H   LIG    1       23.726 -30.075   8.135  0.00  0.00    +0.149 HD
ATOM     13  O   LIG    1       26.197 -31.808   8.838  0.00  0.00    -0.270 OA
BRANCH  11  14
ATOM     14  C   LIG    1       25.128 -30.448   6.632  0.00  0.00    +0.138 C 
BRANCH  14  15
ATOM     15  C   LIG    1       24.581 -29.311   5.751  0.00  0.00    +0.157 C 
BRANCH  15  16
ATOM     16  O   LIG    1       23.199 -29.558   5.442  0.00  0.00    -0.388 OA
ATOM     17  H   LIG    1       23.104 -30.532   5.400  0.00  0.00    +0.210 HD
ENDBRANCH  15  16
BRANCH  15  18
ATOM     18  C   LIG    1       24.692 -27.936   6.418  0.00  0.00    +0.188 C 
BRANCH  18  19
ATOM     19  O   LIG    1       25.987 -27.813   7.015  0.00  0.00    -0.392 OA
ATOM     20  H   LIG    1       26.646 -27.888   6.303  0.00  0.00    +0.209 HD
ENDBRANCH  18  19
ENDBRANCH  15  18
ENDBRANCH  14  15
ENDBRANCH  11  14
ENDBRANCH   4  10
BRANCH   1  23
ATOM     21  C   LIG    1       27.558 -29.462  15.463  0.00  0.00    +0.110 C 
ATOM     22  C   LIG    1       26.885 -30.002  14.221  0.00  0.00    +0.217 C 
ATOM     23  N   LIG    1       25.698 -29.385  13.799  0.00  0.00    -0.267 N 
ATOM     24  O   LIG    1       27.327 -31.033  13.702  0.00  0.00    -0.276 OA
BRANCH  23  25
ATOM     25  C   LIG    1       25.143 -28.168  14.428  0.00  0.00    +0.147 C 
BRANCH  25  26
ATOM     26  C   LIG    1       24.338 -27.267  13.470  0.00  0.00    +0.158 C 
BRANCH  26  27
ATOM     27  O   LIG    1       24.840 -25.928  13.490  0.00  0.00    -0.388 OA
ATOM     28  H   LIG    1       24.437 -25.501  14.273  0.00  0.00    +0.210 HD
ENDBRANCH  26  27
BRANCH  26  29
ATOM     29  C   LIG    1       22.862 -27.223  13.890  0.00  0.00    +0.188 C 
BRANCH  29  30
ATOM     30  O   LIG    1       22.071 -27.792  12.842  0.00  0.00    -0.392 OA
ATOM     31  H   LIG    1       22.373 -28.708  12.704  0.00  0.00    +0.209 HD
ENDBRANCH  29  30
ENDBRANCH  26  29
ENDBRANCH  25  26
ENDBRANCH  23  25
ENDBRANCH   1  23
BRANCH   7  32
ATOM     32  C   LIG    1       21.479 -31.661  12.505  0.00  0.00    +0.246 C 
ATOM     33  N   LIG    1       20.562 -30.610  12.387  0.00  0.00    -0.309 N 
ATOM     34  H   LIG    1       20.846 -29.674  12.108  0.00  0.00    +0.149 HD
ATOM     35  O   LIG    1       21.109 -32.775  12.854  0.00  0.00    -0.270 OA
BRANCH  33  36
ATOM     36  C   LIG    1       19.120 -30.819  12.526  0.00  0.00    +0.138 C 
BRANCH  36  37
ATOM     37  C   LIG    1       18.601 -30.545  13.940  0.00  0.00    +0.157 C 
BRANCH  37  38
ATOM     38  O   LIG    1       18.827 -31.682  14.794  0.00  0.00    -0.388 OA
ATOM     39  H   LIG    1       17.952 -32.117  14.878  0.00  0.00    +0.210 HD
ENDBRANCH  37  38
BRANCH  37  40
ATOM     40  C   LIG    1       19.309 -29.327  14.548  0.00  0.00    +0.188 C 
BRANCH  40  41
ATOM     41  O   LIG    1       19.227 -28.234  13.629  0.00  0.00    -0.392 OA
ATOM     42  H   LIG    1       18.313 -28.203  13.291  0.00  0.00    +0.209 HD
ENDBRANCH  40  41
ENDBRANCH  37  40
ENDBRANCH  36  37
ENDBRANCH  33  36
ENDBRANCH   7  32
TORSDOF 18
ENDMDL
MODEL 4
REMARK VINA RESULT:      -5.1      2.227      6.539
REMARK  Name = *****
REMARK                            x       y       z     vdW  Elec       q    Type
REMARK                         _______ _______ _______ _____ _____    ______ ____
ROOT
ATOM      1  C   LIG    1       24.180 -29.866  11.207  0.00  0.00    +0.064 A 
ATOM      2  C   LIG    1       23.005 -30.648  11.366  0.00  0.00    +0.049 A 
ATOM      3  I   LIG    1       22.391 -31.869   9.655  0.00  0.00    -0.041 I 
ATOM      4  C   LIG    1       22.138 -30.477  12.480  0.00  0.00    +0.065 A 
ATOM      5  C   LIG    1       22.337 -29.318  13.299  0.00  0.00    +0.040 A 
ATOM      6  I   LIG    1       21.181 -29.051  15.114  0.00  0.00    -0.042 I 
ATOM      7  C   LIG    1       23.380 -28.384  13.020  0.00  0.00    +0.065 A 
ATOM      8  C   LIG    1       24.375 -28.781  12.092  0.00  0.00    +0.049 A 
ATOM      9  I   LIG    1       26.419 -28.025  12.428  0.00  0.00    -0.041 I 
ENDROOT
BRANCH   4  10
ATOM     10  C   LIG    1       21.041 -31.499  12.799  0.00  0.00    +0.246 C 
ATOM     11  N   LIG    1       19.765 -31.179  12.339  0.00  0.00    -0.309 N 
ATOM     12  H   LIG    1       19.547 -30.194  12.255  0.00  0.00    +0.149 HD
ATOM     13  O   LIG    1       21.250 -32.509  13.415  0.00  0.00    -0.270 OA
BRANCH  11  14
ATOM     14  C   LIG    1       18.605 -32.020  12.627  0.00  0.00    +0.138 C 
BRANCH  14  15
ATOM     15  C   LIG    1       17.547 -31.940  11.512  0.00  0.00    +0.157 C 
BRANCH  15  16
ATOM     16  O   LIG    1       16.748 -30.758  11.685  0.00  0.00    -0.388 OA
ATOM     17  H   LIG    1       16.078 -30.984  12.363  0.00  0.00    +0.210 HD
ENDBRANCH  15  16
BRANCH  15  18
ATOM     18  C   LIG    1       18.163 -31.910  10.109  0.00  0.00    +0.188 C 
BRANCH  18  19
ATOM     19  O   LIG    1       18.361 -30.546   9.719  0.00  0.00    -0.392 OA
ATOM     20  H   LIG    1       18.776 -30.552   8.838  0.00  0.00    +0.209 HD
ENDBRANCH  18  19
ENDBRANCH  15  18
ENDBRANCH  14  15
ENDBRANCH  11  14
ENDBRANCH   4  10
BRANCH   1  23
ATOM     21  C   LIG    1       27.251 -31.423   9.568  0.00  0.00    +0.110 C 
ATOM     22  C   LIG    1       26.051 -31.256  10.474  0.00  0.00    +0.217 C 
ATOM     23  N   LIG    1       25.178 -30.189  10.214  0.00  0.00    -0.267 N 
ATOM     24  O   LIG    1       25.952 -31.976  11.473  0.00  0.00    -0.276 OA
BRANCH  23  25
ATOM     25  C   LIG    1       25.301 -29.302   9.037  0.00  0.00    +0.147 C 
BRANCH  25  26
ATOM     26  C   LIG    1       24.729 -29.894   7.733  0.00  0.00    +0.158 C 
BRANCH  26  27
ATOM     27  O   LIG    1       25.754 -30.547   6.980  0.00  0.00    -0.388 OA
ATOM     28  H   LIG    1       26.548 -29.980   7.057  0.00  0.00    +0.210 HD
ENDBRANCH  26  27
BRANCH  26  29
ATOM     29  C   LIG    1       24.136 -28.782   6.855  0.00  0.00    +0.188 C 
BRANCH  29  30
ATOM     30  O   LIG    1       23.484 -29.384   5.732  0.00  0.00    -0.392 OA
ATOM     31  H   LIG    1       23.623 -28.804   4.961  0.00  0.00    +0.209 HD
ENDBRANCH  29  30
ENDBRANCH  26  29
ENDBRANCH  25  26
ENDBRANCH  23  25
ENDBRANCH   1  23
BRANCH   7  32
ATOM     32  C   LIG    1       23.441 -26.977  13.578  0.00  0.00    +0.246 C 
ATOM     33  N   LIG    1       24.259 -26.797  14.699  0.00  0.00    -0.309 N 
ATOM     34  H   LIG    1       24.750 -27.571  15.139  0.00  0.00    +0.149 HD
ATOM     35  O   LIG    1       22.853 -26.028  13.076  0.00  0.00    -0.270 OA
BRANCH  33  36
ATOM     36  C   LIG    1       24.568 -25.468  15.228  0.00  0.00    +0.138 C 
BRANCH  36  37
ATOM     37  C   LIG    1       25.786 -24.820  14.563  0.00  0.00    +0.157 C 
BRANCH  37  38
ATOM     38  O   LIG    1       25.482 -24.433  13.210  0.00  0.00    -0.388 OA
ATOM     39  H   LIG    1       26.280 -23.957  12.894  0.00  0.00    +0.210 HD
ENDBRANCH  37  38
BRANCH  37  40
ATOM     40  C   LIG    1       26.227 -23.574  15.342  0.00  0.00    +0.188 C 
BRANCH  40  41
ATOM     41  O   LIG    1       25.644 -22.417  14.736  0.00  0.00    -0.392 OA
ATOM     42  H   LIG    1       25.881 -22.429  13.791  0.00  0.00    +0.209 HD
ENDBRANCH  40  41
ENDBRANCH  37  40
ENDBRANCH  36  37
ENDBRANCH  33  36
ENDBRANCH   7  32
TORSDOF 18
ENDMDL
MODEL 5
REMARK VINA RESULT:      -5.1      2.017      6.393
REMARK  Name = *****
REMARK                            x       y       z     vdW  Elec       q    Type
REMARK                         _______ _______ _______ _____ _____    ______ ____
ROOT
ATOM      1  C   LIG    1       22.589 -30.631  12.659  0.00  0.00    +0.064 A 
ATOM      2  C   LIG    1       23.172 -31.204  11.499  0.00  0.00    +0.049 A 
ATOM      3  I   LIG    1       22.444 -33.179  10.897  0.00  0.00    -0.041 I 
ATOM      4  C   LIG    1       24.329 -30.645  10.890  0.00  0.00    +0.065 A 
ATOM      5  C   LIG    1       25.045 -29.646  11.627  0.00  0.00    +0.040 A 
ATOM      6  I   LIG    1       26.721 -28.610  10.721  0.00  0.00    -0.042 I 
ATOM      7  C   LIG    1       24.600 -29.214  12.912  0.00  0.00    +0.065 A 
ATOM      8  C   LIG    1       23.292 -29.591  13.307  0.00  0.00    +0.049 A 
ATOM      9  I   LIG    1       22.182 -28.175  14.582  0.00  0.00    -0.041 I 
ENDROOT
BRANCH   4  10
ATOM     10  C   LIG    1       24.785 -31.085   9.494  0.00  0.00    +0.246 C 
ATOM     11  N   LIG    1       24.127 -30.479   8.425  0.00  0.00    -0.309 N 
ATOM     12  H   LIG    1       23.173 -30.183   8.589  0.00  0.00    +0.149 HD
ATOM     13  O   LIG    1       25.644 -31.906   9.317  0.00  0.00    -0.270 OA
BRANCH  11  14
ATOM     14  C   LIG    1       24.403 -30.849   7.037  0.00  0.00    +0.138 C 
BRANCH  14  15
ATOM     15  C   LIG    1       24.381 -29.626   6.103  0.00  0.00    +0.157 C 
BRANCH  15  16
ATOM     16  O   LIG    1       23.125 -29.570   5.406  0.00  0.00    -0.388 OA
ATOM     17  H   LIG    1       22.446 -29.397   6.091  0.00  0.00    +0.210 HD
ENDBRANCH  15  16
BRANCH  15  18
ATOM     18  C   LIG    1       24.581 -28.303   6.850  0.00  0.00    +0.188 C 
BRANCH  18  19
ATOM     19  O   LIG    1       25.981 -28.106   7.078  0.00  0.00    -0.392 OA
ATOM     20  H   LIG    1       26.407 -28.981   7.054  0.00  0.00    +0.209 HD
ENDBRANCH  18  19
ENDBRANCH  15  18
ENDBRANCH  14  15
ENDBRANCH  11  14
ENDBRANCH   4  10
BRANCH   1  23
ATOM     21  C   LIG    1       19.894 -32.686  14.408  0.00  0.00    +0.110 C 
ATOM     22  C   LIG    1       21.242 -32.071  14.103  0.00  0.00    +0.217 C 
ATOM     23  N   LIG    1       21.293 -31.050  13.142  0.00  0.00    -0.267 N 
ATOM     24  O   LIG    1       22.254 -32.568  14.608  0.00  0.00    -0.276 OA
BRANCH  23  25
ATOM     25  C   LIG    1       20.092 -30.464  12.509  0.00  0.00    +0.147 C 
BRANCH  25  26
ATOM     26  C   LIG    1       19.569 -31.249  11.289  0.00  0.00    +0.158 C 
BRANCH  26  27
ATOM     27  O   LIG    1       19.652 -30.457  10.102  0.00  0.00    -0.388 OA
ATOM     28  H   LIG    1       20.497 -30.702   9.673  0.00  0.00    +0.210 HD
ENDBRANCH  26  27
BRANCH  26  29
ATOM     29  C   LIG    1       18.098 -31.639  11.494  0.00  0.00    +0.188 C 
BRANCH  29  30
ATOM     30  O   LIG    1       17.285 -30.813  10.654  0.00  0.00    -0.392 OA
ATOM     31  H   LIG    1       16.763 -31.399  10.076  0.00  0.00    +0.209 HD
ENDBRANCH  29  30
ENDBRANCH  26  29
ENDBRANCH  25  26
ENDBRANCH  23  25
ENDBRANCH   1  23
BRANCH   7  32
ATOM     32  C   LIG    1       25.461 -28.462  13.907  0.00  0.00    +0.246 C 
ATOM     33  N   LIG    1       25.356 -27.067  13.877  0.00  0.00    -0.309 N 
ATOM     34  H   LIG    1       24.772 -26.583  13.200  0.00  0.00    +0.149 HD
ATOM     35  O   LIG    1       26.182 -29.017  14.727  0.00  0.00    -0.270 OA
BRANCH  33  36
ATOM     36  C   LIG    1       25.974 -26.221  14.899  0.00  0.00    +0.138 C 
BRANCH  36  37
ATOM     37  C   LIG    1       26.334 -24.822  14.391  0.00  0.00    +0.157 C 
BRANCH  37  38
ATOM     38  O   LIG    1       25.989 -24.681  13.001  0.00  0.00    -0.388 OA
ATOM     39  H   LIG    1       25.398 -25.439  12.805  0.00  0.00    +0.210 HD
ENDBRANCH  37  38
BRANCH  37  40
ATOM     40  C   LIG    1       25.587 -23.748  15.193  0.00  0.00    +0.188 C 
BRANCH  40  41
ATOM     41  O   LIG    1       25.489 -22.561  14.402  0.00  0.00    -0.392 OA
ATOM     42  H   LIG    1       25.477 -21.801  15.013  0.00  0.00    +0.209 HD
ENDBRANCH  40  41
ENDBRANCH  37  40
ENDBRANCH  36  37
ENDBRANCH  33  36
ENDBRANCH   7  32
TORSDOF 18
ENDMDL
MODEL 6
REMARK VINA RESULT:      -5.1      1.370      6.630
REMARK  Name = *****
REMARK                            x       y       z     vdW  Elec       q    Type
REMARK                         _______ _______ _______ _____ _____    ______ ____
ROOT
ATOM      1  C   LIG    1       25.334 -29.392  12.486  0.00  0.00    +0.064 A 
ATOM      2  C   LIG    1       24.225 -29.596  13.349  0.00  0.00    +0.049 A 
ATOM      3  I   LIG    1       24.602 -29.440  15.500  0.00  0.00    -0.041 I 
ATOM      4  C   LIG    1       22.988 -30.106  12.867  0.00  0.00    +0.065 A 
ATOM      5  C   LIG    1       22.971 -30.657  11.545  0.00  0.00    +0.040 A 
ATOM      6  I   LIG    1       21.103 -31.306  10.654  0.00  0.00    -0.042 I 
ATOM      7  C   LIG    1       24.146 -30.671  10.734  0.00  0.00    +0.065 A 
ATOM      8  C   LIG    1       25.241 -29.880  11.163  0.00  0.00    +0.049 A 
ATOM      9  I   LIG    1       26.506 -28.983   9.596  0.00  0.00    -0.041 I 
ENDROOT
BRANCH   4  10
ATOM     10  C   LIG    1       21.719 -30.057  13.726  0.00  0.00    +0.246 C 
ATOM     11  N   LIG    1       21.073 -28.824  13.780  0.00  0.00    -0.309 N 
ATOM     12  H   LIG    1       21.653 -28.003  13.666  0.00  0.00    +0.149 HD
ATOM     13  O   LIG    1       21.304 -31.010  14.330  0.00  0.00    -0.270 OA
BRANCH  11  14
ATOM     14  C   LIG    1       19.892 -28.605  14.613  0.00  0.00    +0.138 C 
BRANCH  14  15
ATOM     15  C   LIG    1       18.874 -27.672  13.933  0.00  0.00    +0.157 C 
BRANCH  15  16
ATOM     16  O   LIG    1       17.551 -28.219  14.063  0.00  0.00    -0.388 OA
ATOM     17  H   LIG    1       17.026 -27.825  13.336  0.00  0.00    +0.210 HD
ENDBRANCH  15  16
BRANCH  15  18
ATOM     18  C   LIG    1       18.876 -26.258  14.524  0.00  0.00    +0.188 C 
BRANCH  18  19
ATOM     19  O   LIG    1       17.597 -25.657  14.292  0.00  0.00    -0.392 OA
ATOM     20  H   LIG    1       17.754 -24.761  13.945  0.00  0.00    +0.209 HD
ENDBRANCH  18  19
ENDBRANCH  15  18
ENDBRANCH  14  15
ENDBRANCH  11  14
ENDBRANCH   4  10
BRANCH   1  23
ATOM     21  C   LIG    1       28.620 -28.576  14.241  0.00  0.00    +0.110 C 
ATOM     22  C   LIG    1       27.528 -29.372  13.562  0.00  0.00    +0.217 C 
ATOM     23  N   LIG    1       26.505 -28.663  12.916  0.00  0.00    -0.267 N 
ATOM     24  O   LIG    1       27.506 -30.599  13.706  0.00  0.00    -0.276 OA
BRANCH  23  25
ATOM     25  C   LIG    1       26.505 -27.192  12.760  0.00  0.00    +0.147 C 
BRANCH  25  26
ATOM     26  C   LIG    1       25.857 -26.428  13.932  0.00  0.00    +0.158 C 
BRANCH  26  27
ATOM     27  O   LIG    1       24.526 -26.023  13.600  0.00  0.00    -0.388 OA
ATOM     28  H   LIG    1       24.199 -26.679  12.950  0.00  0.00    +0.210 HD
ENDBRANCH  26  27
BRANCH  26  29
ATOM     29  C   LIG    1       26.665 -25.164  14.260  0.00  0.00    +0.188 C 
BRANCH  29  30
ATOM     30  O   LIG    1       27.721 -25.035  13.302  0.00  0.00    -0.392 OA
ATOM     31  H   LIG    1       28.382 -25.726  13.492  0.00  0.00    +0.209 HD
ENDBRANCH  29  30
ENDBRANCH  26  29
ENDBRANCH  25  26
ENDBRANCH  23  25
ENDBRANCH   1  23
BRANCH   7  32
ATOM     32  C   LIG    1       24.327 -31.539   9.505  0.00  0.00    +0.246 C 
ATOM     33  N   LIG    1       23.902 -30.982   8.293  0.00  0.00    -0.309 N 
ATOM     34  H   LIG    1       23.460 -30.068   8.245  0.00  0.00    +0.149 HD
ATOM     35  O   LIG    1       24.847 -32.647   9.535  0.00  0.00    -0.270 OA
BRANCH  33  36
ATOM     36  C   LIG    1       24.188 -31.617   7.006  0.00  0.00    +0.138 C 
BRANCH  36  37
ATOM     37  C   LIG    1       25.066 -30.760   6.090  0.00  0.00    +0.157 C 
BRANCH  37  38
ATOM     38  O   LIG    1       25.156 -31.346   4.777  0.00  0.00    -0.388 OA
ATOM     39  H   LIG    1       25.256 -30.587   4.164  0.00  0.00    +0.210 HD
ENDBRANCH  37  38
BRANCH  37  40
ATOM     40  C   LIG    1       24.488 -29.345   5.956  0.00  0.00    +0.188 C 
BRANCH  40  41
ATOM     41  O   LIG    1       23.144 -29.436   5.475  0.00  0.00    -0.392 OA
ATOM     42  H   LIG    1       23.068 -28.846   4.703  0.00  0.00    +0.209 HD
ENDBRANCH  40  41
ENDBRANCH  37  40
ENDBRANCH  36  37
ENDBRANCH  33  36
ENDBRANCH   7  32
TORSDOF 18
ENDMDL
MODEL 7
REMARK VINA RESULT:      -4.7      2.203      6.549
REMARK  Name = *****
REMARK                            x       y       z     vdW  Elec       q    Type
REMARK                         _______ _______ _______ _____ _____    ______ ____
ROOT
ATOM      1  C   LIG    1       24.634 -30.083  12.770  0.00  0.00    +0.064 A 
ATOM      2  C   LIG    1       23.507 -30.857  13.152  0.00  0.00    +0.049 A 
ATOM      3  I   LIG    1       23.109 -31.036  15.297  0.00  0.00    -0.041 I 
ATOM      4  C   LIG    1       22.806 -31.668  12.217  0.00  0.00    +0.065 A 
ATOM      5  C   LIG    1       23.425 -31.892  10.944  0.00  0.00    +0.040 A 
ATOM      6  I   LIG    1       22.366 -32.972   9.389  0.00  0.00    -0.042 I 
ATOM      7  C   LIG    1       24.684 -31.303  10.618  0.00  0.00    +0.065 A 
ATOM      8  C   LIG    1       25.161 -30.278  11.473  0.00  0.00    +0.049 A 
ATOM      9  I   LIG    1       26.348 -28.669  10.544  0.00  0.00    -0.041 I 
ENDROOT
BRANCH   4  10
ATOM     10  C   LIG    1       21.438 -32.271  12.555  0.00  0.00    +0.246 C 
ATOM     11  N   LIG    1       20.345 -31.425  12.374  0.00  0.00    -0.309 N 
ATOM     12  H   LIG    1       20.515 -30.434  12.483  0.00  0.00    +0.149 HD
ATOM     13  O   LIG    1       21.302 -33.393  12.962  0.00  0.00    -0.270 OA
BRANCH  11  14
ATOM     14  C   LIG    1       18.985 -31.835  12.721  0.00  0.00    +0.138 C 
BRANCH  14  15
ATOM     15  C   LIG    1       18.056 -31.842  11.493  0.00  0.00    +0.157 C 
BRANCH  15  16
ATOM     16  O   LIG    1       17.099 -30.775  11.602  0.00  0.00    -0.388 OA
ATOM     17  H   LIG    1       16.238 -31.206  11.784  0.00  0.00    +0.210 HD
ENDBRANCH  15  16
BRANCH  15  18
ATOM     18  C   LIG    1       18.817 -31.679  10.173  0.00  0.00    +0.188 C 
BRANCH  18  19
ATOM     19  O   LIG    1       18.972 -30.283   9.895  0.00  0.00    -0.392 OA
ATOM     20  H   LIG    1       19.601 -30.200   9.156  0.00  0.00    +0.209 HD
ENDBRANCH  18  19
ENDBRANCH  15  18
ENDBRANCH  14  15
ENDBRANCH  11  14
ENDBRANCH   4  10
BRANCH   1  23
ATOM     21  C   LIG    1       25.438 -26.693  14.321  0.00  0.00    +0.110 C 
ATOM     22  C   LIG    1       24.677 -27.787  13.605  0.00  0.00    +0.217 C 
ATOM     23  N   LIG    1       25.202 -29.087  13.648  0.00  0.00    -0.267 N 
ATOM     24  O   LIG    1       23.703 -27.480  12.909  0.00  0.00    -0.276 OA
BRANCH  23  25
ATOM     25  C   LIG    1       26.384 -29.463  14.455  0.00  0.00    +0.147 C 
BRANCH  25  26
ATOM     26  C   LIG    1       27.395 -30.364  13.719  0.00  0.00    +0.158 C 
BRANCH  26  27
ATOM     27  O   LIG    1       27.545 -31.615  14.395  0.00  0.00    -0.388 OA
ATOM     28  H   LIG    1       27.873 -32.247  13.723  0.00  0.00    +0.210 HD
ENDBRANCH  26  27
BRANCH  26  29
ATOM     29  C   LIG    1       28.774 -29.689  13.666  0.00  0.00    +0.188 C 
BRANCH  29  30
ATOM     30  O   LIG    1       28.608 -28.290  13.917  0.00  0.00    -0.392 OA
ATOM     31  H   LIG    1       29.470 -27.858  13.775  0.00  0.00    +0.209 HD
ENDBRANCH  29  30
ENDBRANCH  26  29
ENDBRANCH  25  26
ENDBRANCH  23  25
ENDBRANCH   1  23
BRANCH   7  32
ATOM     32  C   LIG    1       25.574 -31.761   9.482  0.00  0.00    +0.246 C 
ATOM     33  N   LIG    1       25.184 -31.363   8.198  0.00  0.00    -0.309 N 
ATOM     34  H   LIG    1       24.332 -30.835   8.032  0.00  0.00    +0.149 HD
ATOM     35  O   LIG    1       26.601 -32.407   9.650  0.00  0.00    -0.270 OA
BRANCH  33  36
ATOM     36  C   LIG    1       26.043 -31.564   7.030  0.00  0.00    +0.138 C 
BRANCH  36  37
ATOM     37  C   LIG    1       25.520 -30.872   5.768  0.00  0.00    +0.157 C 
BRANCH  37  38
ATOM     38  O   LIG    1       24.761 -31.792   4.961  0.00  0.00    -0.388 OA
ATOM     39  H   LIG    1       24.460 -31.268   4.189  0.00  0.00    +0.210 HD
ENDBRANCH  37  38
BRANCH  37  40
ATOM     40  C   LIG    1       24.619 -29.686   6.136  0.00  0.00    +0.188 C 
BRANCH  40  41
ATOM     41  O   LIG    1       23.276 -29.983   5.747  0.00  0.00    -0.392 OA
ATOM     42  H   LIG    1       22.942 -30.673   6.349  0.00  0.00    +0.209 HD
ENDBRANCH  40  41
ENDBRANCH  37  40
ENDBRANCH  36  37
ENDBRANCH  33  36
ENDBRANCH   7  32
TORSDOF 18
ENDMDL
MODEL 8
REMARK VINA RESULT:      -4.5      2.366      6.512
REMARK  Name = *****
REMARK                            x       y       z     vdW  Elec       q    Type
REMARK                         _______ _______ _______ _____ _____    ______ ____
ROOT
ATOM      1  C   LIG    1       22.647 -31.323  11.379  0.00  0.00    +0.064 A 
ATOM      2  C   LIG    1       23.438 -31.663  10.250  0.00  0.00    +0.049 A 
ATOM      3  I   LIG    1       23.019 -33.587   9.292  0.00  0.00    -0.041 I 
ATOM      4  C   LIG    1       24.594 -30.916   9.895  0.00  0.00    +0.065 A 
ATOM      5  C   LIG    1       25.092 -29.975  10.854  0.00  0.00    +0.040 A 
ATOM      6  I   LIG    1       26.745 -28.667  10.346  0.00  0.00    -0.042 I 
ATOM      7  C   LIG    1       24.437 -29.778  12.107  0.00  0.00    +0.065 A 
ATOM      8  C   LIG    1       23.139 -30.329  12.254  0.00  0.00    +0.049 A 
ATOM      9  I   LIG    1       21.720 -29.223  13.530  0.00  0.00    -0.041 I 
ENDROOT
BRANCH   4  10
ATOM     10  C   LIG    1       25.275 -31.102   8.534  0.00  0.00    +0.246 C 
ATOM     11  N   LIG    1       24.754 -30.343   7.488  0.00  0.00    -0.309 N 
ATOM     12  H   LIG    1       23.772 -30.103   7.548  0.00  0.00    +0.149 HD
ATOM     13  O   LIG    1       26.192 -31.860   8.362  0.00  0.00    -0.270 OA
BRANCH  11  14
ATOM     14  C   LIG    1       25.252 -30.466   6.119  0.00  0.00    +0.138 C 
BRANCH  14  15
ATOM     15  C   LIG    1       24.622 -29.419   5.183  0.00  0.00    +0.157 C 
BRANCH  15  16
ATOM     16  O   LIG    1       23.207 -29.340   5.425  0.00  0.00    -0.388 OA
ATOM     17  H   LIG    1       22.804 -29.081   4.570  0.00  0.00    +0.210 HD
ENDBRANCH  15  16
BRANCH  15  18
ATOM     18  C   LIG    1       25.224 -28.021   5.364  0.00  0.00    +0.188 C 
BRANCH  18  19
ATOM     19  O   LIG    1       25.980 -27.995   6.580  0.00  0.00    -0.392 OA
ATOM     20  H   LIG    1       26.461 -28.839   6.643  0.00  0.00    +0.209 HD
ENDBRANCH  18  19
ENDBRANCH  15  18
ENDBRANCH  14  15
ENDBRANCH  11  14
ENDBRANCH   4  10
BRANCH   1  23
ATOM     21  C   LIG    1       18.864 -31.800  11.465  0.00  0.00    +0.110 C 
ATOM     22  C   LIG    1       20.230 -31.333  11.014  0.00  0.00    +0.217 C 
ATOM     23  N   LIG    1       21.354 -31.926  11.609  0.00  0.00    -0.267 N 
ATOM     24  O   LIG    1       20.309 -30.371  10.243  0.00  0.00    -0.276 OA
BRANCH  23  25
ATOM     25  C   LIG    1       21.274 -33.060  12.555  0.00  0.00    +0.147 C 
BRANCH  25  26
ATOM     26  C   LIG    1       21.376 -32.657  14.040  0.00  0.00    +0.158 C 
BRANCH  26  27
ATOM     27  O   LIG    1       22.529 -33.246  14.647  0.00  0.00    -0.388 OA
ATOM     28  H   LIG    1       22.549 -34.176  14.342  0.00  0.00    +0.210 HD
ENDBRANCH  26  27
BRANCH  26  29
ATOM     29  C   LIG    1       20.139 -33.139  14.811  0.00  0.00    +0.188 C 
BRANCH  29  30
ATOM     30  O   LIG    1       19.248 -32.033  14.984  0.00  0.00    -0.392 OA
ATOM     31  H   LIG    1       19.739 -31.219  14.769  0.00  0.00    +0.209 HD
ENDBRANCH  29  30
ENDBRANCH  26  29
ENDBRANCH  25  26
ENDBRANCH  23  25
ENDBRANCH   1  23
BRANCH   7  32
ATOM     32  C   LIG    1       25.070 -29.105  13.306  0.00  0.00    +0.246 C 
ATOM     33  N   LIG    1       25.139 -27.708  13.260  0.00  0.00    -0.309 N 
ATOM     34  H   LIG    1       24.823 -27.178  12.452  0.00  0.00    +0.149 HD
ATOM     35  O   LIG    1       25.469 -29.717  14.289  0.00  0.00    -0.270 OA
BRANCH  33  36
ATOM     36  C   LIG    1       25.544 -26.913  14.420  0.00  0.00    +0.138 C 
BRANCH  36  37
ATOM     37  C   LIG    1       27.036 -26.565  14.425  0.00  0.00    +0.157 C 
BRANCH  37  38
ATOM     38  O   LIG    1       27.807 -27.621  13.823  0.00  0.00    -0.388 OA
ATOM     39  H   LIG    1       27.825 -28.338  14.492  0.00  0.00    +0.210 HD
ENDBRANCH  37  38
BRANCH  37  40
ATOM     40  C   LIG    1       27.290 -25.268  13.646  0.00  0.00    +0.188 C 
BRANCH  40  41
ATOM     41  O   LIG    1       26.079 -24.868  13.000  0.00  0.00    -0.392 OA
ATOM     42  H   LIG    1       26.138 -25.146  12.068  0.00  0.00    +0.209 HD
ENDBRANCH  40  41
ENDBRANCH  37  40
ENDBRANCH  36  37
ENDBRANCH  33  36
ENDBRANCH   7  32
TORSDOF 18
ENDMDL
MODEL 9
REMARK VINA RESULT:      -4.5      1.729      2.936
REMARK  Name = *****
REMARK                            x       y       z     vdW  Elec       q    Type
REMARK                         _______ _______ _______ _____ _____    ______ ____
ROOT
ATOM      1  C   LIG    1       25.274 -28.999  12.490  0.00  0.00    +0.064 A 
ATOM      2  C   LIG    1       25.309 -29.547  11.181  0.00  0.00    +0.049 A 
ATOM      3  I   LIG    1       26.629 -28.569   9.733  0.00  0.00    -0.041 I 
ATOM      4  C   LIG    1       24.371 -30.527  10.756  0.00  0.00    +0.065 A 
ATOM      5  C   LIG    1       23.229 -30.753  11.591  0.00  0.00    +0.040 A 
ATOM      6  I   LIG    1       21.828 -32.341  11.122  0.00  0.00    -0.042 I 
ATOM      7  C   LIG    1       23.053 -30.039  12.814  0.00  0.00    +0.065 A 
ATOM      8  C   LIG    1       24.167 -29.316  13.310  0.00  0.00    +0.049 A 
ATOM      9  I   LIG    1       24.377 -29.173  15.500  0.00  0.00    -0.041 I 
ENDROOT
BRANCH   4  10
ATOM     10  C   LIG    1       24.579 -31.319   9.460  0.00  0.00    +0.246 C 
ATOM     11  N   LIG    1       24.092 -30.719   8.300  0.00  0.00    -0.309 N 
ATOM     12  H   LIG    1       23.296 -30.103   8.409  0.00  0.00    +0.149 HD
ATOM     13  O   LIG    1       25.115 -32.394   9.432  0.00  0.00    -0.270 OA
BRANCH  11  14
ATOM     14  C   LIG    1       24.153 -31.385   7.000  0.00  0.00    +0.138 C 
BRANCH  14  15
ATOM     15  C   LIG    1       25.419 -30.996   6.216  0.00  0.00    +0.157 C 
BRANCH  15  16
ATOM     16  O   LIG    1       26.588 -31.395   6.951  0.00  0.00    -0.388 OA
ATOM     17  H   LIG    1       27.221 -30.651   6.871  0.00  0.00    +0.210 HD
ENDBRANCH  15  16
BRANCH  15  18
ATOM     18  C   LIG    1       25.478 -31.638   4.825  0.00  0.00    +0.188 C 
BRANCH  18  19
ATOM     19  O   LIG    1       24.408 -32.583   4.705  0.00  0.00    -0.392 OA
ATOM     20  H   LIG    1       24.725 -33.315   4.148  0.00  0.00    +0.209 HD
ENDBRANCH  18  19
ENDBRANCH  15  18
ENDBRANCH  14  15
ENDBRANCH  11  14
ENDBRANCH   4  10
BRANCH   1  23
ATOM     21  C   LIG    1       27.290 -25.928  13.516  0.00  0.00    +0.110 C 
ATOM     22  C   LIG    1       26.104 -26.826  13.239  0.00  0.00    +0.217 C 
ATOM     23  N   LIG    1       26.353 -28.185  13.001  0.00  0.00    -0.267 N 
ATOM     24  O   LIG    1       24.987 -26.315  13.106  0.00  0.00    -0.276 OA
BRANCH  23  25
ATOM     25  C   LIG    1       27.691 -28.804  13.128  0.00  0.00    +0.147 C 
BRANCH  25  26
ATOM     26  C   LIG    1       28.212 -28.899  14.576  0.00  0.00    +0.158 C 
BRANCH  26  27
ATOM     27  O   LIG    1       29.499 -28.288  14.693  0.00  0.00    -0.388 OA
ATOM     28  H   LIG    1       29.406 -27.389  14.316  0.00  0.00    +0.210 HD
ENDBRANCH  26  27
BRANCH  26  29
ATOM     29  C   LIG    1       28.348 -30.369  15.001  0.00  0.00    +0.188 C 
BRANCH  29  30
ATOM     30  O   LIG    1       27.640 -31.184  14.061  0.00  0.00    -0.392 OA
ATOM     31  H   LIG    1       27.803 -30.821  13.171  0.00  0.00    +0.209 HD
ENDBRANCH  29  30
ENDBRANCH  26  29
ENDBRANCH  25  26
ENDBRANCH  23  25
ENDBRANCH   1  23
BRANCH   7  32
ATOM     32  C   LIG    1       21.740 -29.932  13.561  0.00  0.00    +0.246 C 
ATOM     33  N   LIG    1       21.059 -28.716  13.433  0.00  0.00    -0.309 N 
ATOM     34  H   LIG    1       21.442 -27.935  12.906  0.00  0.00    +0.149 HD
ATOM     35  O   LIG    1       21.259 -30.851  14.212  0.00  0.00    -0.270 OA
BRANCH  33  36
ATOM     36  C   LIG    1       19.696 -28.534  13.934  0.00  0.00    +0.138 C 
BRANCH  36  37
ATOM     37  C   LIG    1       19.311 -27.064  14.123  0.00  0.00    +0.157 C 
BRANCH  37  38
ATOM     38  O   LIG    1       19.475 -26.333  12.894  0.00  0.00    -0.388 OA
ATOM     39  H   LIG    1       19.951 -25.513  13.144  0.00  0.00    +0.210 HD
ENDBRANCH  37  38
BRANCH  37  40
ATOM     40  C   LIG    1       17.850 -26.942  14.574  0.00  0.00    +0.188 C 
BRANCH  40  41
ATOM     41  O   LIG    1       17.349 -25.659  14.188  0.00  0.00    -0.392 OA
ATOM     42  H   LIG    1       16.433 -25.783  13.879  0.00  0.00    +0.209 HD
ENDBRANCH  40  41
ENDBRANCH  37  40
ENDBRANCH  36  37
ENDBRANCH  33  36
ENDBRANCH   7  32
TORSDOF 18
ENDMDL
