MODEL 1
REMARK VINA RESULT:     -10.0      0.000      0.000
REMARK  Name = *****
REMARK                            x       y       z     vdW  Elec       q    Type
REMARK                         _______ _______ _______ _____ _____    ______ ____
ROOT
ATOM      1  C   LIG    1       23.899 -29.437   6.593  0.00  0.00    +0.338 C 
ATOM      2  O   LIG    1       23.331 -29.664   5.558  0.00  0.00    -0.245 OA
ENDROOT
BRANCH   1   5
ATOM      3  C   LIG    1       26.148 -30.877   9.190  0.00  0.00    +0.065 C 
ATOM      4  C   LIG    1       24.822 -30.131   8.931  0.00  0.00    +0.096 C 
ATOM      5  C   LIG    1       24.361 -30.491   7.523  0.00  0.00    +0.065 C 
ATOM      6  C   LIG    1       24.509 -31.769   7.101  0.00  0.00    +0.016 C 
ATOM      7  C   LIG    1       23.957 -32.309   5.814  0.00  0.00    +0.061 C 
ATOM      8  N   LIG    1       25.245 -32.647   7.899  0.00  0.00    -0.321 N 
ATOM      9  H   LIG    1       25.451 -33.545   7.463  0.00  0.00    +0.152 HD
ATOM     10  C   LIG    1       26.262 -32.151   8.722  0.00  0.00    +0.016 C 
ATOM     11  C   LIG    1       27.417 -33.082   8.927  0.00  0.00    +0.061 C 
BRANCH   4  12
ATOM     12  C   LIG    1       23.779 -30.449  10.044  0.00  0.00    -0.029 A 
ATOM     13  C   LIG    1       22.466 -30.862   9.754  0.00  0.00    +0.088 A 
ATOM     14  C   LIG    1       21.575 -31.218  10.780  0.00  0.00    +0.273 A 
ATOM     15  C   LIG    1       21.962 -31.145  12.120  0.00  0.00    +0.084 A 
ATOM     16  C   LIG    1       23.247 -30.708  12.430  0.00  0.00    +0.007 A 
ATOM     17  C   LIG    1       24.143 -30.363  11.406  0.00  0.00    +0.005 A 
BRANCH  14  18
ATOM     18  N   LIG    1       20.233 -31.701  10.432  0.00  0.00    +0.080 N 
ATOM     19  O   LIG    1       19.405 -30.872  10.030  0.00  0.00    -0.576 OA
ATOM     20  O   LIG    1       20.005 -32.915  10.558  0.00  0.00    +0.041 OA
ENDBRANCH  14  18
ENDBRANCH   4  12
BRANCH   3  21
ATOM     21  C   LIG    1       27.213 -30.128   9.930  0.00  0.00    +0.337 C 
ATOM     22  O   LIG    1       28.052 -30.583  10.573  0.00  0.00    -0.245 OA
BRANCH  21  24
ATOM     23  C   LIG    1       26.954 -27.968  10.923  0.00  0.00    +0.280 C 
ATOM     24  O   LIG    1       26.953 -28.790   9.802  0.00  0.00    -0.465 OA
ENDBRANCH  21  24
ENDBRANCH   3  21
ENDBRANCH   1   5
BRANCH   1  25
ATOM     25  O   LIG    1       24.189 -28.205   7.094  0.00  0.00    -0.454 OA
BRANCH  25  26
ATOM     26  C   LIG    1       25.122 -27.354   6.338  0.00  0.00    +0.121 C 
ATOM     27  C   LIG    1       25.442 -28.122   5.053  0.00  0.00    +0.057 C 
ATOM     28  C   LIG    1       26.329 -26.993   7.217  0.00  0.00    +0.057 C 
BRANCH  26  29
ATOM     29  C   LIG    1       24.295 -26.082   5.960  0.00  0.00    +0.131 C 
BRANCH  29  30
ATOM     30  N   LIG    1       24.873 -24.688   5.864  0.00  0.00    -0.302 NA
ATOM     31  C   LIG    1       24.724 -24.314   4.457  0.00  0.00    +0.105 C 
BRANCH  30  32
ATOM     32  C   LIG    1       24.321 -23.690   6.803  0.00  0.00    +0.085 C 
BRANCH  32  33
ATOM     33  C   LIG    1       25.185 -22.576   7.552  0.00  0.00    +0.028 C 
BRANCH  33  34
ATOM     34  C   LIG    1       25.457 -21.104   7.044  0.00  0.00    +0.050 C 
BRANCH  34  35
ATOM     35  C   LIG    1       24.462 -20.689   5.854  0.00  0.00    -0.040 A 
ATOM     36  C   LIG    1       24.913 -20.541   4.531  0.00  0.00    +0.004 A 
ATOM     37  C   LIG    1       24.364 -19.579   3.677  0.00  0.00    +0.000 A 
ATOM     38  C   LIG    1       23.136 -19.014   3.976  0.00  0.00    +0.000 A 
ATOM     39  C   LIG    1       22.478 -19.421   5.135  0.00  0.00    +0.000 A 
ATOM     40  C   LIG    1       23.159 -20.198   6.103  0.00  0.00    +0.004 A 
ENDBRANCH  34  35
BRANCH  34  41
ATOM     41  C   LIG    1       26.976 -20.772   6.800  0.00  0.00    -0.040 A 
ATOM     42  C   LIG    1       28.012 -21.374   7.536  0.00  0.00    +0.004 A 
ATOM     43  C   LIG    1       29.289 -20.807   7.630  0.00  0.00    +0.000 A 
ATOM     44  C   LIG    1       29.665 -19.814   6.745  0.00  0.00    +0.000 A 
ATOM     45  C   LIG    1       28.757 -19.422   5.774  0.00  0.00    +0.000 A 
ATOM     46  C   LIG    1       27.429 -19.878   5.822  0.00  0.00    +0.004 A 
ENDBRANCH  34  41
ENDBRANCH  33  34
ENDBRANCH  32  33
ENDBRANCH  30  32
ENDBRANCH  29  30
ENDBRANCH  26  29
ENDBRANCH  25  26
ENDBRANCH   1  25
TORSDOF 14
ENDMDL
MODEL 2
REMARK VINA RESULT:      -9.8      1.486      1.661
REMARK  Name = *****
REMARK                            x       y       z     vdW  Elec       q    Type
REMARK                         _______ _______ _______ _____ _____    ______ ____
ROOT
ATOM      1  C   LIG    1       23.926 -29.342   6.576  0.00  0.00    +0.338 C 
ATOM      2  O   LIG    1       23.431 -29.585   5.508  0.00  0.00    -0.245 OA
ENDROOT
BRANCH   1   5
ATOM      3  C   LIG    1       26.101 -30.787   9.232  0.00  0.00    +0.065 C 
ATOM      4  C   LIG    1       24.810 -29.995   8.941  0.00  0.00    +0.096 C 
ATOM      5  C   LIG    1       24.338 -30.382   7.545  0.00  0.00    +0.065 C 
ATOM      6  C   LIG    1       24.433 -31.679   7.167  0.00  0.00    +0.016 C 
ATOM      7  C   LIG    1       23.863 -32.239   5.896  0.00  0.00    +0.061 C 
ATOM      8  N   LIG    1       25.127 -32.559   7.998  0.00  0.00    -0.321 N 
ATOM      9  H   LIG    1       25.296 -33.480   7.594  0.00  0.00    +0.152 HD
ATOM     10  C   LIG    1       26.162 -32.080   8.808  0.00  0.00    +0.016 C 
ATOM     11  C   LIG    1       27.276 -33.052   9.050  0.00  0.00    +0.061 C 
BRANCH   4  12
ATOM     12  C   LIG    1       23.751 -30.229  10.060  0.00  0.00    -0.029 A 
ATOM     13  C   LIG    1       23.945 -29.803  11.387  0.00  0.00    +0.088 A 
ATOM     14  C   LIG    1       22.936 -29.958  12.352  0.00  0.00    +0.273 A 
ATOM     15  C   LIG    1       21.721 -30.565  12.026  0.00  0.00    +0.084 A 
ATOM     16  C   LIG    1       21.521 -31.021  10.726  0.00  0.00    +0.007 A 
ATOM     17  C   LIG    1       22.523 -30.858   9.756  0.00  0.00    +0.005 A 
BRANCH  14  18
ATOM     18  N   LIG    1       23.156 -29.446  13.710  0.00  0.00    +0.080 N 
ATOM     19  O   LIG    1       22.420 -28.533  14.112  0.00  0.00    -0.576 OA
ATOM     20  O   LIG    1       24.067 -29.957  14.381  0.00  0.00    +0.041 OA
ENDBRANCH  14  18
ENDBRANCH   4  12
BRANCH   3  21
ATOM     21  C   LIG    1       27.195 -30.059   9.951  0.00  0.00    +0.337 C 
ATOM     22  O   LIG    1       28.034 -30.531  10.582  0.00  0.00    -0.245 OA
BRANCH  21  24
ATOM     23  C   LIG    1       26.993 -27.892  10.941  0.00  0.00    +0.280 C 
ATOM     24  O   LIG    1       26.963 -28.717   9.822  0.00  0.00    -0.465 OA
ENDBRANCH  21  24
ENDBRANCH   3  21
ENDBRANCH   1   5
BRANCH   1  25
ATOM     25  O   LIG    1       24.165 -28.102   7.085  0.00  0.00    -0.454 OA
BRANCH  25  26
ATOM     26  C   LIG    1       25.055 -27.206   6.328  0.00  0.00    +0.121 C 
ATOM     27  C   LIG    1       25.363 -27.931   5.016  0.00  0.00    +0.057 C 
ATOM     28  C   LIG    1       26.274 -26.834   7.187  0.00  0.00    +0.057 C 
BRANCH  26  29
ATOM     29  C   LIG    1       24.184 -25.948   6.006  0.00  0.00    +0.131 C 
BRANCH  29  30
ATOM     30  N   LIG    1       24.694 -24.525   6.048  0.00  0.00    -0.302 NA
ATOM     31  C   LIG    1       24.896 -24.156   4.647  0.00  0.00    +0.105 C 
BRANCH  30  32
ATOM     32  C   LIG    1       23.865 -23.561   6.801  0.00  0.00    +0.085 C 
BRANCH  32  33
ATOM     33  C   LIG    1       24.442 -22.325   7.630  0.00  0.00    +0.028 C 
BRANCH  33  34
ATOM     34  C   LIG    1       24.981 -20.965   7.029  0.00  0.00    +0.050 C 
BRANCH  34  35
ATOM     35  C   LIG    1       24.147 -20.511   5.734  0.00  0.00    -0.040 A 
ATOM     36  C   LIG    1       24.752 -20.387   4.472  0.00  0.00    +0.004 A 
ATOM     37  C   LIG    1       24.346 -19.403   3.563  0.00  0.00    +0.000 A 
ATOM     38  C   LIG    1       23.117 -18.786   3.721  0.00  0.00    +0.000 A 
ATOM     39  C   LIG    1       22.315 -19.160   4.797  0.00  0.00    +0.000 A 
ATOM     40  C   LIG    1       22.847 -19.963   5.835  0.00  0.00    +0.004 A 
ENDBRANCH  34  35
BRANCH  34  41
ATOM     41  C   LIG    1       26.546 -20.896   6.882  0.00  0.00    -0.040 A 
ATOM     42  C   LIG    1       27.413 -21.757   7.579  0.00  0.00    +0.004 A 
ATOM     43  C   LIG    1       28.764 -21.451   7.786  0.00  0.00    +0.000 A 
ATOM     44  C   LIG    1       29.363 -20.454   7.038  0.00  0.00    +0.000 A 
ATOM     45  C   LIG    1       28.598 -19.796   6.088  0.00  0.00    +0.000 A 
ATOM     46  C   LIG    1       27.209 -20.001   6.033  0.00  0.00    +0.004 A 
ENDBRANCH  34  41
ENDBRANCH  33  34
ENDBRANCH  32  33
ENDBRANCH  30  32
ENDBRANCH  29  30
ENDBRANCH  26  29
ENDBRANCH  25  26
ENDBRANCH   1  25
TORSDOF 14
ENDMDL
MODEL 3
REMARK VINA RESULT:      -9.7      1.285      3.214
REMARK  Name = *****
REMARK                            x       y       z     vdW  Elec       q    Type
REMARK                         _______ _______ _______ _____ _____    ______ ____
ROOT
ATOM      1  C   LIG    1       23.907 -29.509   6.453  0.00  0.00    +0.338 C 
ATOM      2  O   LIG    1       23.437 -29.693   5.361  0.00  0.00    -0.245 OA
ENDROOT
BRANCH   1   5
ATOM      3  C   LIG    1       25.917 -31.013   9.204  0.00  0.00    +0.065 C 
ATOM      4  C   LIG    1       24.591 -30.315   8.837  0.00  0.00    +0.096 C 
ATOM      5  C   LIG    1       24.315 -30.600   7.365  0.00  0.00    +0.065 C 
ATOM      6  C   LIG    1       24.581 -31.838   6.885  0.00  0.00    +0.016 C 
ATOM      7  C   LIG    1       24.211 -32.315   5.511  0.00  0.00    +0.061 C 
ATOM      8  N   LIG    1       25.267 -32.732   7.709  0.00  0.00    -0.321 N 
ATOM      9  H   LIG    1       25.570 -33.588   7.246  0.00  0.00    +0.152 HD
ATOM     10  C   LIG    1       26.154 -32.245   8.675  0.00  0.00    +0.016 C 
ATOM     11  C   LIG    1       27.327 -33.133   8.958  0.00  0.00    +0.061 C 
BRANCH   4  12
ATOM     12  C   LIG    1       23.446 -30.756   9.797  0.00  0.00    -0.029 A 
ATOM     13  C   LIG    1       23.034 -29.974  10.892  0.00  0.00    +0.088 A 
ATOM     14  C   LIG    1       21.944 -30.362  11.689  0.00  0.00    +0.273 A 
ATOM     15  C   LIG    1       21.258 -31.551  11.434  0.00  0.00    +0.084 A 
ATOM     16  C   LIG    1       21.670 -32.354  10.374  0.00  0.00    +0.007 A 
ATOM     17  C   LIG    1       22.751 -31.963   9.568  0.00  0.00    +0.005 A 
BRANCH  14  18
ATOM     18  N   LIG    1       21.508 -29.487  12.785  0.00  0.00    +0.080 N 
ATOM     19  O   LIG    1       21.023 -30.019  13.793  0.00  0.00    -0.576 OA
ATOM     20  O   LIG    1       21.653 -28.262  12.641  0.00  0.00    +0.041 OA
ENDBRANCH  14  18
ENDBRANCH   4  12
BRANCH   3  21
ATOM     21  C   LIG    1       26.847 -30.266  10.109  0.00  0.00    +0.337 C 
ATOM     22  O   LIG    1       27.648 -29.502   9.792  0.00  0.00    -0.245 OA
BRANCH  21  24
ATOM     23  C   LIG    1       26.451 -29.837  12.429  0.00  0.00    +0.280 C 
ATOM     24  O   LIG    1       26.658 -30.730  11.383  0.00  0.00    -0.465 OA
ENDBRANCH  21  24
ENDBRANCH   3  21
ENDBRANCH   1   5
BRANCH   1  25
ATOM     25  O   LIG    1       24.117 -28.298   7.040  0.00  0.00    -0.454 OA
BRANCH  25  26
ATOM     26  C   LIG    1       25.152 -27.423   6.467  0.00  0.00    +0.121 C 
ATOM     27  C   LIG    1       25.593 -28.094   5.164  0.00  0.00    +0.057 C 
ATOM     28  C   LIG    1       26.262 -27.182   7.502  0.00  0.00    +0.057 C 
BRANCH  26  29
ATOM     29  C   LIG    1       24.408 -26.094   6.114  0.00  0.00    +0.131 C 
BRANCH  29  30
ATOM     30  N   LIG    1       25.095 -24.762   5.911  0.00  0.00    -0.302 NA
ATOM     31  C   LIG    1       24.841 -24.416   4.513  0.00  0.00    +0.105 C 
BRANCH  30  32
ATOM     32  C   LIG    1       24.727 -23.692   6.862  0.00  0.00    +0.085 C 
BRANCH  32  33
ATOM     33  C   LIG    1       25.575 -22.360   7.097  0.00  0.00    +0.028 C 
BRANCH  33  34
ATOM     34  C   LIG    1       25.960 -21.289   5.999  0.00  0.00    +0.050 C 
BRANCH  34  35
ATOM     35  C   LIG    1       27.130 -20.311   6.502  0.00  0.00    -0.040 A 
ATOM     36  C   LIG    1       27.945 -19.609   5.597  0.00  0.00    +0.004 A 
ATOM     37  C   LIG    1       29.293 -19.359   5.874  0.00  0.00    +0.000 A 
ATOM     38  C   LIG    1       29.757 -19.457   7.175  0.00  0.00    +0.000 A 
ATOM     39  C   LIG    1       28.860 -19.813   8.180  0.00  0.00    +0.000 A 
ATOM     40  C   LIG    1       27.575 -20.303   7.844  0.00  0.00    +0.004 A 
ENDBRANCH  34  35
BRANCH  34  41
ATOM     41  C   LIG    1       24.728 -20.579   5.326  0.00  0.00    -0.040 A 
ATOM     42  C   LIG    1       24.775 -20.048   4.024  0.00  0.00    +0.004 A 
ATOM     43  C   LIG    1       23.870 -19.076   3.580  0.00  0.00    +0.000 A 
ATOM     44  C   LIG    1       22.709 -18.844   4.293  0.00  0.00    +0.000 A 
ATOM     45  C   LIG    1       22.472 -19.603   5.428  0.00  0.00    +0.000 A 
ATOM     46  C   LIG    1       23.479 -20.436   5.944  0.00  0.00    +0.004 A 
ENDBRANCH  34  41
ENDBRANCH  33  34
ENDBRANCH  32  33
ENDBRANCH  30  32
ENDBRANCH  29  30
ENDBRANCH  26  29
ENDBRANCH  25  26
ENDBRANCH   1  25
TORSDOF 14
ENDMDL
MODEL 4
REMARK VINA RESULT:      -9.0      1.435      3.369
REMARK  Name = *****
REMARK                            x       y       z     vdW  Elec       q    Type
REMARK                         _______ _______ _______ _____ _____    ______ ____
ROOT
ATOM      1  C   LIG    1       25.228 -29.026   8.412  0.00  0.00    +0.338 C 
ATOM      2  O   LIG    1       26.285 -28.480   8.585  0.00  0.00    -0.245 OA
ENDROOT
BRANCH   1   5
ATOM      3  C   LIG    1       25.203 -31.284  11.374  0.00  0.00    +0.065 C 
ATOM      4  C   LIG    1       24.528 -30.074  10.696  0.00  0.00    +0.096 C 
ATOM      5  C   LIG    1       24.771 -30.195   9.196  0.00  0.00    +0.065 C 
ATOM      6  C   LIG    1       24.690 -31.421   8.624  0.00  0.00    +0.016 C 
ATOM      7  C   LIG    1       24.740 -31.674   7.146  0.00  0.00    +0.061 C 
ATOM      8  N   LIG    1       24.576 -32.532   9.461  0.00  0.00    -0.321 N 
ATOM      9  H   LIG    1       24.672 -33.430   8.987  0.00  0.00    +0.152 HD
ATOM     10  C   LIG    1       25.120 -32.491  10.749  0.00  0.00    +0.016 C 
ATOM     11  C   LIG    1       25.627 -33.804  11.261  0.00  0.00    +0.061 C 
BRANCH   4  12
ATOM     12  C   LIG    1       23.024 -29.981  11.092  0.00  0.00    -0.029 A 
ATOM     13  C   LIG    1       22.025 -30.739  10.452  0.00  0.00    +0.088 A 
ATOM     14  C   LIG    1       20.690 -30.692  10.888  0.00  0.00    +0.273 A 
ATOM     15  C   LIG    1       20.314 -29.869  11.952  0.00  0.00    +0.084 A 
ATOM     16  C   LIG    1       21.282 -29.088  12.578  0.00  0.00    +0.007 A 
ATOM     17  C   LIG    1       22.618 -29.142  12.152  0.00  0.00    +0.005 A 
BRANCH  14  18
ATOM     18  N   LIG    1       19.690 -31.543  10.233  0.00  0.00    +0.080 N 
ATOM     19  O   LIG    1       20.041 -32.674   9.868  0.00  0.00    -0.576 OA
ATOM     20  O   LIG    1       18.547 -31.082  10.082  0.00  0.00    +0.041 OA
ENDBRANCH  14  18
ENDBRANCH   4  12
BRANCH   3  21
ATOM     21  C   LIG    1       25.909 -31.027  12.670  0.00  0.00    +0.337 C 
ATOM     22  O   LIG    1       25.458 -31.108  13.726  0.00  0.00    -0.245 OA
BRANCH  21  24
ATOM     23  C   LIG    1       27.743 -29.572  13.160  0.00  0.00    +0.280 C 
ATOM     24  O   LIG    1       27.165 -30.568  12.379  0.00  0.00    -0.465 OA
ENDBRANCH  21  24
ENDBRANCH   3  21
ENDBRANCH   1   5
BRANCH   1  25
ATOM     25  O   LIG    1       24.298 -28.694   7.474  0.00  0.00    -0.454 OA
BRANCH  25  26
ATOM     26  C   LIG    1       24.772 -28.099   6.214  0.00  0.00    +0.121 C 
ATOM     27  C   LIG    1       23.853 -28.648   5.119  0.00  0.00    +0.057 C 
ATOM     28  C   LIG    1       26.270 -28.386   6.032  0.00  0.00    +0.057 C 
BRANCH  26  29
ATOM     29  C   LIG    1       24.502 -26.566   6.364  0.00  0.00    +0.131 C 
BRANCH  29  30
ATOM     30  N   LIG    1       25.467 -25.486   5.930  0.00  0.00    -0.302 NA
ATOM     31  C   LIG    1       24.918 -24.972   4.675  0.00  0.00    +0.105 C 
BRANCH  30  32
ATOM     32  C   LIG    1       25.752 -24.432   6.926  0.00  0.00    +0.085 C 
BRANCH  32  33
ATOM     33  C   LIG    1       25.183 -22.942   6.856  0.00  0.00    +0.028 C 
BRANCH  33  34
ATOM     34  C   LIG    1       25.698 -21.788   5.905  0.00  0.00    +0.050 C 
BRANCH  34  35
ATOM     35  C   LIG    1       26.916 -20.972   6.560  0.00  0.00    -0.040 A 
ATOM     36  C   LIG    1       27.531 -19.899   5.892  0.00  0.00    +0.004 A 
ATOM     37  C   LIG    1       28.900 -19.647   6.025  0.00  0.00    +0.000 A 
ATOM     38  C   LIG    1       29.600 -20.195   7.086  0.00  0.00    +0.000 A 
ATOM     39  C   LIG    1       28.915 -20.997   7.996  0.00  0.00    +0.000 A 
ATOM     40  C   LIG    1       27.602 -21.440   7.704  0.00  0.00    +0.004 A 
ENDBRANCH  34  35
BRANCH  34  41
ATOM     41  C   LIG    1       24.555 -20.907   5.277  0.00  0.00    -0.040 A 
ATOM     42  C   LIG    1       24.619 -20.402   3.966  0.00  0.00    +0.004 A 
ATOM     43  C   LIG    1       23.850 -19.310   3.547  0.00  0.00    +0.000 A 
ATOM     44  C   LIG    1       22.771 -18.899   4.308  0.00  0.00    +0.000 A 
ATOM     45  C   LIG    1       22.478 -19.603   5.465  0.00  0.00    +0.000 A 
ATOM     46  C   LIG    1       23.373 -20.573   5.949  0.00  0.00    +0.004 A 
ENDBRANCH  34  41
ENDBRANCH  33  34
ENDBRANCH  32  33
ENDBRANCH  30  32
ENDBRANCH  29  30
ENDBRANCH  26  29
ENDBRANCH  25  26
ENDBRANCH   1  25
TORSDOF 14
ENDMDL
MODEL 5
REMARK VINA RESULT:      -8.9      1.965      2.516
REMARK  Name = *****
REMARK                            x       y       z     vdW  Elec       q    Type
REMARK                         _______ _______ _______ _____ _____    ______ ____
ROOT
ATOM      1  C   LIG    1       24.805 -29.177   7.676  0.00  0.00    +0.338 C 
ATOM      2  O   LIG    1       23.806 -29.589   7.149  0.00  0.00    -0.245 OA
ENDROOT
BRANCH   1   5
ATOM      3  C   LIG    1       26.203 -28.958  11.120  0.00  0.00    +0.065 C 
ATOM      4  C   LIG    1       24.929 -29.180  10.281  0.00  0.00    +0.096 C 
ATOM      5  C   LIG    1       25.362 -29.734   8.928  0.00  0.00    +0.065 C 
ATOM      6  C   LIG    1       26.361 -30.648   8.893  0.00  0.00    +0.016 C 
ATOM      7  C   LIG    1       26.782 -31.401   7.665  0.00  0.00    +0.061 C 
ATOM      8  N   LIG    1       27.069 -30.897  10.070  0.00  0.00    -0.321 N 
ATOM      9  H   LIG    1       27.900 -31.475   9.950  0.00  0.00    +0.152 HD
ATOM     10  C   LIG    1       27.194 -29.889  11.032  0.00  0.00    +0.016 C 
ATOM     11  C   LIG    1       28.472 -29.917  11.812  0.00  0.00    +0.061 C 
BRANCH   4  12
ATOM     12  C   LIG    1       23.911 -30.082  11.042  0.00  0.00    -0.029 A 
ATOM     13  C   LIG    1       24.246 -30.767  12.225  0.00  0.00    +0.088 A 
ATOM     14  C   LIG    1       23.282 -31.507  12.930  0.00  0.00    +0.273 A 
ATOM     15  C   LIG    1       21.970 -31.605  12.460  0.00  0.00    +0.084 A 
ATOM     16  C   LIG    1       21.628 -30.960  11.275  0.00  0.00    +0.007 A 
ATOM     17  C   LIG    1       22.586 -30.211  10.574  0.00  0.00    +0.005 A 
BRANCH  14  18
ATOM     18  N   LIG    1       23.657 -32.157  14.192  0.00  0.00    +0.080 N 
ATOM     19  O   LIG    1       22.794 -32.828  14.777  0.00  0.00    -0.576 OA
ATOM     20  O   LIG    1       24.819 -32.000  14.601  0.00  0.00    +0.041 OA
ENDBRANCH  14  18
ENDBRANCH   4  12
BRANCH   3  21
ATOM     21  C   LIG    1       26.252 -27.720  11.962  0.00  0.00    +0.337 C 
ATOM     22  O   LIG    1       26.891 -26.782  11.767  0.00  0.00    -0.245 OA
BRANCH  21  24
ATOM     23  C   LIG    1       24.452 -27.061  13.392  0.00  0.00    +0.280 C 
ATOM     24  O   LIG    1       25.485 -27.936  13.074  0.00  0.00    -0.465 OA
ENDBRANCH  21  24
ENDBRANCH   3  21
ENDBRANCH   1   5
BRANCH   1  25
ATOM     25  O   LIG    1       25.568 -28.135   7.242  0.00  0.00    -0.454 OA
BRANCH  25  26
ATOM     26  C   LIG    1       25.183 -27.475   5.984  0.00  0.00    +0.121 C 
ATOM     27  C   LIG    1       24.402 -28.520   5.184  0.00  0.00    +0.057 C 
ATOM     28  C   LIG    1       26.430 -26.901   5.293  0.00  0.00    +0.057 C 
BRANCH  26  29
ATOM     29  C   LIG    1       24.197 -26.338   6.409  0.00  0.00    +0.131 C 
BRANCH  29  30
ATOM     30  N   LIG    1       24.411 -24.871   6.112  0.00  0.00    -0.302 NA
ATOM     31  C   LIG    1       23.182 -24.213   6.555  0.00  0.00    +0.105 C 
BRANCH  30  32
ATOM     32  C   LIG    1       25.639 -24.268   6.671  0.00  0.00    +0.085 C 
BRANCH  32  33
ATOM     33  C   LIG    1       25.663 -23.016   7.661  0.00  0.00    +0.028 C 
BRANCH  33  34
ATOM     34  C   LIG    1       25.747 -21.494   7.243  0.00  0.00    +0.050 C 
BRANCH  34  35
ATOM     35  C   LIG    1       24.654 -21.119   6.128  0.00  0.00    -0.040 A 
ATOM     36  C   LIG    1       24.968 -21.117   4.757  0.00  0.00    +0.004 A 
ATOM     37  C   LIG    1       24.386 -20.198   3.878  0.00  0.00    +0.000 A 
ATOM     38  C   LIG    1       23.231 -19.530   4.247  0.00  0.00    +0.000 A 
ATOM     39  C   LIG    1       22.680 -19.790   5.499  0.00  0.00    +0.000 A 
ATOM     40  C   LIG    1       23.416 -20.524   6.461  0.00  0.00    +0.004 A 
ENDBRANCH  34  35
BRANCH  34  41
ATOM     41  C   LIG    1       27.206 -20.978   6.959  0.00  0.00    -0.040 A 
ATOM     42  C   LIG    1       28.328 -21.449   7.664  0.00  0.00    +0.004 A 
ATOM     43  C   LIG    1       29.528 -20.730   7.725  0.00  0.00    +0.000 A 
ATOM     44  C   LIG    1       29.755 -19.698   6.834  0.00  0.00    +0.000 A 
ATOM     45  C   LIG    1       28.780 -19.419   5.890  0.00  0.00    +0.000 A 
ATOM     46  C   LIG    1       27.520 -20.035   5.972  0.00  0.00    +0.004 A 
ENDBRANCH  34  41
ENDBRANCH  33  34
ENDBRANCH  32  33
ENDBRANCH  30  32
ENDBRANCH  29  30
ENDBRANCH  26  29
ENDBRANCH  25  26
ENDBRANCH   1  25
TORSDOF 14
ENDMDL
MODEL 6
REMARK VINA RESULT:      -8.8      2.155      2.994
REMARK  Name = *****
REMARK                            x       y       z     vdW  Elec       q    Type
REMARK                         _______ _______ _______ _____ _____    ______ ____
ROOT
ATOM      1  C   LIG    1       25.495 -28.914   8.948  0.00  0.00    +0.338 C 
ATOM      2  O   LIG    1       26.459 -28.217   8.773  0.00  0.00    -0.245 OA
ENDROOT
BRANCH   1   5
ATOM      3  C   LIG    1       25.317 -29.411  12.635  0.00  0.00    +0.065 C 
ATOM      4  C   LIG    1       24.513 -29.091  11.358  0.00  0.00    +0.096 C 
ATOM      5  C   LIG    1       25.263 -29.701  10.179  0.00  0.00    +0.065 C 
ATOM      6  C   LIG    1       25.827 -30.923  10.333  0.00  0.00    +0.016 C 
ATOM      7  C   LIG    1       26.450 -31.718   9.223  0.00  0.00    +0.061 C 
ATOM      8  N   LIG    1       25.856 -31.479  11.613  0.00  0.00    -0.321 N 
ATOM      9  H   LIG    1       26.422 -32.323  11.695  0.00  0.00    +0.152 HD
ATOM     10  C   LIG    1       25.890 -30.642  12.734  0.00  0.00    +0.016 C 
ATOM     11  C   LIG    1       26.640 -31.192  13.908  0.00  0.00    +0.061 C 
BRANCH   4  12
ATOM     12  C   LIG    1       23.038 -29.575  11.493  0.00  0.00    -0.029 A 
ATOM     13  C   LIG    1       22.174 -29.094  12.494  0.00  0.00    +0.088 A 
ATOM     14  C   LIG    1       20.826 -29.490  12.538  0.00  0.00    +0.273 A 
ATOM     15  C   LIG    1       20.316 -30.396  11.605  0.00  0.00    +0.084 A 
ATOM     16  C   LIG    1       21.164 -30.908  10.627  0.00  0.00    +0.007 A 
ATOM     17  C   LIG    1       22.507 -30.505  10.573  0.00  0.00    +0.005 A 
BRANCH  14  18
ATOM     18  N   LIG    1       19.943 -28.918  13.561  0.00  0.00    +0.080 N 
ATOM     19  O   LIG    1       18.993 -29.608  13.959  0.00  0.00    -0.576 OA
ATOM     20  O   LIG    1       20.197 -27.775  13.973  0.00  0.00    +0.041 OA
ENDBRANCH  14  18
ENDBRANCH   4  12
BRANCH   3  21
ATOM     21  C   LIG    1       25.412 -28.327  13.664  0.00  0.00    +0.337 C 
ATOM     22  O   LIG    1       24.787 -28.237  14.626  0.00  0.00    -0.245 OA
BRANCH  21  24
ATOM     23  C   LIG    1       25.960 -26.042  13.217  0.00  0.00    +0.280 C 
ATOM     24  O   LIG    1       26.300 -27.391  13.208  0.00  0.00    -0.465 OA
ENDBRANCH  21  24
ENDBRANCH   3  21
ENDBRANCH   1   5
BRANCH   1  25
ATOM     25  O   LIG    1       24.484 -29.119   8.059  0.00  0.00    -0.454 OA
BRANCH  25  26
ATOM     26  C   LIG    1       24.742 -28.826   6.640  0.00  0.00    +0.121 C 
ATOM     27  C   LIG    1       23.663 -29.576   5.854  0.00  0.00    +0.057 C 
ATOM     28  C   LIG    1       26.194 -29.187   6.289  0.00  0.00    +0.057 C 
BRANCH  26  29
ATOM     29  C   LIG    1       24.488 -27.291   6.490  0.00  0.00    +0.131 C 
BRANCH  29  30
ATOM     30  N   LIG    1       25.548 -26.286   6.100  0.00  0.00    -0.302 NA
ATOM     31  C   LIG    1       25.574 -26.314   4.637  0.00  0.00    +0.105 C 
BRANCH  30  32
ATOM     32  C   LIG    1       25.394 -24.929   6.663  0.00  0.00    +0.085 C 
BRANCH  32  33
ATOM     33  C   LIG    1       25.136 -23.613   5.796  0.00  0.00    +0.028 C 
BRANCH  33  34
ATOM     34  C   LIG    1       25.012 -22.137   6.350  0.00  0.00    +0.050 C 
BRANCH  34  35
ATOM     35  C   LIG    1       24.013 -21.248   5.462  0.00  0.00    -0.040 A 
ATOM     36  C   LIG    1       24.227 -21.046   4.087  0.00  0.00    +0.004 A 
ATOM     37  C   LIG    1       23.891 -19.838   3.467  0.00  0.00    +0.000 A 
ATOM     38  C   LIG    1       23.012 -18.968   4.088  0.00  0.00    +0.000 A 
ATOM     39  C   LIG    1       22.487 -19.321   5.329  0.00  0.00    +0.000 A 
ATOM     40  C   LIG    1       23.031 -20.415   6.045  0.00  0.00    +0.004 A 
ENDBRANCH  34  35
BRANCH  34  41
ATOM     41  C   LIG    1       26.388 -21.459   6.702  0.00  0.00    -0.040 A 
ATOM     42  C   LIG    1       26.872 -20.327   6.023  0.00  0.00    +0.004 A 
ATOM     43  C   LIG    1       28.228 -19.976   6.028  0.00  0.00    +0.000 A 
ATOM     44  C   LIG    1       29.079 -20.540   6.960  0.00  0.00    +0.000 A 
ATOM     45  C   LIG    1       28.549 -21.434   7.877  0.00  0.00    +0.000 A 
ATOM     46  C   LIG    1       27.231 -21.900   7.730  0.00  0.00    +0.004 A 
ENDBRANCH  34  41
ENDBRANCH  33  34
ENDBRANCH  32  33
ENDBRANCH  30  32
ENDBRANCH  29  30
ENDBRANCH  26  29
ENDBRANCH  25  26
ENDBRANCH   1  25
TORSDOF 14
ENDMDL
MODEL 7
REMARK VINA RESULT:      -8.4      2.342      4.195
REMARK  Name = *****
REMARK                            x       y       z     vdW  Elec       q    Type
REMARK                         _______ _______ _______ _____ _____    ______ ____
ROOT
ATOM      1  C   LIG    1       25.617 -29.484   9.103  0.00  0.00    +0.338 C 
ATOM      2  O   LIG    1       26.665 -29.942   8.730  0.00  0.00    -0.245 OA
ENDROOT
BRANCH   1   5
ATOM      3  C   LIG    1       25.453 -30.805  12.581  0.00  0.00    +0.065 C 
ATOM      4  C   LIG    1       25.459 -29.535  11.705  0.00  0.00    +0.096 C 
ATOM      5  C   LIG    1       24.921 -29.922  10.333  0.00  0.00    +0.065 C 
ATOM      6  C   LIG    1       23.877 -30.782  10.266  0.00  0.00    +0.016 C 
ATOM      7  C   LIG    1       23.137 -31.126   9.006  0.00  0.00    +0.061 C 
ATOM      8  N   LIG    1       23.468 -31.415  11.441  0.00  0.00    -0.321 N 
ATOM      9  H   LIG    1       22.784 -32.159  11.305  0.00  0.00    +0.152 HD
ATOM     10  C   LIG    1       24.396 -31.655  12.460  0.00  0.00    +0.016 C 
ATOM     11  C   LIG    1       24.144 -32.895  13.262  0.00  0.00    +0.061 C 
BRANCH   4  12
ATOM     12  C   LIG    1       24.674 -28.380  12.395  0.00  0.00    -0.029 A 
ATOM     13  C   LIG    1       23.272 -28.387  12.518  0.00  0.00    +0.088 A 
ATOM     14  C   LIG    1       22.602 -27.369  13.217  0.00  0.00    +0.273 A 
ATOM     15  C   LIG    1       23.308 -26.306  13.785  0.00  0.00    +0.084 A 
ATOM     16  C   LIG    1       24.693 -26.265  13.647  0.00  0.00    +0.007 A 
ATOM     17  C   LIG    1       25.366 -27.286  12.959  0.00  0.00    +0.005 A 
BRANCH  14  18
ATOM     18  N   LIG    1       21.144 -27.446  13.375  0.00  0.00    +0.080 N 
ATOM     19  O   LIG    1       20.690 -28.281  14.169  0.00  0.00    -0.576 OA
ATOM     20  O   LIG    1       20.448 -26.666  12.704  0.00  0.00    +0.041 OA
ENDBRANCH  14  18
ENDBRANCH   4  12
BRANCH   3  21
ATOM     21  C   LIG    1       26.626 -31.006  13.491  0.00  0.00    +0.337 C 
ATOM     22  O   LIG    1       26.734 -31.816  14.302  0.00  0.00    -0.245 OA
BRANCH  21  24
ATOM     23  C   LIG    1       28.740 -29.974  13.918  0.00  0.00    +0.280 C 
ATOM     24  O   LIG    1       27.510 -29.986  13.269  0.00  0.00    -0.465 OA
ENDBRANCH  21  24
ENDBRANCH   3  21
ENDBRANCH   1   5
BRANCH   1  25
ATOM     25  O   LIG    1       24.890 -28.526   8.464  0.00  0.00    -0.454 OA
BRANCH  25  26
ATOM     26  C   LIG    1       25.368 -28.054   7.155  0.00  0.00    +0.121 C 
ATOM     27  C   LIG    1       25.082 -29.190   6.169  0.00  0.00    +0.057 C 
ATOM     28  C   LIG    1       26.838 -27.619   7.262  0.00  0.00    +0.057 C 
BRANCH  26  29
ATOM     29  C   LIG    1       24.444 -26.844   6.798  0.00  0.00    +0.131 C 
BRANCH  29  30
ATOM     30  N   LIG    1       24.939 -25.532   6.234  0.00  0.00    -0.302 NA
ATOM     31  C   LIG    1       25.077 -25.767   4.796  0.00  0.00    +0.105 C 
BRANCH  30  32
ATOM     32  C   LIG    1       24.132 -24.339   6.563  0.00  0.00    +0.085 C 
BRANCH  32  33
ATOM     33  C   LIG    1       24.739 -22.922   6.978  0.00  0.00    +0.028 C 
BRANCH  33  34
ATOM     34  C   LIG    1       25.383 -21.857   6.002  0.00  0.00    +0.050 C 
BRANCH  34  35
ATOM     35  C   LIG    1       26.651 -21.128   6.665  0.00  0.00    -0.040 A 
ATOM     36  C   LIG    1       27.257 -20.010   6.066  0.00  0.00    +0.004 A 
ATOM     37  C   LIG    1       28.637 -19.797   6.151  0.00  0.00    +0.000 A 
ATOM     38  C   LIG    1       29.375 -20.453   7.121  0.00  0.00    +0.000 A 
ATOM     39  C   LIG    1       28.717 -21.322   7.988  0.00  0.00    +0.000 A 
ATOM     40  C   LIG    1       27.382 -21.712   7.725  0.00  0.00    +0.004 A 
ENDBRANCH  34  35
BRANCH  34  41
ATOM     41  C   LIG    1       24.343 -20.903   5.306  0.00  0.00    -0.040 A 
ATOM     42  C   LIG    1       24.487 -20.464   3.977  0.00  0.00    +0.004 A 
ATOM     43  C   LIG    1       23.833 -19.325   3.492  0.00  0.00    +0.000 A 
ATOM     44  C   LIG    1       22.778 -18.784   4.204  0.00  0.00    +0.000 A 
ATOM     45  C   LIG    1       22.392 -19.408   5.380  0.00  0.00    +0.000 A 
ATOM     46  C   LIG    1       23.180 -20.433   5.929  0.00  0.00    +0.004 A 
ENDBRANCH  34  41
ENDBRANCH  33  34
ENDBRANCH  32  33
ENDBRANCH  30  32
ENDBRANCH  29  30
ENDBRANCH  26  29
ENDBRANCH  25  26
ENDBRANCH   1  25
TORSDOF 14
ENDMDL
MODEL 8
REMARK VINA RESULT:      -8.2      1.388      2.056
REMARK  Name = *****
REMARK                            x       y       z     vdW  Elec       q    Type
REMARK                         _______ _______ _______ _____ _____    ______ ____
ROOT
ATOM      1  C   LIG    1       25.667 -28.395   7.462  0.00  0.00    +0.338 C 
ATOM      2  O   LIG    1       26.204 -27.707   8.289  0.00  0.00    -0.245 OA
ENDROOT
BRANCH   1   5
ATOM      3  C   LIG    1       25.287 -31.854   8.788  0.00  0.00    +0.065 C 
ATOM      4  C   LIG    1       25.139 -30.351   9.103  0.00  0.00    +0.096 C 
ATOM      5  C   LIG    1       24.911 -29.626   7.782  0.00  0.00    +0.065 C 
ATOM      6  C   LIG    1       24.107 -30.203   6.857  0.00  0.00    +0.016 C 
ATOM      7  C   LIG    1       23.659 -29.540   5.588  0.00  0.00    +0.061 C 
ATOM      8  N   LIG    1       23.680 -31.513   7.080  0.00  0.00    -0.321 N 
ATOM      9  H   LIG    1       23.207 -31.945   6.287  0.00  0.00    +0.152 HD
ATOM     10  C   LIG    1       24.476 -32.385   7.831  0.00  0.00    +0.016 C 
ATOM     11  C   LIG    1       24.391 -33.824   7.423  0.00  0.00    +0.061 C 
BRANCH   4  12
ATOM     12  C   LIG    1       24.022 -30.112  10.162  0.00  0.00    -0.029 A 
ATOM     13  C   LIG    1       22.748 -30.702  10.064  0.00  0.00    +0.088 A 
ATOM     14  C   LIG    1       21.791 -30.530  11.078  0.00  0.00    +0.273 A 
ATOM     15  C   LIG    1       22.069 -29.745  12.199  0.00  0.00    +0.084 A 
ATOM     16  C   LIG    1       23.313 -29.128  12.300  0.00  0.00    +0.007 A 
ATOM     17  C   LIG    1       24.275 -29.307  11.294  0.00  0.00    +0.005 A 
BRANCH  14  18
ATOM     18  N   LIG    1       20.495 -31.212  10.966  0.00  0.00    +0.080 N 
ATOM     19  O   LIG    1       19.713 -30.828  10.085  0.00  0.00    -0.576 OA
ATOM     20  O   LIG    1       20.257 -32.137  11.759  0.00  0.00    +0.041 OA
ENDBRANCH  14  18
ENDBRANCH   4  12
BRANCH   3  21
ATOM     21  C   LIG    1       26.326 -32.609   9.558  0.00  0.00    +0.337 C 
ATOM     22  O   LIG    1       27.156 -33.275   9.120  0.00  0.00    -0.245 OA
BRANCH  21  24
ATOM     23  C   LIG    1       25.278 -33.408  11.554  0.00  0.00    +0.280 C 
ATOM     24  O   LIG    1       26.052 -32.461  10.891  0.00  0.00    -0.465 OA
ENDBRANCH  21  24
ENDBRANCH   3  21
ENDBRANCH   1   5
BRANCH   1  25
ATOM     25  O   LIG    1       25.679 -28.185   6.116  0.00  0.00    -0.454 OA
BRANCH  25  26
ATOM     26  C   LIG    1       26.037 -26.843   5.629  0.00  0.00    +0.121 C 
ATOM     27  C   LIG    1       25.418 -26.723   4.235  0.00  0.00    +0.057 C 
ATOM     28  C   LIG    1       27.560 -26.651   5.702  0.00  0.00    +0.057 C 
BRANCH  26  29
ATOM     29  C   LIG    1       25.295 -25.854   6.587  0.00  0.00    +0.131 C 
BRANCH  29  30
ATOM     30  N   LIG    1       25.278 -24.353   6.413  0.00  0.00    -0.302 NA
ATOM     31  C   LIG    1       23.871 -23.974   6.548  0.00  0.00    +0.105 C 
BRANCH  30  32
ATOM     32  C   LIG    1       26.184 -23.587   7.294  0.00  0.00    +0.085 C 
BRANCH  32  33
ATOM     33  C   LIG    1       25.819 -22.189   7.972  0.00  0.00    +0.028 C 
BRANCH  33  34
ATOM     34  C   LIG    1       26.052 -20.755   7.346  0.00  0.00    +0.050 C 
BRANCH  34  35
ATOM     35  C   LIG    1       24.989 -20.429   6.188  0.00  0.00    -0.040 A 
ATOM     36  C   LIG    1       23.624 -20.243   6.469  0.00  0.00    +0.004 A 
ATOM     37  C   LIG    1       22.633 -20.652   5.571  0.00  0.00    +0.000 A 
ATOM     38  C   LIG    1       22.962 -20.898   4.249  0.00  0.00    +0.000 A 
ATOM     39  C   LIG    1       24.286 -20.736   3.849  0.00  0.00    +0.000 A 
ATOM     40  C   LIG    1       25.306 -20.570   4.817  0.00  0.00    +0.004 A 
ENDBRANCH  34  35
BRANCH  34  41
ATOM     41  C   LIG    1       27.552 -20.437   6.995  0.00  0.00    -0.040 A 
ATOM     42  C   LIG    1       28.633 -21.043   7.661  0.00  0.00    +0.004 A 
ATOM     43  C   LIG    1       29.917 -20.485   7.662  0.00  0.00    +0.000 A 
ATOM     44  C   LIG    1       30.238 -19.500   6.746  0.00  0.00    +0.000 A 
ATOM     45  C   LIG    1       29.268 -19.107   5.839  0.00  0.00    +0.000 A 
ATOM     46  C   LIG    1       27.943 -19.553   5.982  0.00  0.00    +0.004 A 
ENDBRANCH  34  41
ENDBRANCH  33  34
ENDBRANCH  32  33
ENDBRANCH  30  32
ENDBRANCH  29  30
ENDBRANCH  26  29
ENDBRANCH  25  26
ENDBRANCH   1  25
TORSDOF 14
ENDMDL
MODEL 9
REMARK VINA RESULT:      -8.2      3.885     10.339
REMARK  Name = *****
REMARK                            x       y       z     vdW  Elec       q    Type
REMARK                         _______ _______ _______ _____ _____    ______ ____
ROOT
ATOM      1  C   LIG    1       25.131 -24.064   5.199  0.00  0.00    +0.338 C 
ATOM      2  O   LIG    1       24.633 -24.229   4.117  0.00  0.00    -0.245 OA
ENDROOT
BRANCH   1   5
ATOM      3  C   LIG    1       26.408 -21.211   7.224  0.00  0.00    +0.065 C 
ATOM      4  C   LIG    1       25.996 -21.682   5.814  0.00  0.00    +0.096 C 
ATOM      5  C   LIG    1       24.994 -22.818   5.984  0.00  0.00    +0.065 C 
ATOM      6  C   LIG    1       24.061 -22.716   6.961  0.00  0.00    +0.016 C 
ATOM      7  C   LIG    1       22.915 -23.667   7.144  0.00  0.00    +0.061 C 
ATOM      8  N   LIG    1       24.179 -21.672   7.880  0.00  0.00    -0.321 N 
ATOM      9  H   LIG    1       23.543 -21.733   8.674  0.00  0.00    +0.152 HD
ATOM     10  C   LIG    1       25.442 -21.151   8.182  0.00  0.00    +0.016 C 
ATOM     11  C   LIG    1       25.598 -20.650   9.584  0.00  0.00    +0.061 C 
BRANCH   4  12
ATOM     12  C   LIG    1       25.468 -20.489   4.961  0.00  0.00    -0.029 A 
ATOM     13  C   LIG    1       24.118 -20.095   4.967  0.00  0.00    +0.088 A 
ATOM     14  C   LIG    1       23.690 -18.965   4.250  0.00  0.00    +0.273 A 
ATOM     15  C   LIG    1       24.591 -18.219   3.487  0.00  0.00    +0.084 A 
ATOM     16  C   LIG    1       25.926 -18.612   3.442  0.00  0.00    +0.007 A 
ATOM     17  C   LIG    1       26.358 -19.733   4.168  0.00  0.00    +0.005 A 
BRANCH  14  18
ATOM     18  N   LIG    1       22.283 -18.552   4.331  0.00  0.00    +0.080 N 
ATOM     19  O   LIG    1       22.042 -17.364   4.591  0.00  0.00    -0.576 OA
ATOM     20  O   LIG    1       21.414 -19.416   4.134  0.00  0.00    +0.041 OA
ENDBRANCH  14  18
ENDBRANCH   4  12
BRANCH   3  21
ATOM     21  C   LIG    1       27.852 -20.867   7.428  0.00  0.00    +0.337 C 
ATOM     22  O   LIG    1       28.621 -21.468   8.037  0.00  0.00    -0.245 OA
BRANCH  21  24
ATOM     23  C   LIG    1       29.339 -19.330   6.358  0.00  0.00    +0.280 C 
ATOM     24  O   LIG    1       28.078 -19.646   6.853  0.00  0.00    -0.465 OA
ENDBRANCH  21  24
ENDBRANCH   3  21
ENDBRANCH   1   5
BRANCH   1  25
ATOM     25  O   LIG    1       25.912 -24.959   5.866  0.00  0.00    -0.454 OA
BRANCH  25  26
ATOM     26  C   LIG    1       25.524 -26.378   5.826  0.00  0.00    +0.121 C 
ATOM     27  C   LIG    1       26.094 -26.931   4.517  0.00  0.00    +0.057 C 
ATOM     28  C   LIG    1       24.003 -26.508   5.998  0.00  0.00    +0.057 C 
BRANCH  26  29
ATOM     29  C   LIG    1       26.288 -27.041   7.018  0.00  0.00    +0.131 C 
BRANCH  29  30
ATOM     30  N   LIG    1       25.686 -28.070   7.948  0.00  0.00    -0.302 NA
ATOM     31  C   LIG    1       25.243 -29.156   7.073  0.00  0.00    +0.105 C 
BRANCH  30  32
ATOM     32  C   LIG    1       26.548 -28.522   9.060  0.00  0.00    +0.085 C 
BRANCH  32  33
ATOM     33  C   LIG    1       26.469 -27.959  10.552  0.00  0.00    +0.028 C 
BRANCH  33  34
ATOM     34  C   LIG    1       26.142 -28.798  11.853  0.00  0.00    +0.050 C 
BRANCH  34  35
ATOM     35  C   LIG    1       25.034 -28.078  12.765  0.00  0.00    -0.040 A 
ATOM     36  C   LIG    1       23.714 -28.558  12.841  0.00  0.00    +0.004 A 
ATOM     37  C   LIG    1       22.630 -27.686  12.985  0.00  0.00    +0.000 A 
ATOM     38  C   LIG    1       22.842 -26.392  13.429  0.00  0.00    +0.000 A 
ATOM     39  C   LIG    1       24.144 -25.989  13.715  0.00  0.00    +0.000 A 
ATOM     40  C   LIG    1       25.240 -26.796  13.324  0.00  0.00    +0.004 A 
ENDBRANCH  34  35
BRANCH  34  41
ATOM     41  C   LIG    1       27.410 -29.325  12.620  0.00  0.00    -0.040 A 
ATOM     42  C   LIG    1       27.350 -29.821  13.935  0.00  0.00    +0.004 A 
ATOM     43  C   LIG    1       28.481 -29.895  14.758  0.00  0.00    +0.000 A 
ATOM     44  C   LIG    1       29.742 -29.788  14.202  0.00  0.00    +0.000 A 
ATOM     45  C   LIG    1       29.843 -29.625  12.830  0.00  0.00    +0.000 A 
ATOM     46  C   LIG    1       28.694 -29.373  12.061  0.00  0.00    +0.004 A 
ENDBRANCH  34  41
ENDBRANCH  33  34
ENDBRANCH  32  33
ENDBRANCH  30  32
ENDBRANCH  29  30
ENDBRANCH  26  29
ENDBRANCH  25  26
ENDBRANCH   1  25
TORSDOF 14
ENDMDL
