MODEL 1
REMARK VINA RESULT:      -7.5      0.000      0.000
REMARK  Name = *****
REMARK                            x       y       z     vdW  Elec       q    Type
REMARK                         _______ _______ _______ _____ _____    ______ ____
ROOT
ATOM      1  C   LIG    1       28.957 -19.800   7.531  0.00  0.00    +0.157 A 
ATOM      2  S   LIG    1       28.455 -19.851   5.893  0.00  0.00    -0.052 S 
ATOM      3  C   LIG    1       26.878 -20.339   6.389  0.00  0.00    +0.044 A 
ATOM      4  C   LIG    1       26.857 -20.417   7.782  0.00  0.00    +0.081 A 
ATOM      5  C   LIG    1       25.659 -20.788   8.419  0.00  0.00    +0.032 A 
ATOM      6  C   LIG    1       24.531 -21.088   7.649  0.00  0.00    +0.048 A 
ATOM      7  C   LIG    1       24.578 -21.041   6.256  0.00  0.00    +0.131 A 
ATOM      8  C   LIG    1       25.746 -20.635   5.601  0.00  0.00    +0.063 A 
ATOM      9  N   LIG    1       28.050 -20.115   8.414  0.00  0.00    -0.225 NA
ENDROOT
BRANCH   1  10
ATOM     10  N   LIG    1       30.216 -19.467   7.870  0.00  0.00    -0.338 N 
ATOM     11  H   LIG    1       30.441 -19.363   8.849  0.00  0.00    +0.144 HD
ATOM     12  H   LIG    1       30.672 -18.799   7.259  0.00  0.00    +0.144 HD
ENDBRANCH   1  10
BRANCH   7  13
ATOM     13  O   LIG    1       23.409 -21.398   5.646  0.00  0.00    -0.406 OA
BRANCH  13  14
ATOM     14  C   LIG    1       22.631 -20.358   5.077  0.00  0.00    +0.575 C 
ATOM     15  F   LIG    1       22.455 -19.359   5.967  0.00  0.00    -0.133 F 
ATOM     16  F   LIG    1       21.417 -20.858   4.754  0.00  0.00    -0.133 F 
ATOM     17  F   LIG    1       23.189 -19.863   3.951  0.00  0.00    -0.133 F 
ENDBRANCH  13  14
ENDBRANCH   7  13
TORSDOF 3
ENDMDL
MODEL 2
REMARK VINA RESULT:      -6.8      1.845      2.513
REMARK  Name = *****
REMARK                            x       y       z     vdW  Elec       q    Type
REMARK                         _______ _______ _______ _____ _____    ______ ____
ROOT
ATOM      1  C   LIG    1       30.455 -19.847   7.236  0.00  0.00    +0.157 A 
ATOM      2  S   LIG    1       29.725 -21.102   8.147  0.00  0.00    -0.052 S 
ATOM      3  C   LIG    1       28.283 -20.942   7.216  0.00  0.00    +0.044 A 
ATOM      4  C   LIG    1       28.478 -19.937   6.268  0.00  0.00    +0.081 A 
ATOM      5  C   LIG    1       27.431 -19.635   5.378  0.00  0.00    +0.032 A 
ATOM      6  C   LIG    1       26.221 -20.327   5.476  0.00  0.00    +0.048 A 
ATOM      7  C   LIG    1       26.028 -21.304   6.453  0.00  0.00    +0.131 A 
ATOM      8  C   LIG    1       27.068 -21.651   7.322  0.00  0.00    +0.063 A 
ATOM      9  N   LIG    1       29.717 -19.320   6.299  0.00  0.00    -0.225 NA
ENDROOT
BRANCH   1  10
ATOM     10  N   LIG    1       31.709 -19.431   7.493  0.00  0.00    -0.338 N 
ATOM     11  H   LIG    1       31.949 -18.470   7.293  0.00  0.00    +0.144 HD
ATOM     12  H   LIG    1       32.442 -20.100   7.290  0.00  0.00    +0.144 HD
ENDBRANCH   1  10
BRANCH   7  13
ATOM     13  O   LIG    1       24.781 -21.863   6.445  0.00  0.00    -0.406 OA
BRANCH  13  14
ATOM     14  C   LIG    1       23.750 -21.160   7.120  0.00  0.00    +0.575 C 
ATOM     15  F   LIG    1       24.273 -20.352   8.066  0.00  0.00    -0.133 F 
ATOM     16  F   LIG    1       22.944 -22.060   7.727  0.00  0.00    -0.133 F 
ATOM     17  F   LIG    1       22.994 -20.430   6.273  0.00  0.00    -0.133 F 
ENDBRANCH  13  14
ENDBRANCH   7  13
TORSDOF 3
ENDMDL
MODEL 3
REMARK VINA RESULT:      -6.8      3.995      4.651
REMARK  Name = *****
REMARK                            x       y       z     vdW  Elec       q    Type
REMARK                         _______ _______ _______ _____ _____    ______ ____
ROOT
ATOM      1  C   LIG    1       25.682 -26.531   6.280  0.00  0.00    +0.157 A 
ATOM      2  S   LIG    1       24.069 -26.148   5.843  0.00  0.00    -0.052 S 
ATOM      3  C   LIG    1       24.314 -24.521   6.353  0.00  0.00    +0.044 A 
ATOM      4  C   LIG    1       25.625 -24.394   6.814  0.00  0.00    +0.081 A 
ATOM      5  C   LIG    1       26.061 -23.139   7.275  0.00  0.00    +0.032 A 
ATOM      6  C   LIG    1       25.173 -22.058   7.279  0.00  0.00    +0.048 A 
ATOM      7  C   LIG    1       23.855 -22.209   6.849  0.00  0.00    +0.131 A 
ATOM      8  C   LIG    1       23.411 -23.437   6.348  0.00  0.00    +0.063 A 
ATOM      9  N   LIG    1       26.385 -25.549   6.772  0.00  0.00    -0.225 NA
ENDROOT
BRANCH   1  10
ATOM     10  N   LIG    1       26.174 -27.775   6.132  0.00  0.00    -0.338 N 
ATOM     11  H   LIG    1       25.771 -28.521   6.682  0.00  0.00    +0.144 HD
ATOM     12  H   LIG    1       27.178 -27.837   6.009  0.00  0.00    +0.144 HD
ENDBRANCH   1  10
BRANCH   7  13
ATOM     13  O   LIG    1       23.101 -21.073   6.950  0.00  0.00    -0.406 OA
BRANCH  13  14
ATOM     14  C   LIG    1       22.759 -20.413   5.742  0.00  0.00    +0.575 C 
ATOM     15  F   LIG    1       21.756 -21.064   5.117  0.00  0.00    -0.133 F 
ATOM     16  F   LIG    1       23.840 -20.418   4.930  0.00  0.00    -0.133 F 
ATOM     17  F   LIG    1       22.401 -19.128   5.949  0.00  0.00    -0.133 F 
ENDBRANCH  13  14
ENDBRANCH   7  13
TORSDOF 3
ENDMDL
MODEL 4
REMARK VINA RESULT:      -6.8      4.894      5.794
REMARK  Name = *****
REMARK                            x       y       z     vdW  Elec       q    Type
REMARK                         _______ _______ _______ _____ _____    ______ ____
ROOT
ATOM      1  C   LIG    1       24.707 -26.762   5.868  0.00  0.00    +0.157 A 
ATOM      2  S   LIG    1       26.204 -25.956   6.087  0.00  0.00    -0.052 S 
ATOM      3  C   LIG    1       25.366 -24.506   6.495  0.00  0.00    +0.044 A 
ATOM      4  C   LIG    1       23.995 -24.757   6.439  0.00  0.00    +0.081 A 
ATOM      5  C   LIG    1       23.104 -23.713   6.749  0.00  0.00    +0.032 A 
ATOM      6  C   LIG    1       23.607 -22.452   7.082  0.00  0.00    +0.048 A 
ATOM      7  C   LIG    1       24.979 -22.207   7.098  0.00  0.00    +0.131 A 
ATOM      8  C   LIG    1       25.886 -23.239   6.835  0.00  0.00    +0.063 A 
ATOM      9  N   LIG    1       23.639 -26.043   6.074  0.00  0.00    -0.225 NA
ENDROOT
BRANCH   1  10
ATOM     10  N   LIG    1       24.653 -28.053   5.494  0.00  0.00    -0.338 N 
ATOM     11  H   LIG    1       25.516 -28.574   5.432  0.00  0.00    +0.144 HD
ATOM     12  H   LIG    1       23.977 -28.271   4.770  0.00  0.00    +0.144 HD
ENDBRANCH   1  10
BRANCH   7  13
ATOM     13  O   LIG    1       25.313 -20.917   7.405  0.00  0.00    -0.406 OA
BRANCH  13  14
ATOM     14  C   LIG    1       26.340 -20.724   8.363  0.00  0.00    +0.575 C 
ATOM     15  F   LIG    1       25.846 -20.133   9.472  0.00  0.00    -0.133 F 
ATOM     16  F   LIG    1       27.276 -19.907   7.829  0.00  0.00    -0.133 F 
ATOM     17  F   LIG    1       26.944 -21.883   8.702  0.00  0.00    -0.133 F 
ENDBRANCH  13  14
ENDBRANCH   7  13
TORSDOF 3
ENDMDL
MODEL 5
REMARK VINA RESULT:      -6.7      4.541      5.705
REMARK  Name = *****
REMARK                            x       y       z     vdW  Elec       q    Type
REMARK                         _______ _______ _______ _____ _____    ______ ____
ROOT
ATOM      1  C   LIG    1       23.361 -23.025   6.862  0.00  0.00    +0.157 A 
ATOM      2  S   LIG    1       24.814 -23.768   6.336  0.00  0.00    -0.052 S 
ATOM      3  C   LIG    1       25.730 -22.545   7.132  0.00  0.00    +0.044 A 
ATOM      4  C   LIG    1       24.845 -21.660   7.749  0.00  0.00    +0.081 A 
ATOM      5  C   LIG    1       25.370 -20.576   8.475  0.00  0.00    +0.032 A 
ATOM      6  C   LIG    1       26.756 -20.398   8.546  0.00  0.00    +0.048 A 
ATOM      7  C   LIG    1       27.626 -21.270   7.893  0.00  0.00    +0.131 A 
ATOM      8  C   LIG    1       27.129 -22.379   7.199  0.00  0.00    +0.063 A 
ATOM      9  N   LIG    1       23.502 -21.945   7.578  0.00  0.00    -0.225 NA
ENDROOT
BRANCH   1  10
ATOM     10  N   LIG    1       22.156 -23.529   6.535  0.00  0.00    -0.338 N 
ATOM     11  H   LIG    1       21.922 -23.622   5.557  0.00  0.00    +0.144 HD
ATOM     12  H   LIG    1       21.386 -23.240   7.127  0.00  0.00    +0.144 HD
ENDBRANCH   1  10
BRANCH   7  13
ATOM     13  O   LIG    1       28.947 -20.942   8.024  0.00  0.00    -0.406 OA
BRANCH  13  14
ATOM     14  C   LIG    1       29.411 -19.816   7.298  0.00  0.00    +0.575 C 
ATOM     15  F   LIG    1       30.672 -20.021   6.864  0.00  0.00    -0.133 F 
ATOM     16  F   LIG    1       29.414 -18.745   8.123  0.00  0.00    -0.133 F 
ATOM     17  F   LIG    1       28.615 -19.528   6.245  0.00  0.00    -0.133 F 
ENDBRANCH  13  14
ENDBRANCH   7  13
TORSDOF 3
ENDMDL
MODEL 6
REMARK VINA RESULT:      -6.7      4.523      5.708
REMARK  Name = *****
REMARK                            x       y       z     vdW  Elec       q    Type
REMARK                         _______ _______ _______ _____ _____    ______ ____
ROOT
ATOM      1  C   LIG    1       23.526 -20.553   5.432  0.00  0.00    +0.157 A 
ATOM      2  S   LIG    1       24.823 -20.340   4.331  0.00  0.00    -0.052 S 
ATOM      3  C   LIG    1       25.946 -20.403   5.636  0.00  0.00    +0.044 A 
ATOM      4  C   LIG    1       25.236 -20.591   6.822  0.00  0.00    +0.081 A 
ATOM      5  C   LIG    1       25.951 -20.686   8.030  0.00  0.00    +0.032 A 
ATOM      6  C   LIG    1       27.344 -20.570   8.018  0.00  0.00    +0.048 A 
ATOM      7  C   LIG    1       28.037 -20.346   6.829  0.00  0.00    +0.131 A 
ATOM      8  C   LIG    1       27.352 -20.289   5.611  0.00  0.00    +0.063 A 
ATOM      9  N   LIG    1       23.861 -20.666   6.688  0.00  0.00    -0.225 NA
ENDROOT
BRANCH   1  10
ATOM     10  N   LIG    1       22.248 -20.584   5.015  0.00  0.00    -0.338 N 
ATOM     11  H   LIG    1       21.907 -19.820   4.448  0.00  0.00    +0.144 HD
ATOM     12  H   LIG    1       21.577 -20.944   5.684  0.00  0.00    +0.144 HD
ENDBRANCH   1  10
BRANCH   7  13
ATOM     13  O   LIG    1       29.389 -20.217   6.986  0.00  0.00    -0.406 OA
BRANCH  13  14
ATOM     14  C   LIG    1       29.910 -18.901   7.069  0.00  0.00    +0.575 C 
ATOM     15  F   LIG    1       29.380 -18.122   6.102  0.00  0.00    -0.133 F 
ATOM     16  F   LIG    1       31.248 -18.957   6.884  0.00  0.00    -0.133 F 
ATOM     17  F   LIG    1       29.680 -18.338   8.275  0.00  0.00    -0.133 F 
ENDBRANCH  13  14
ENDBRANCH   7  13
TORSDOF 3
ENDMDL
MODEL 7
REMARK VINA RESULT:      -6.7      3.324      3.933
REMARK  Name = *****
REMARK                            x       y       z     vdW  Elec       q    Type
REMARK                         _______ _______ _______ _____ _____    ______ ____
ROOT
ATOM      1  C   LIG    1       25.614 -25.386   6.583  0.00  0.00    +0.157 A 
ATOM      2  S   LIG    1       23.982 -25.125   6.125  0.00  0.00    -0.052 S 
ATOM      3  C   LIG    1       24.194 -23.427   6.329  0.00  0.00    +0.044 A 
ATOM      4  C   LIG    1       25.510 -23.190   6.727  0.00  0.00    +0.081 A 
ATOM      5  C   LIG    1       25.921 -21.862   6.945  0.00  0.00    +0.032 A 
ATOM      6  C   LIG    1       25.004 -20.819   6.778  0.00  0.00    +0.048 A 
ATOM      7  C   LIG    1       23.682 -21.075   6.415  0.00  0.00    +0.131 A 
ATOM      8  C   LIG    1       23.261 -22.383   6.153  0.00  0.00    +0.063 A 
ATOM      9  N   LIG    1       26.300 -24.316   6.874  0.00  0.00    -0.225 NA
ENDROOT
BRANCH   1  10
ATOM     10  N   LIG    1       26.135 -26.624   6.648  0.00  0.00    -0.338 N 
ATOM     11  H   LIG    1       25.504 -27.412   6.694  0.00  0.00    +0.144 HD
ATOM     12  H   LIG    1       26.969 -26.719   7.218  0.00  0.00    +0.144 HD
ENDBRANCH   1  10
BRANCH   7  13
ATOM     13  O   LIG    1       22.900 -19.957   6.330  0.00  0.00    -0.406 OA
BRANCH  13  14
ATOM     14  C   LIG    1       22.525 -19.526   5.032  0.00  0.00    +0.575 C 
ATOM     15  F   LIG    1       22.152 -18.230   5.054  0.00  0.00    -0.133 F 
ATOM     16  F   LIG    1       21.468 -20.265   4.624  0.00  0.00    -0.133 F 
ATOM     17  F   LIG    1       23.519 -19.692   4.133  0.00  0.00    -0.133 F 
ENDBRANCH  13  14
ENDBRANCH   7  13
TORSDOF 3
ENDMDL
MODEL 8
REMARK VINA RESULT:      -6.6      2.829      3.269
REMARK  Name = *****
REMARK                            x       y       z     vdW  Elec       q    Type
REMARK                         _______ _______ _______ _____ _____    ______ ____
ROOT
ATOM      1  C   LIG    1       29.817 -19.811   6.817  0.00  0.00    +0.157 A 
ATOM      2  S   LIG    1       29.475 -21.122   7.868  0.00  0.00    -0.052 S 
ATOM      3  C   LIG    1       27.888 -21.242   7.206  0.00  0.00    +0.044 A 
ATOM      4  C   LIG    1       27.747 -20.266   6.218  0.00  0.00    +0.081 A 
ATOM      5  C   LIG    1       26.527 -20.181   5.523  0.00  0.00    +0.032 A 
ATOM      6  C   LIG    1       25.484 -21.054   5.848  0.00  0.00    +0.048 A 
ATOM      7  C   LIG    1       25.628 -22.000   6.863  0.00  0.00    +0.131 A 
ATOM      8  C   LIG    1       26.846 -22.131   7.539  0.00  0.00    +0.063 A 
ATOM      9  N   LIG    1       28.851 -19.457   6.016  0.00  0.00    -0.225 NA
ENDROOT
BRANCH   1  10
ATOM     10  N   LIG    1       31.009 -19.186   6.839  0.00  0.00    -0.338 N 
ATOM     11  H   LIG    1       31.844 -19.745   6.944  0.00  0.00    +0.144 HD
ATOM     12  H   LIG    1       31.030 -18.300   7.331  0.00  0.00    +0.144 HD
ENDBRANCH   1  10
BRANCH   7  13
ATOM     13  O   LIG    1       24.510 -22.752   7.088  0.00  0.00    -0.406 OA
BRANCH  13  14
ATOM     14  C   LIG    1       24.506 -24.077   6.580  0.00  0.00    +0.575 C 
ATOM     15  F   LIG    1       24.748 -24.073   5.252  0.00  0.00    -0.133 F 
ATOM     16  F   LIG    1       23.282 -24.612   6.787  0.00  0.00    -0.133 F 
ATOM     17  F   LIG    1       25.413 -24.861   7.200  0.00  0.00    -0.133 F 
ENDBRANCH  13  14
ENDBRANCH   7  13
TORSDOF 3
ENDMDL
MODEL 9
REMARK VINA RESULT:      -6.6      4.733      5.945
REMARK  Name = *****
REMARK                            x       y       z     vdW  Elec       q    Type
REMARK                         _______ _______ _______ _____ _____    ______ ____
ROOT
ATOM      1  C   LIG    1       23.090 -21.179   5.544  0.00  0.00    +0.157 A 
ATOM      2  S   LIG    1       23.424 -21.392   7.212  0.00  0.00    -0.052 S 
ATOM      3  C   LIG    1       25.042 -20.856   6.959  0.00  0.00    +0.044 A 
ATOM      4  C   LIG    1       25.199 -20.546   5.608  0.00  0.00    +0.081 A 
ATOM      5  C   LIG    1       26.447 -20.072   5.164  0.00  0.00    +0.032 A 
ATOM      6  C   LIG    1       27.500 -19.941   6.075  0.00  0.00    +0.048 A 
ATOM      7  C   LIG    1       27.338 -20.290   7.415  0.00  0.00    +0.131 A 
ATOM      8  C   LIG    1       26.095 -20.724   7.888  0.00  0.00    +0.063 A 
ATOM      9  N   LIG    1       24.081 -20.743   4.817  0.00  0.00    -0.225 NA
ENDROOT
BRANCH   1  10
ATOM     10  N   LIG    1       21.880 -21.463   5.029  0.00  0.00    -0.338 N 
ATOM     11  H   LIG    1       21.804 -22.219   4.363  0.00  0.00    +0.144 HD
ATOM     12  H   LIG    1       21.292 -20.662   4.826  0.00  0.00    +0.144 HD
ENDBRANCH   1  10
BRANCH   7  13
ATOM     13  O   LIG    1       28.468 -20.143   8.171  0.00  0.00    -0.406 OA
BRANCH  13  14
ATOM     14  C   LIG    1       29.579 -20.960   7.841  0.00  0.00    +0.575 C 
ATOM     15  F   LIG    1       30.515 -20.242   7.184  0.00  0.00    -0.133 F 
ATOM     16  F   LIG    1       29.155 -21.951   7.025  0.00  0.00    -0.133 F 
ATOM     17  F   LIG    1       30.134 -21.529   8.932  0.00  0.00    -0.133 F 
ENDBRANCH  13  14
ENDBRANCH   7  13
TORSDOF 3
ENDMDL
