MODEL 1
REMARK VINA RESULT:      -5.4      0.000      0.000
REMARK  Name = *****
REMARK                            x       y       z     vdW  Elec       q    Type
REMARK                         _______ _______ _______ _____ _____    ______ ____
ROOT
ATOM      1  CA  ASN A  1       30.659 -17.357   9.130  0.00  0.00    +0.169 C 
ENDROOT
BRANCH   1   2
ATOM      2  N   ASN A  1       32.087 -17.191   8.744  0.00  0.00    -0.318 NA
ATOM      3  H1  ASN A  1       32.485 -16.451   9.329  0.00  0.00    +0.119 HD
ATOM      4  H2  ASN A  1       32.589 -18.029   9.060  0.00  0.00    +0.119 HD
ENDBRANCH   1   2
BRANCH   1   5
ATOM      5  C   ASN A  1       30.561 -17.438  10.664  0.00  0.00    +0.322 C 
ATOM      6  O   ASN A  1       30.729 -18.480  11.296  0.00  0.00    -0.249 OA
BRANCH   5   7
ATOM      7  OXT ASN A  1       30.302 -16.263  11.274  0.00  0.00    -0.479 OA
ATOM      8  HXT ASN A  1       30.824 -16.139  12.103  0.00  0.00    +0.295 HD
ENDBRANCH   5   7
ENDBRANCH   1   5
BRANCH   1   9
ATOM      9  CB  ASN A  1       30.109 -18.619   8.470  0.00  0.00    +0.125 C 
BRANCH   9  13
ATOM     10  ND2 ASN A  1       31.662 -20.383   9.050  0.00  0.00    -0.329 N 
ATOM     11 HD21 ASN A  1       31.327 -20.336  10.003  0.00  0.00    +0.145 HD
ATOM     12 HD22 ASN A  1       32.403 -21.040   8.835  0.00  0.00    +0.145 HD
ATOM     13  CG  ASN A  1       31.225 -19.550   8.064  0.00  0.00    +0.212 C 
ATOM     14  OD1 ASN A  1       31.711 -19.572   6.938  0.00  0.00    -0.276 OA
ENDBRANCH   9  13
ENDBRANCH   1   9
TORSDOF 5
ENDMDL
MODEL 2
REMARK VINA RESULT:      -5.1      2.178      2.445
REMARK  Name = *****
REMARK                            x       y       z     vdW  Elec       q    Type
REMARK                         _______ _______ _______ _____ _____    ______ ____
ROOT
ATOM      1  CA  ASN A  1       31.714 -18.471   8.459  0.00  0.00    +0.169 C 
ENDROOT
BRANCH   1   2
ATOM      2  N   ASN A  1       31.844 -19.792   9.129  0.00  0.00    -0.318 NA
ATOM      3  H1  ASN A  1       30.908 -20.200   9.202  0.00  0.00    +0.119 HD
ATOM      4  H2  ASN A  1       32.320 -20.423   8.474  0.00  0.00    +0.119 HD
ENDBRANCH   1   2
BRANCH   1   5
ATOM      5  C   ASN A  1       32.275 -17.379   9.389  0.00  0.00    +0.322 C 
ATOM      6  O   ASN A  1       32.474 -17.554  10.591  0.00  0.00    -0.249 OA
BRANCH   5   7
ATOM      7  OXT ASN A  1       32.564 -16.213   8.777  0.00  0.00    -0.479 OA
ATOM      8  HXT ASN A  1       31.795 -15.842   8.278  0.00  0.00    +0.295 HD
ENDBRANCH   5   7
ENDBRANCH   1   5
BRANCH   1   9
ATOM      9  CB  ASN A  1       30.242 -18.221   8.134  0.00  0.00    +0.125 C 
BRANCH   9  13
ATOM     10  ND2 ASN A  1       29.986 -20.186   6.745  0.00  0.00    -0.329 N 
ATOM     11 HD21 ASN A  1       30.698 -19.817   6.128  0.00  0.00    +0.145 HD
ATOM     12 HD22 ASN A  1       29.551 -21.068   6.500  0.00  0.00    +0.145 HD
ATOM     13  CG  ASN A  1       29.525 -19.514   7.837  0.00  0.00    +0.212 C 
ATOM     14  OD1 ASN A  1       28.600 -19.945   8.517  0.00  0.00    -0.276 OA
ENDBRANCH   9  13
ENDBRANCH   1   9
TORSDOF 5
ENDMDL
MODEL 3
REMARK VINA RESULT:      -4.9      1.315      3.804
REMARK  Name = *****
REMARK                            x       y       z     vdW  Elec       q    Type
REMARK                         _______ _______ _______ _____ _____    ______ ____
ROOT
ATOM      1  CA  ASN A  1       30.745 -19.067   8.899  0.00  0.00    +0.169 C 
ENDROOT
BRANCH   1   2
ATOM      2  N   ASN A  1       31.997 -19.729   9.354  0.00  0.00    -0.318 NA
ATOM      3  H1  ASN A  1       32.107 -20.594   8.817  0.00  0.00    +0.119 HD
ATOM      4  H2  ASN A  1       32.783 -19.155   9.029  0.00  0.00    +0.119 HD
ENDBRANCH   1   2
BRANCH   1   5
ATOM      5  C   ASN A  1       30.758 -18.974   7.361  0.00  0.00    +0.322 C 
ATOM      6  O   ASN A  1       30.031 -18.211   6.726  0.00  0.00    -0.249 OA
BRANCH   5   7
ATOM      7  OXT ASN A  1       31.656 -19.779   6.757  0.00  0.00    -0.479 OA
ATOM      8  HXT ASN A  1       31.763 -20.647   7.218  0.00  0.00    +0.295 HD
ENDBRANCH   5   7
ENDBRANCH   1   5
BRANCH   1   9
ATOM      9  CB  ASN A  1       30.652 -17.684   9.538  0.00  0.00    +0.125 C 
BRANCH   9  13
ATOM     10  ND2 ASN A  1       32.680 -16.435   9.107  0.00  0.00    -0.329 N 
ATOM     11 HD21 ASN A  1       32.344 -16.252   8.170  0.00  0.00    +0.145 HD
ATOM     12 HD22 ASN A  1       33.591 -16.077   9.366  0.00  0.00    +0.145 HD
ATOM     13  CG  ASN A  1       32.007 -17.209  10.003  0.00  0.00    +0.212 C 
ATOM     14  OD1 ASN A  1       32.479 -17.486  11.101  0.00  0.00    -0.276 OA
ENDBRANCH   9  13
ENDBRANCH   1   9
TORSDOF 5
ENDMDL
MODEL 4
REMARK VINA RESULT:      -4.9      3.052      3.506
REMARK  Name = *****
REMARK                            x       y       z     vdW  Elec       q    Type
REMARK                         _______ _______ _______ _____ _____    ______ ____
ROOT
ATOM      1  CA  ASN A  1       31.022 -19.577   8.387  0.00  0.00    +0.169 C 
ENDROOT
BRANCH   1   2
ATOM      2  N   ASN A  1       31.883 -19.517   7.175  0.00  0.00    -0.318 NA
ATOM      3  H1  ASN A  1       31.308 -19.779   6.369  0.00  0.00    +0.119 HD
ATOM      4  H2  ASN A  1       32.093 -18.528   6.996  0.00  0.00    +0.119 HD
ENDBRANCH   1   2
BRANCH   1   5
ATOM      5  C   ASN A  1       31.023 -21.018   8.930  0.00  0.00    +0.322 C 
ATOM      6  O   ASN A  1       30.040 -21.757   8.883  0.00  0.00    -0.249 OA
BRANCH   5   7
ATOM      7  OXT ASN A  1       32.203 -21.425   9.441  0.00  0.00    -0.479 OA
ATOM      8  HXT ASN A  1       32.960 -21.278   8.823  0.00  0.00    +0.295 HD
ENDBRANCH   5   7
ENDBRANCH   1   5
BRANCH   1   9
ATOM      9  CB  ASN A  1       29.611 -19.123   8.019  0.00  0.00    +0.125 C 
BRANCH   9  13
ATOM     10  ND2 ASN A  1       28.889 -20.392   6.088  0.00  0.00    -0.329 N 
ATOM     11 HD21 ASN A  1       28.752 -21.193   6.692  0.00  0.00    +0.145 HD
ATOM     12 HD22 ASN A  1       28.707 -20.503   5.098  0.00  0.00    +0.145 HD
ATOM     13  CG  ASN A  1       29.387 -19.203   6.529  0.00  0.00    +0.212 C 
ATOM     14  OD1 ASN A  1       29.625 -18.278   5.759  0.00  0.00    -0.276 OA
ENDBRANCH   9  13
ENDBRANCH   1   9
TORSDOF 5
ENDMDL
MODEL 5
REMARK VINA RESULT:      -4.8      2.015      3.676
REMARK  Name = *****
REMARK                            x       y       z     vdW  Elec       q    Type
REMARK                         _______ _______ _______ _____ _____    ______ ____
ROOT
ATOM      1  CA  ASN A  1       30.663 -19.319   8.157  0.00  0.00    +0.169 C 
ENDROOT
BRANCH   1   2
ATOM      2  N   ASN A  1       29.259 -19.179   8.627  0.00  0.00    -0.318 NA
ATOM      3  H1  ASN A  1       29.042 -19.992   9.211  0.00  0.00    +0.119 HD
ATOM      4  H2  ASN A  1       29.235 -18.402   9.297  0.00  0.00    +0.119 HD
ENDBRANCH   1   2
BRANCH   1   5
ATOM      5  C   ASN A  1       31.223 -20.668   8.644  0.00  0.00    +0.322 C 
ATOM      6  O   ASN A  1       32.216 -20.767   9.363  0.00  0.00    -0.249 OA
BRANCH   5   7
ATOM      7  OXT ASN A  1       30.518 -21.746   8.243  0.00  0.00    -0.479 OA
ATOM      8  HXT ASN A  1       30.998 -22.289   7.570  0.00  0.00    +0.295 HD
ENDBRANCH   5   7
ENDBRANCH   1   5
BRANCH   1   9
ATOM      9  CB  ASN A  1       31.486 -18.150   8.695  0.00  0.00    +0.125 C 
BRANCH   9  13
ATOM     10  ND2 ASN A  1       31.063 -18.150  11.078  0.00  0.00    -0.329 N 
ATOM     11 HD21 ASN A  1       31.583 -19.014  11.150  0.00  0.00    +0.145 HD
ATOM     12 HD22 ASN A  1       30.650 -17.768  11.921  0.00  0.00    +0.145 HD
ATOM     13  CG  ASN A  1       30.819 -17.522   9.894  0.00  0.00    +0.212 C 
ATOM     14  OD1 ASN A  1       30.111 -16.523   9.826  0.00  0.00    -0.276 OA
ENDBRANCH   9  13
ENDBRANCH   1   9
TORSDOF 5
ENDMDL
MODEL 6
REMARK VINA RESULT:      -4.8      1.751      2.214
REMARK  Name = *****
REMARK                            x       y       z     vdW  Elec       q    Type
REMARK                         _______ _______ _______ _____ _____    ______ ____
ROOT
ATOM      1  CA  ASN A  1       31.333 -18.383   8.841  0.00  0.00    +0.169 C 
ENDROOT
BRANCH   1   2
ATOM      2  N   ASN A  1       31.762 -19.761   9.201  0.00  0.00    -0.318 NA
ATOM      3  H1  ASN A  1       32.514 -19.684   9.892  0.00  0.00    +0.119 HD
ATOM      4  H2  ASN A  1       30.999 -20.190   9.736  0.00  0.00    +0.119 HD
ENDBRANCH   1   2
BRANCH   1   5
ATOM      5  C   ASN A  1       30.685 -17.723  10.073  0.00  0.00    +0.322 C 
ATOM      6  O   ASN A  1       30.197 -16.594  10.055  0.00  0.00    -0.249 OA
BRANCH   5   7
ATOM      7  OXT ASN A  1       30.666 -18.494  11.179  0.00  0.00    -0.479 OA
ATOM      8  HXT ASN A  1       31.407 -19.148  11.203  0.00  0.00    +0.295 HD
ENDBRANCH   5   7
ENDBRANCH   1   5
BRANCH   1   9
ATOM      9  CB  ASN A  1       30.354 -18.455   7.671  0.00  0.00    +0.125 C 
BRANCH   9  13
ATOM     10  ND2 ASN A  1       29.810 -20.687   6.909  0.00  0.00    -0.329 N 
ATOM     11 HD21 ASN A  1       30.528 -20.599   6.202  0.00  0.00    +0.145 HD
ATOM     12 HD22 ASN A  1       29.266 -21.542   6.936  0.00  0.00    +0.145 HD
ATOM     13  CG  ASN A  1       29.482 -19.682   7.769  0.00  0.00    +0.212 C 
ATOM     14  OD1 ASN A  1       28.548 -19.786   8.558  0.00  0.00    -0.276 OA
ENDBRANCH   9  13
ENDBRANCH   1   9
TORSDOF 5
ENDMDL
MODEL 7
REMARK VINA RESULT:      -4.8      1.894      2.192
REMARK  Name = *****
REMARK                            x       y       z     vdW  Elec       q    Type
REMARK                         _______ _______ _______ _____ _____    ______ ____
ROOT
ATOM      1  CA  ASN A  1       31.668 -18.409   9.369  0.00  0.00    +0.169 C 
ENDROOT
BRANCH   1   2
ATOM      2  N   ASN A  1       30.817 -18.969  10.453  0.00  0.00    -0.318 NA
ATOM      3  H1  ASN A  1       31.390 -19.036  11.299  0.00  0.00    +0.119 HD
ATOM      4  H2  ASN A  1       30.124 -18.253  10.700  0.00  0.00    +0.119 HD
ENDBRANCH   1   2
BRANCH   1   5
ATOM      5  C   ASN A  1       31.469 -16.883   9.312  0.00  0.00    +0.322 C 
ATOM      6  O   ASN A  1       30.471 -16.317   9.756  0.00  0.00    -0.249 OA
BRANCH   5   7
ATOM      7  OXT ASN A  1       32.494 -16.203   8.760  0.00  0.00    -0.479 OA
ATOM      8  HXT ASN A  1       32.241 -15.739   7.925  0.00  0.00    +0.295 HD
ENDBRANCH   5   7
ENDBRANCH   1   5
BRANCH   1   9
ATOM      9  CB  ASN A  1       31.287 -19.069   8.045  0.00  0.00    +0.125 C 
BRANCH   9  13
ATOM     10  ND2 ASN A  1       31.618 -21.424   8.494  0.00  0.00    -0.329 N 
ATOM     11 HD21 ASN A  1       32.616 -21.274   8.435  0.00  0.00    +0.145 HD
ATOM     12 HD22 ASN A  1       31.285 -22.366   8.664  0.00  0.00    +0.145 HD
ATOM     13  CG  ASN A  1       30.701 -20.441   8.272  0.00  0.00    +0.212 C 
ATOM     14  OD1 ASN A  1       29.496 -20.671   8.264  0.00  0.00    -0.276 OA
ENDBRANCH   9  13
ENDBRANCH   1   9
TORSDOF 5
ENDMDL
MODEL 8
REMARK VINA RESULT:      -4.7      2.762      4.076
REMARK  Name = *****
REMARK                            x       y       z     vdW  Elec       q    Type
REMARK                         _______ _______ _______ _____ _____    ______ ____
ROOT
ATOM      1  CA  ASN A  1       29.505 -19.264   7.197  0.00  0.00    +0.169 C 
ENDROOT
BRANCH   1   2
ATOM      2  N   ASN A  1       29.095 -19.240   8.627  0.00  0.00    -0.318 NA
ATOM      3  H1  ASN A  1       29.295 -18.305   8.994  0.00  0.00    +0.119 HD
ATOM      4  H2  ASN A  1       28.070 -19.284   8.654  0.00  0.00    +0.119 HD
ENDBRANCH   1   2
BRANCH   1   5
ATOM      5  C   ASN A  1       28.744 -20.393   6.477  0.00  0.00    +0.322 C 
ATOM      6  O   ASN A  1       28.625 -21.527   6.938  0.00  0.00    -0.249 OA
BRANCH   5   7
ATOM      7  OXT ASN A  1       28.187 -20.034   5.302  0.00  0.00    -0.479 OA
ATOM      8  HXT ASN A  1       28.807 -19.524   4.724  0.00  0.00    +0.295 HD
ENDBRANCH   5   7
ENDBRANCH   1   5
BRANCH   1   9
ATOM      9  CB  ASN A  1       31.016 -19.473   7.116  0.00  0.00    +0.125 C 
BRANCH   9  13
ATOM     10  ND2 ASN A  1       31.424 -21.432   8.477  0.00  0.00    -0.329 N 
ATOM     11 HD21 ASN A  1       30.942 -21.989   7.784  0.00  0.00    +0.145 HD
ATOM     12 HD22 ASN A  1       31.774 -21.898   9.306  0.00  0.00    +0.145 HD
ATOM     13  CG  ASN A  1       31.549 -20.078   8.391  0.00  0.00    +0.212 C 
ATOM     14  OD1 ASN A  1       32.062 -19.419   9.289  0.00  0.00    -0.276 OA
ENDBRANCH   9  13
ENDBRANCH   1   9
TORSDOF 5
ENDMDL
MODEL 9
REMARK VINA RESULT:      -4.6      8.796      9.712
REMARK  Name = *****
REMARK                            x       y       z     vdW  Elec       q    Type
REMARK                         _______ _______ _______ _____ _____    ______ ____
ROOT
ATOM      1  CA  ASN A  1       24.289 -22.932   6.649  0.00  0.00    +0.169 C 
ENDROOT
BRANCH   1   2
ATOM      2  N   ASN A  1       24.990 -22.820   5.342  0.00  0.00    -0.318 NA
ATOM      3  H1  ASN A  1       24.404 -23.269   4.633  0.00  0.00    +0.119 HD
ATOM      4  H2  ASN A  1       24.969 -21.831   5.066  0.00  0.00    +0.119 HD
ENDBRANCH   1   2
BRANCH   1   5
ATOM      5  C   ASN A  1       23.344 -24.147   6.609  0.00  0.00    +0.322 C 
ATOM      6  O   ASN A  1       23.741 -25.306   6.499  0.00  0.00    -0.249 OA
BRANCH   5   7
ATOM      7  OXT ASN A  1       22.035 -23.846   6.732  0.00  0.00    -0.479 OA
ATOM      8  HXT ASN A  1       21.846 -23.278   7.518  0.00  0.00    +0.295 HD
ENDBRANCH   5   7
ENDBRANCH   1   5
BRANCH   1   9
ATOM      9  CB  ASN A  1       23.519 -21.639   6.913  0.00  0.00    +0.125 C 
BRANCH   9  13
ATOM     10  ND2 ASN A  1       22.089 -21.292   4.992  0.00  0.00    -0.329 N 
ATOM     11 HD21 ASN A  1       21.513 -22.062   5.307  0.00  0.00    +0.145 HD
ATOM     12 HD22 ASN A  1       21.836 -20.828   4.127  0.00  0.00    +0.145 HD
ATOM     13  CG  ASN A  1       23.231 -20.907   5.626  0.00  0.00    +0.212 C 
ATOM     14  OD1 ASN A  1       23.956 -20.027   5.173  0.00  0.00    -0.276 OA
ENDBRANCH   9  13
ENDBRANCH   1   9
TORSDOF 5
ENDMDL
