MODEL 1
REMARK VINA RESULT:      -7.5      0.000      0.000
REMARK  Name = *****
REMARK                            x       y       z     vdW  Elec       q    Type
REMARK                         _______ _______ _______ _____ _____    ______ ____
ROOT
ATOM      1  C   LIG    1       27.360 -20.354   6.802  0.00  0.00    +0.158 A 
ATOM      2  N   LIG    1       26.948 -20.327   5.497  0.00  0.00    -0.337 N 
ATOM      3  H   LIG    1       27.564 -20.187   4.709  0.00  0.00    +0.167 HD
ATOM      4  C   LIG    1       25.593 -20.519   5.468  0.00  0.00    +0.067 A 
ATOM      5  C   LIG    1       25.243 -20.656   6.808  0.00  0.00    +0.089 A 
ATOM      6  C   LIG    1       23.899 -20.870   7.145  0.00  0.00    +0.030 A 
ATOM      7  C   LIG    1       22.951 -20.938   6.116  0.00  0.00    +0.002 A 
ATOM      8  C   LIG    1       23.333 -20.795   4.779  0.00  0.00    +0.002 A 
ATOM      9  C   LIG    1       24.670 -20.582   4.423  0.00  0.00    +0.028 A 
ATOM     10  N   LIG    1       26.347 -20.552   7.622  0.00  0.00    -0.226 NA
ENDROOT
BRANCH   1  14
ATOM     11  C   LIG    1       30.609 -20.601   8.343  0.00  0.00    +0.156 A 
ATOM     12  S   LIG    1       31.168 -19.329   7.335  0.00  0.00    -0.083 S 
ATOM     13  C   LIG    1       29.611 -19.236   6.623  0.00  0.00    +0.078 A 
ATOM     14  C   LIG    1       28.782 -20.176   7.200  0.00  0.00    +0.113 A 
ATOM     15  N   LIG    1       29.353 -20.961   8.189  0.00  0.00    -0.244 NA
ENDBRANCH   1  14
TORSDOF 1
ENDMDL
MODEL 2
REMARK VINA RESULT:      -7.3      4.516      5.139
REMARK  Name = *****
REMARK                            x       y       z     vdW  Elec       q    Type
REMARK                         _______ _______ _______ _____ _____    ______ ____
ROOT
ATOM      1  C   LIG    1       24.278 -23.258   5.651  0.00  0.00    +0.158 A 
ATOM      2  N   LIG    1       24.755 -22.629   4.532  0.00  0.00    -0.337 N 
ATOM      3  H   LIG    1       25.409 -23.040   3.883  0.00  0.00    +0.167 HD
ATOM      4  C   LIG    1       24.191 -21.383   4.466  0.00  0.00    +0.067 A 
ATOM      5  C   LIG    1       23.375 -21.321   5.591  0.00  0.00    +0.089 A 
ATOM      6  C   LIG    1       22.635 -20.155   5.836  0.00  0.00    +0.030 A 
ATOM      7  C   LIG    1       22.745 -19.088   4.935  0.00  0.00    +0.002 A 
ATOM      8  C   LIG    1       23.574 -19.180   3.814  0.00  0.00    +0.002 A 
ATOM      9  C   LIG    1       24.320 -20.335   3.552  0.00  0.00    +0.028 A 
ATOM     10  N   LIG    1       23.439 -22.489   6.315  0.00  0.00    -0.226 NA
ENDROOT
BRANCH   1  14
ATOM     11  C   LIG    1       24.422 -26.802   6.296  0.00  0.00    +0.156 A 
ATOM     12  S   LIG    1       26.034 -26.619   6.859  0.00  0.00    -0.083 S 
ATOM     13  C   LIG    1       25.932 -24.937   6.542  0.00  0.00    +0.078 A 
ATOM     14  C   LIG    1       24.687 -24.636   6.032  0.00  0.00    +0.113 A 
ATOM     15  N   LIG    1       23.816 -25.706   5.890  0.00  0.00    -0.244 NA
ENDBRANCH   1  14
TORSDOF 1
ENDMDL
MODEL 3
REMARK VINA RESULT:      -7.2      1.428      1.764
REMARK  Name = *****
REMARK                            x       y       z     vdW  Elec       q    Type
REMARK                         _______ _______ _______ _____ _____    ______ ____
ROOT
ATOM      1  C   LIG    1       27.297 -21.111   7.280  0.00  0.00    +0.158 A 
ATOM      2  N   LIG    1       27.010 -22.423   7.012  0.00  0.00    -0.337 N 
ATOM      3  H   LIG    1       27.706 -23.141   6.875  0.00  0.00    +0.167 HD
ATOM      4  C   LIG    1       25.649 -22.565   6.966  0.00  0.00    +0.067 A 
ATOM      5  C   LIG    1       25.167 -21.285   7.218  0.00  0.00    +0.089 A 
ATOM      6  C   LIG    1       23.781 -21.068   7.245  0.00  0.00    +0.030 A 
ATOM      7  C   LIG    1       22.927 -22.155   7.014  0.00  0.00    +0.002 A 
ATOM      8  C   LIG    1       23.442 -23.430   6.763  0.00  0.00    +0.002 A 
ATOM      9  C   LIG    1       24.821 -23.665   6.733  0.00  0.00    +0.028 A 
ATOM     10  N   LIG    1       26.198 -20.395   7.411  0.00  0.00    -0.226 NA
ENDROOT
BRANCH   1  14
ATOM     11  C   LIG    1       30.711 -20.483   8.251  0.00  0.00    +0.156 A 
ATOM     12  S   LIG    1       30.831 -19.301   7.011  0.00  0.00    -0.083 S 
ATOM     13  C   LIG    1       29.204 -19.623   6.575  0.00  0.00    +0.078 A 
ATOM     14  C   LIG    1       28.689 -20.602   7.399  0.00  0.00    +0.113 A 
ATOM     15  N   LIG    1       29.553 -21.098   8.363  0.00  0.00    -0.244 NA
ENDBRANCH   1  14
TORSDOF 1
ENDMDL
MODEL 4
REMARK VINA RESULT:      -7.2      1.357      1.802
REMARK  Name = *****
REMARK                            x       y       z     vdW  Elec       q    Type
REMARK                         _______ _______ _______ _____ _____    ______ ____
ROOT
ATOM      1  C   LIG    1       27.436 -21.206   7.392  0.00  0.00    +0.158 A 
ATOM      2  N   LIG    1       26.346 -20.378   7.393  0.00  0.00    -0.337 N 
ATOM      3  H   LIG    1       26.392 -19.376   7.507  0.00  0.00    +0.167 HD
ATOM      4  C   LIG    1       25.224 -21.143   7.216  0.00  0.00    +0.067 A 
ATOM      5  C   LIG    1       25.713 -22.441   7.115  0.00  0.00    +0.089 A 
ATOM      6  C   LIG    1       24.812 -23.499   6.924  0.00  0.00    +0.030 A 
ATOM      7  C   LIG    1       23.443 -23.209   6.844  0.00  0.00    +0.002 A 
ATOM      8  C   LIG    1       22.982 -21.894   6.951  0.00  0.00    +0.002 A 
ATOM      9  C   LIG    1       23.867 -20.826   7.140  0.00  0.00    +0.028 A 
ATOM     10  N   LIG    1       27.084 -22.465   7.224  0.00  0.00    -0.226 NA
ENDROOT
BRANCH   1  14
ATOM     11  C   LIG    1       30.832 -20.631   8.455  0.00  0.00    +0.156 A 
ATOM     12  S   LIG    1       30.972 -19.383   7.284  0.00  0.00    -0.083 S 
ATOM     13  C   LIG    1       29.353 -19.681   6.803  0.00  0.00    +0.078 A 
ATOM     14  C   LIG    1       28.825 -20.704   7.563  0.00  0.00    +0.113 A 
ATOM     15  N   LIG    1       29.673 -21.252   8.513  0.00  0.00    -0.244 NA
ENDBRANCH   1  14
TORSDOF 1
ENDMDL
MODEL 5
REMARK VINA RESULT:      -7.0      4.995      5.809
REMARK  Name = *****
REMARK                            x       y       z     vdW  Elec       q    Type
REMARK                         _______ _______ _______ _____ _____    ______ ____
ROOT
ATOM      1  C   LIG    1       24.674 -24.631   5.759  0.00  0.00    +0.158 A 
ATOM      2  N   LIG    1       24.923 -23.676   4.811  0.00  0.00    -0.337 N 
ATOM      3  H   LIG    1       25.389 -23.853   3.933  0.00  0.00    +0.167 HD
ATOM      4  C   LIG    1       24.436 -22.480   5.267  0.00  0.00    +0.067 A 
ATOM      5  C   LIG    1       23.900 -22.786   6.513  0.00  0.00    +0.089 A 
ATOM      6  C   LIG    1       23.306 -21.767   7.271  0.00  0.00    +0.030 A 
ATOM      7  C   LIG    1       23.274 -20.469   6.745  0.00  0.00    +0.002 A 
ATOM      8  C   LIG    1       23.823 -20.192   5.489  0.00  0.00    +0.002 A 
ATOM      9  C   LIG    1       24.419 -21.196   4.718  0.00  0.00    +0.028 A 
ATOM     10  N   LIG    1       24.054 -24.121   6.804  0.00  0.00    -0.226 NA
ENDROOT
BRANCH   1  14
ATOM     11  C   LIG    1       26.385 -27.705   4.971  0.00  0.00    +0.156 A 
ATOM     12  S   LIG    1       25.074 -28.589   5.642  0.00  0.00    -0.083 S 
ATOM     13  C   LIG    1       24.287 -27.109   6.002  0.00  0.00    +0.078 A 
ATOM     14  C   LIG    1       25.073 -26.054   5.590  0.00  0.00    +0.113 A 
ATOM     15  N   LIG    1       26.279 -26.393   4.997  0.00  0.00    -0.244 NA
ENDBRANCH   1  14
TORSDOF 1
ENDMDL
MODEL 6
REMARK VINA RESULT:      -6.6      3.008      5.500
REMARK  Name = *****
REMARK                            x       y       z     vdW  Elec       q    Type
REMARK                         _______ _______ _______ _____ _____    ______ ____
ROOT
ATOM      1  C   LIG    1       26.664 -21.705   6.824  0.00  0.00    +0.158 A 
ATOM      2  N   LIG    1       26.919 -20.688   5.943  0.00  0.00    -0.337 N 
ATOM      3  H   LIG    1       26.292 -20.405   5.205  0.00  0.00    +0.167 HD
ATOM      4  C   LIG    1       28.141 -20.152   6.247  0.00  0.00    +0.067 A 
ATOM      5  C   LIG    1       28.578 -20.901   7.335  0.00  0.00    +0.089 A 
ATOM      6  C   LIG    1       29.824 -20.609   7.910  0.00  0.00    +0.030 A 
ATOM      7  C   LIG    1       30.589 -19.570   7.365  0.00  0.00    +0.002 A 
ATOM      8  C   LIG    1       30.123 -18.835   6.270  0.00  0.00    +0.002 A 
ATOM      9  C   LIG    1       28.882 -19.111   5.684  0.00  0.00    +0.028 A 
ATOM     10  N   LIG    1       27.654 -21.858   7.681  0.00  0.00    -0.226 NA
ENDROOT
BRANCH   1  14
ATOM     11  C   LIG    1       23.251 -22.859   6.934  0.00  0.00    +0.156 A 
ATOM     12  S   LIG    1       23.787 -24.439   6.531  0.00  0.00    -0.083 S 
ATOM     13  C   LIG    1       25.400 -23.858   6.488  0.00  0.00    +0.078 A 
ATOM     14  C   LIG    1       25.415 -22.511   6.781  0.00  0.00    +0.113 A 
ATOM     15  N   LIG    1       24.181 -21.934   7.038  0.00  0.00    -0.244 NA
ENDBRANCH   1  14
TORSDOF 1
ENDMDL
MODEL 7
REMARK VINA RESULT:      -6.5      2.581      5.670
REMARK  Name = *****
REMARK                            x       y       z     vdW  Elec       q    Type
REMARK                         _______ _______ _______ _____ _____    ______ ____
ROOT
ATOM      1  C   LIG    1       26.872 -20.357   5.886  0.00  0.00    +0.158 A 
ATOM      2  N   LIG    1       27.812 -19.464   5.446  0.00  0.00    -0.337 N 
ATOM      3  H   LIG    1       27.668 -18.812   4.689  0.00  0.00    +0.167 HD
ATOM      4  C   LIG    1       28.942 -19.620   6.203  0.00  0.00    +0.067 A 
ATOM      5  C   LIG    1       28.614 -20.638   7.093  0.00  0.00    +0.089 A 
ATOM      6  C   LIG    1       29.566 -21.058   8.033  0.00  0.00    +0.030 A 
ATOM      7  C   LIG    1       30.821 -20.436   8.042  0.00  0.00    +0.002 A 
ATOM      8  C   LIG    1       31.122 -19.417   7.134  0.00  0.00    +0.002 A 
ATOM      9  C   LIG    1       30.184 -18.983   6.189  0.00  0.00    +0.028 A 
ATOM     10  N   LIG    1       27.329 -21.083   6.885  0.00  0.00    -0.226 NA
ENDROOT
BRANCH   1  14
ATOM     11  C   LIG    1       24.040 -20.384   3.655  0.00  0.00    +0.156 A 
ATOM     12  S   LIG    1       23.025 -20.809   4.973  0.00  0.00    -0.083 S 
ATOM     13  C   LIG    1       24.393 -20.787   6.007  0.00  0.00    +0.078 A 
ATOM     14  C   LIG    1       25.518 -20.460   5.280  0.00  0.00    +0.113 A 
ATOM     15  N   LIG    1       25.318 -20.227   3.928  0.00  0.00    -0.244 NA
ENDBRANCH   1  14
TORSDOF 1
ENDMDL
MODEL 8
REMARK VINA RESULT:      -6.4      5.148      6.134
REMARK  Name = *****
REMARK                            x       y       z     vdW  Elec       q    Type
REMARK                         _______ _______ _______ _____ _____    ______ ____
ROOT
ATOM      1  C   LIG    1       25.010 -24.886   6.381  0.00  0.00    +0.158 A 
ATOM      2  N   LIG    1       26.040 -24.127   6.870  0.00  0.00    -0.337 N 
ATOM      3  H   LIG    1       26.995 -24.445   6.946  0.00  0.00    +0.167 HD
ATOM      4  C   LIG    1       25.541 -22.902   7.223  0.00  0.00    +0.067 A 
ATOM      5  C   LIG    1       24.187 -22.987   6.918  0.00  0.00    +0.089 A 
ATOM      6  C   LIG    1       23.359 -21.881   7.160  0.00  0.00    +0.030 A 
ATOM      7  C   LIG    1       23.929 -20.723   7.704  0.00  0.00    +0.002 A 
ATOM      8  C   LIG    1       25.294 -20.667   8.002  0.00  0.00    +0.002 A 
ATOM      9  C   LIG    1       26.135 -21.761   7.766  0.00  0.00    +0.028 A 
ATOM     10  N   LIG    1       23.873 -24.221   6.397  0.00  0.00    -0.226 NA
ENDROOT
BRANCH   1  14
ATOM     11  C   LIG    1       26.210 -27.912   4.832  0.00  0.00    +0.156 A 
ATOM     12  S   LIG    1       24.870 -28.762   5.488  0.00  0.00    -0.083 S 
ATOM     13  C   LIG    1       24.326 -27.305   6.211  0.00  0.00    +0.078 A 
ATOM     14  C   LIG    1       25.199 -26.282   5.903  0.00  0.00    +0.113 A 
ATOM     15  N   LIG    1       26.282 -26.628   5.111  0.00  0.00    -0.244 NA
ENDBRANCH   1  14
TORSDOF 1
ENDMDL
MODEL 9
REMARK VINA RESULT:      -6.4      2.893      5.676
REMARK  Name = *****
REMARK                            x       y       z     vdW  Elec       q    Type
REMARK                         _______ _______ _______ _____ _____    ______ ____
ROOT
ATOM      1  C   LIG    1       26.600 -21.428   6.785  0.00  0.00    +0.158 A 
ATOM      2  N   LIG    1       27.635 -21.751   7.621  0.00  0.00    -0.337 N 
ATOM      3  H   LIG    1       27.611 -22.505   8.292  0.00  0.00    +0.167 HD
ATOM      4  C   LIG    1       28.670 -20.887   7.379  0.00  0.00    +0.067 A 
ATOM      5  C   LIG    1       28.187 -20.056   6.373  0.00  0.00    +0.089 A 
ATOM      6  C   LIG    1       29.010 -19.034   5.877  0.00  0.00    +0.030 A 
ATOM      7  C   LIG    1       30.295 -18.885   6.415  0.00  0.00    +0.002 A 
ATOM      8  C   LIG    1       30.751 -19.735   7.426  0.00  0.00    +0.002 A 
ATOM      9  C   LIG    1       29.945 -20.761   7.934  0.00  0.00    +0.028 A 
ATOM     10  N   LIG    1       26.906 -20.403   6.015  0.00  0.00    -0.226 NA
ENDROOT
BRANCH   1  14
ATOM     11  C   LIG    1       23.129 -22.389   6.930  0.00  0.00    +0.156 A 
ATOM     12  S   LIG    1       23.584 -24.021   6.648  0.00  0.00    -0.083 S 
ATOM     13  C   LIG    1       25.226 -23.530   6.586  0.00  0.00    +0.078 A 
ATOM     14  C   LIG    1       25.310 -22.168   6.782  0.00  0.00    +0.113 A 
ATOM     15  N   LIG    1       24.106 -21.509   6.980  0.00  0.00    -0.244 NA
ENDBRANCH   1  14
TORSDOF 1
ENDMDL
