MODEL 1
REMARK VINA RESULT:      -6.0      0.000      0.000
REMARK  Name = *****
REMARK                            x       y       z     vdW  Elec       q    Type
REMARK                         _______ _______ _______ _____ _____    ______ ____
ROOT
ATOM      1  C   LIG    1       25.308 -31.222   8.312  0.00  0.00    +0.129 C 
ATOM      2  C   LIG    1       25.263 -31.508   9.848  0.00  0.00    +0.007 C 
ATOM      3  C   LIG    1       25.321 -33.015  10.166  0.00  0.00    +0.014 C 
ATOM      4  C   LIG    1       23.903 -30.900  10.267  0.00  0.00    +0.005 C 
ATOM      5  C   LIG    1       23.737 -30.646  11.787  0.00  0.00    +0.019 C 
ATOM      6  C   LIG    1       24.952 -30.028  12.518  0.00  0.00    +0.004 C 
ATOM      7  C   LIG    1       26.244 -30.746  12.099  0.00  0.00    +0.005 C 
ATOM      8  C   LIG    1       24.982 -28.480  12.391  0.00  0.00    +0.024 C 
ATOM      9  C   LIG    1       23.646 -27.858  12.828  0.00  0.00    -0.038 C 
ATOM     10  C   LIG    1       23.599 -26.651  13.424  0.00  0.00    +0.050 C 
ATOM     11  C   LIG    1       24.811 -25.829  13.647  0.00  0.00    +0.156 C 
ATOM     12  O   LIG    1       24.699 -24.717  14.159  0.00  0.00    -0.293 OA
ATOM     13  C   LIG    1       26.132 -26.354  13.157  0.00  0.00    +0.079 C 
ATOM     14  C   LIG    1       22.421 -28.630  12.566  0.00  0.00    -0.051 C 
ATOM     15  C   LIG    1       21.072 -28.001  12.817  0.00  0.00    +0.044 C 
ATOM     16  C   LIG    1       26.155 -27.873  13.188  0.00  0.00    +0.016 C 
ATOM     17  C   LIG    1       22.476 -29.883  12.078  0.00  0.00    -0.019 C 
ATOM     18  C   LIG    1       23.689 -29.690   9.332  0.00  0.00    +0.008 C 
ATOM     19  C   LIG    1       26.433 -30.798  10.587  0.00  0.00    +0.010 C 
ATOM     20  C   LIG    1       24.712 -29.810   8.202  0.00  0.00    +0.043 C 
ENDROOT
BRANCH   1  22
ATOM     21  C   LIG    1       25.208 -33.254   6.662  0.00  0.00    +0.089 C 
ATOM     22  C   LIG    1       24.463 -32.210   7.460  0.00  0.00    +0.162 C 
ATOM     23  O   LIG    1       23.232 -32.159   7.414  0.00  0.00    -0.295 OA
ENDBRANCH   1  22
BRANCH   1  24
ATOM     24  O   LIG    1       26.652 -31.200   7.837  0.00  0.00    -0.381 OA
ATOM     25  H   LIG    1       27.038 -30.337   8.068  0.00  0.00    +0.211 HD
ENDBRANCH   1  24
TORSDOF 2
ENDMDL
MODEL 2
REMARK VINA RESULT:      -5.9      1.039      1.173
REMARK  Name = *****
REMARK                            x       y       z     vdW  Elec       q    Type
REMARK                         _______ _______ _______ _____ _____    ______ ____
ROOT
ATOM      1  C   LIG    1       25.097 -30.861   7.545  0.00  0.00    +0.129 C 
ATOM      2  C   LIG    1       25.744 -31.199   8.928  0.00  0.00    +0.007 C 
ATOM      3  C   LIG    1       26.307 -32.633   8.977  0.00  0.00    +0.014 C 
ATOM      4  C   LIG    1       24.557 -31.031   9.908  0.00  0.00    +0.005 C 
ATOM      5  C   LIG    1       24.953 -30.888  11.400  0.00  0.00    +0.019 C 
ATOM      6  C   LIG    1       26.155 -29.966  11.707  0.00  0.00    +0.004 C 
ATOM      7  C   LIG    1       27.310 -30.259  10.737  0.00  0.00    +0.005 C 
ATOM      8  C   LIG    1       25.734 -28.474  11.806  0.00  0.00    +0.024 C 
ATOM      9  C   LIG    1       24.574 -28.285  12.796  0.00  0.00    -0.038 C 
ATOM     10  C   LIG    1       24.460 -27.166  13.536  0.00  0.00    +0.050 C 
ATOM     11  C   LIG    1       25.406 -26.033  13.409  0.00  0.00    +0.156 C 
ATOM     12  O   LIG    1       25.227 -25.020  14.083  0.00  0.00    -0.293 OA
ATOM     13  C   LIG    1       26.508 -26.131  12.392  0.00  0.00    +0.079 C 
ATOM     14  C   LIG    1       23.588 -29.374  12.898  0.00  0.00    -0.051 C 
ATOM     15  C   LIG    1       22.339 -29.176  13.723  0.00  0.00    +0.044 C 
ATOM     16  C   LIG    1       26.930 -27.576  12.189  0.00  0.00    +0.016 C 
ATOM     17  C   LIG    1       23.762 -30.538  12.248  0.00  0.00    -0.019 C 
ATOM     18  C   LIG    1       23.687 -29.906   9.307  0.00  0.00    +0.008 C 
ATOM     19  C   LIG    1       26.886 -30.203   9.274  0.00  0.00    +0.010 C 
ATOM     20  C   LIG    1       24.167 -29.683   7.873  0.00  0.00    +0.043 C 
ENDROOT
BRANCH   1  22
ATOM     21  C   LIG    1       24.853 -32.751   5.748  0.00  0.00    +0.089 C 
ATOM     22  C   LIG    1       24.267 -32.025   6.935  0.00  0.00    +0.162 C 
ATOM     23  O   LIG    1       23.165 -32.355   7.379  0.00  0.00    -0.295 OA
ENDBRANCH   1  22
BRANCH   1  24
ATOM     24  O   LIG    1       26.086 -30.431   6.613  0.00  0.00    -0.381 OA
ATOM     25  H   LIG    1       26.626 -29.744   7.043  0.00  0.00    +0.211 HD
ENDBRANCH   1  24
TORSDOF 2
ENDMDL
MODEL 3
REMARK VINA RESULT:      -5.8      1.173      1.266
REMARK  Name = *****
REMARK                            x       y       z     vdW  Elec       q    Type
REMARK                         _______ _______ _______ _____ _____    ______ ____
ROOT
ATOM      1  C   LIG    1       24.484 -31.666   9.478  0.00  0.00    +0.129 C 
ATOM      2  C   LIG    1       24.484 -31.617  11.040  0.00  0.00    +0.007 C 
ATOM      3  C   LIG    1       24.272 -33.007  11.670  0.00  0.00    +0.014 C 
ATOM      4  C   LIG    1       23.296 -30.674  11.351  0.00  0.00    +0.005 C 
ATOM      5  C   LIG    1       23.281 -30.087  12.785  0.00  0.00    +0.019 C 
ATOM      6  C   LIG    1       24.637 -29.590  13.339  0.00  0.00    +0.004 C 
ATOM      7  C   LIG    1       25.738 -30.624  13.054  0.00  0.00    +0.005 C 
ATOM      8  C   LIG    1       24.955 -28.139  12.884  0.00  0.00    +0.024 C 
ATOM      9  C   LIG    1       23.796 -27.185  13.209  0.00  0.00    -0.038 C 
ATOM     10  C   LIG    1       24.019 -25.897  13.534  0.00  0.00    +0.050 C 
ATOM     11  C   LIG    1       25.378 -25.308  13.549  0.00  0.00    +0.156 C 
ATOM     12  O   LIG    1       25.515 -24.116  13.815  0.00  0.00    -0.293 OA
ATOM     13  C   LIG    1       26.539 -26.178  13.153  0.00  0.00    +0.079 C 
ATOM     14  C   LIG    1       22.430 -27.732  13.146  0.00  0.00    -0.051 C 
ATOM     15  C   LIG    1       21.246 -26.806  13.287  0.00  0.00    +0.044 C 
ATOM     16  C   LIG    1       26.273 -27.631  13.506  0.00  0.00    +0.016 C 
ATOM     17  C   LIG    1       22.212 -29.043  12.935  0.00  0.00    -0.019 C 
ATOM     18  C   LIG    1       23.259 -29.664  10.184  0.00  0.00    +0.008 C 
ATOM     19  C   LIG    1       25.814 -31.021  11.584  0.00  0.00    +0.010 C 
ATOM     20  C   LIG    1       24.164 -30.216   9.082  0.00  0.00    +0.043 C 
ENDROOT
BRANCH   1  22
ATOM     21  C   LIG    1       23.901 -33.825   8.114  0.00  0.00    +0.089 C 
ATOM     22  C   LIG    1       23.411 -32.616   8.876  0.00  0.00    +0.162 C 
ATOM     23  O   LIG    1       22.201 -32.409   8.995  0.00  0.00    -0.295 OA
ENDBRANCH   1  22
BRANCH   1  24
ATOM     24  O   LIG    1       25.772 -32.013   8.979  0.00  0.00    -0.381 OA
ATOM     25  H   LIG    1       26.395 -31.311   9.240  0.00  0.00    +0.211 HD
ENDBRANCH   1  24
TORSDOF 2
ENDMDL
MODEL 4
REMARK VINA RESULT:      -5.6      1.595      2.097
REMARK  Name = *****
REMARK                            x       y       z     vdW  Elec       q    Type
REMARK                         _______ _______ _______ _____ _____    ______ ____
ROOT
ATOM      1  C   LIG    1       25.229 -30.233   8.108  0.00  0.00    +0.129 C 
ATOM      2  C   LIG    1       25.790 -30.355   9.562  0.00  0.00    +0.007 C 
ATOM      3  C   LIG    1       27.081 -31.196   9.624  0.00  0.00    +0.014 C 
ATOM      4  C   LIG    1       24.632 -31.052  10.316  0.00  0.00    +0.005 C 
ATOM      5  C   LIG    1       24.697 -30.948  11.861  0.00  0.00    +0.019 C 
ATOM      6  C   LIG    1       25.081 -29.567  12.441  0.00  0.00    +0.004 C 
ATOM      7  C   LIG    1       26.286 -28.990  11.684  0.00  0.00    +0.005 C 
ATOM      8  C   LIG    1       23.853 -28.621  12.554  0.00  0.00    +0.024 C 
ATOM      9  C   LIG    1       22.702 -29.289  13.323  0.00  0.00    -0.038 C 
ATOM     10  C   LIG    1       21.869 -28.569  14.099  0.00  0.00    +0.050 C 
ATOM     11  C   LIG    1       21.972 -27.096  14.219  0.00  0.00    +0.156 C 
ATOM     12  O   LIG    1       21.156 -26.490  14.911  0.00  0.00    -0.293 OA
ATOM     13  C   LIG    1       23.026 -26.385  13.417  0.00  0.00    +0.079 C 
ATOM     14  C   LIG    1       22.544 -30.744  13.175  0.00  0.00    -0.051 C 
ATOM     15  C   LIG    1       21.335 -31.430  13.766  0.00  0.00    +0.044 C 
ATOM     16  C   LIG    1       24.238 -27.276  13.206  0.00  0.00    +0.016 C 
ATOM     17  C   LIG    1       23.443 -31.480  12.496  0.00  0.00    -0.019 C 
ATOM     18  C   LIG    1       23.340 -30.549   9.637  0.00  0.00    +0.008 C 
ATOM     19  C   LIG    1       26.079 -28.955  10.174  0.00  0.00    +0.010 C 
ATOM     20  C   LIG    1       23.754 -29.867   8.332  0.00  0.00    +0.043 C 
ENDROOT
BRANCH   1  22
ATOM     21  C   LIG    1       26.233 -31.555   6.081  0.00  0.00    +0.089 C 
ATOM     22  C   LIG    1       25.319 -31.548   7.284  0.00  0.00    +0.162 C 
ATOM     23  O   LIG    1       24.672 -32.556   7.574  0.00  0.00    -0.295 OA
ENDBRANCH   1  22
BRANCH   1  24
ATOM     24  O   LIG    1       25.872 -29.175   7.402  0.00  0.00    -0.381 OA
ATOM     25  H   LIG    1       25.279 -28.890   6.683  0.00  0.00    +0.211 HD
ENDBRANCH   1  24
TORSDOF 2
ENDMDL
MODEL 5
REMARK VINA RESULT:      -5.5      7.504      8.524
REMARK  Name = *****
REMARK                            x       y       z     vdW  Elec       q    Type
REMARK                         _______ _______ _______ _____ _____    ______ ____
ROOT
ATOM      1  C   LIG    1       25.909 -26.620   5.566  0.00  0.00    +0.129 C 
ATOM      2  C   LIG    1       25.615 -25.549   6.665  0.00  0.00    +0.007 C 
ATOM      3  C   LIG    1       25.562 -26.160   8.080  0.00  0.00    +0.014 C 
ATOM      4  C   LIG    1       24.231 -24.998   6.242  0.00  0.00    +0.005 C 
ATOM      5  C   LIG    1       23.842 -23.640   6.879  0.00  0.00    +0.019 C 
ATOM      6  C   LIG    1       24.953 -22.566   6.939  0.00  0.00    +0.004 C 
ATOM      7  C   LIG    1       26.264 -23.186   7.444  0.00  0.00    +0.005 C 
ATOM      8  C   LIG    1       25.064 -21.768   5.610  0.00  0.00    +0.024 C 
ATOM      9  C   LIG    1       23.704 -21.192   5.188  0.00  0.00    -0.038 C 
ATOM     10  C   LIG    1       23.613 -20.016   4.538  0.00  0.00    +0.050 C 
ATOM     11  C   LIG    1       24.808 -19.234   4.144  0.00  0.00    +0.156 C 
ATOM     12  O   LIG    1       24.662 -18.187   3.517  0.00  0.00    -0.293 OA
ATOM     13  C   LIG    1       26.166 -19.797   4.456  0.00  0.00    +0.079 C 
ATOM     14  C   LIG    1       22.504 -21.978   5.518  0.00  0.00    -0.051 C 
ATOM     15  C   LIG    1       21.158 -21.551   4.983  0.00  0.00    +0.044 C 
ATOM     16  C   LIG    1       26.123 -20.650   5.713  0.00  0.00    +0.016 C 
ATOM     17  C   LIG    1       22.583 -23.093   6.268  0.00  0.00    -0.019 C 
ATOM     18  C   LIG    1       24.215 -25.075   4.700  0.00  0.00    +0.008 C 
ATOM     19  C   LIG    1       26.683 -24.419   6.651  0.00  0.00    +0.010 C 
ATOM     20  C   LIG    1       25.395 -25.953   4.281  0.00  0.00    +0.043 C 
ENDROOT
BRANCH   1  22
ATOM     21  C   LIG    1       25.574 -28.804   6.974  0.00  0.00    +0.089 C 
ATOM     22  C   LIG    1       25.167 -27.969   5.783  0.00  0.00    +0.162 C 
ATOM     23  O   LIG    1       24.283 -28.368   5.022  0.00  0.00    -0.295 OA
ENDBRANCH   1  22
BRANCH   1  24
ATOM     24  O   LIG    1       27.309 -26.853   5.444  0.00  0.00    -0.381 OA
ATOM     25  H   LIG    1       27.757 -26.379   6.168  0.00  0.00    +0.211 HD
ENDBRANCH   1  24
TORSDOF 2
ENDMDL
MODEL 6
REMARK VINA RESULT:      -5.4      1.375      1.959
REMARK  Name = *****
REMARK                            x       y       z     vdW  Elec       q    Type
REMARK                         _______ _______ _______ _____ _____    ______ ____
ROOT
ATOM      1  C   LIG    1       25.364 -31.528   6.480  0.00  0.00    +0.129 C 
ATOM      2  C   LIG    1       25.558 -32.116   7.915  0.00  0.00    +0.007 C 
ATOM      3  C   LIG    1       25.653 -33.654   7.911  0.00  0.00    +0.014 C 
ATOM      4  C   LIG    1       24.286 -31.635   8.655  0.00  0.00    +0.005 C 
ATOM      5  C   LIG    1       24.364 -31.694  10.202  0.00  0.00    +0.019 C 
ATOM      6  C   LIG    1       25.683 -31.205  10.842  0.00  0.00    +0.004 C 
ATOM      7  C   LIG    1       26.888 -31.794  10.093  0.00  0.00    +0.005 C 
ATOM      8  C   LIG    1       25.706 -29.662  11.025  0.00  0.00    +0.024 C 
ATOM      9  C   LIG    1       24.461 -29.171  11.781  0.00  0.00    -0.038 C 
ATOM     10  C   LIG    1       24.518 -28.108  12.606  0.00  0.00    +0.050 C 
ATOM     11  C   LIG    1       25.757 -27.319  12.798  0.00  0.00    +0.156 C 
ATOM     12  O   LIG    1       25.736 -26.335  13.534  0.00  0.00    -0.293 OA
ATOM     13  C   LIG    1       26.980 -27.705  12.014  0.00  0.00    +0.079 C 
ATOM     14  C   LIG    1       23.204 -29.904  11.563  0.00  0.00    -0.051 C 
ATOM     15  C   LIG    1       21.916 -29.369  12.142  0.00  0.00    +0.044 C 
ATOM     16  C   LIG    1       26.995 -29.199  11.736  0.00  0.00    +0.016 C 
ATOM     17  C   LIG    1       23.170 -31.033  10.832  0.00  0.00    -0.019 C 
ATOM     18  C   LIG    1       23.939 -30.269   8.026  0.00  0.00    +0.008 C 
ATOM     19  C   LIG    1       26.835 -31.540   8.590  0.00  0.00    +0.010 C 
ATOM     20  C   LIG    1       24.770 -30.138   6.749  0.00  0.00    +0.043 C 
ENDROOT
BRANCH   1  22
ATOM     21  C   LIG    1       24.975 -33.094   4.416  0.00  0.00    +0.089 C 
ATOM     22  C   LIG    1       24.387 -32.347   5.590  0.00  0.00    +0.162 C 
ATOM     23  O   LIG    1       23.174 -32.392   5.807  0.00  0.00    -0.295 OA
ENDBRANCH   1  22
BRANCH   1  24
ATOM     24  O   LIG    1       26.616 -31.382   5.816  0.00  0.00    -0.381 OA
ATOM     25  H   LIG    1       26.658 -32.045   5.103  0.00  0.00    +0.211 HD
ENDBRANCH   1  24
TORSDOF 2
ENDMDL
MODEL 7
REMARK VINA RESULT:      -5.4      2.752      6.700
REMARK  Name = *****
REMARK                            x       y       z     vdW  Elec       q    Type
REMARK                         _______ _______ _______ _____ _____    ______ ____
ROOT
ATOM      1  C   LIG    1       23.516 -31.410  11.485  0.00  0.00    +0.129 C 
ATOM      2  C   LIG    1       24.904 -30.949  10.934  0.00  0.00    +0.007 C 
ATOM      3  C   LIG    1       25.753 -30.235  12.005  0.00  0.00    +0.014 C 
ATOM      4  C   LIG    1       24.511 -29.977   9.794  0.00  0.00    +0.005 C 
ATOM      5  C   LIG    1       25.639 -29.666   8.778  0.00  0.00    +0.019 C 
ATOM      6  C   LIG    1       26.494 -30.867   8.312  0.00  0.00    +0.004 C 
ATOM      7  C   LIG    1       26.903 -31.728   9.517  0.00  0.00    +0.005 C 
ATOM      8  C   LIG    1       25.825 -31.639   7.141  0.00  0.00    +0.024 C 
ATOM      9  C   LIG    1       25.452 -30.693   5.989  0.00  0.00    -0.038 C 
ATOM     10  C   LIG    1       25.491 -31.103   4.706  0.00  0.00    +0.050 C 
ATOM     11  C   LIG    1       25.841 -32.492   4.329  0.00  0.00    +0.156 C 
ATOM     12  O   LIG    1       25.820 -32.818   3.144  0.00  0.00    -0.293 OA
ATOM     13  C   LIG    1       26.129 -33.481   5.424  0.00  0.00    +0.079 C 
ATOM     14  C   LIG    1       25.045 -29.324   6.342  0.00  0.00    -0.051 C 
ATOM     15  C   LIG    1       24.506 -28.404   5.273  0.00  0.00    +0.044 C 
ATOM     16  C   LIG    1       26.726 -32.786   6.637  0.00  0.00    +0.016 C 
ATOM     17  C   LIG    1       25.118 -28.878   7.610  0.00  0.00    -0.019 C 
ATOM     18  C   LIG    1       23.190 -30.534   9.220  0.00  0.00    +0.008 C 
ATOM     19  C   LIG    1       25.716 -32.151  10.375  0.00  0.00    +0.010 C 
ATOM     20  C   LIG    1       22.671 -31.575  10.213  0.00  0.00    +0.043 C 
ENDROOT
BRANCH   1  22
ATOM     21  C   LIG    1       22.823 -30.692  13.907  0.00  0.00    +0.089 C 
ATOM     22  C   LIG    1       22.837 -30.379  12.430  0.00  0.00    +0.162 C 
ATOM     23  O   LIG    1       22.315 -29.343  12.013  0.00  0.00    -0.295 OA
ENDBRANCH   1  22
BRANCH   1  24
ATOM     24  O   LIG    1       23.623 -32.670  12.142  0.00  0.00    -0.381 OA
ATOM     25  H   LIG    1       24.108 -33.276  11.553  0.00  0.00    +0.211 HD
ENDBRANCH   1  24
TORSDOF 2
ENDMDL
MODEL 8
REMARK VINA RESULT:      -5.3      3.600      5.765
REMARK  Name = *****
REMARK                            x       y       z     vdW  Elec       q    Type
REMARK                         _______ _______ _______ _____ _____    ______ ____
ROOT
ATOM      1  C   LIG    1       28.658 -29.893  14.371  0.00  0.00    +0.129 C 
ATOM      2  C   LIG    1       27.909 -29.412  13.086  0.00  0.00    +0.007 C 
ATOM      3  C   LIG    1       28.750 -29.606  11.809  0.00  0.00    +0.014 C 
ATOM      4  C   LIG    1       27.670 -27.910  13.375  0.00  0.00    +0.005 C 
ATOM      5  C   LIG    1       26.591 -27.235  12.490  0.00  0.00    +0.019 C 
ATOM      6  C   LIG    1       25.294 -28.042  12.251  0.00  0.00    +0.004 C 
ATOM      7  C   LIG    1       25.632 -29.497  11.894  0.00  0.00    +0.005 C 
ATOM      8  C   LIG    1       24.275 -27.862  13.410  0.00  0.00    +0.024 C 
ATOM      9  C   LIG    1       24.005 -26.376  13.693  0.00  0.00    -0.038 C 
ATOM     10  C   LIG    1       22.798 -25.951  14.112  0.00  0.00    +0.050 C 
ATOM     11  C   LIG    1       21.677 -26.883  14.375  0.00  0.00    +0.156 C 
ATOM     12  O   LIG    1       20.611 -26.439  14.794  0.00  0.00    -0.293 OA
ATOM     13  C   LIG    1       21.916 -28.357  14.198  0.00  0.00    +0.079 C 
ATOM     14  C   LIG    1       25.121 -25.436  13.493  0.00  0.00    -0.051 C 
ATOM     15  C   LIG    1       24.969 -23.994  13.915  0.00  0.00    +0.044 C 
ATOM     16  C   LIG    1       22.957 -28.611  13.121  0.00  0.00    +0.016 C 
ATOM     17  C   LIG    1       26.290 -25.841  12.966  0.00  0.00    -0.019 C 
ATOM     18  C   LIG    1       27.477 -27.812  14.903  0.00  0.00    +0.008 C 
ATOM     19  C   LIG    1       26.557 -30.159  12.910  0.00  0.00    +0.010 C 
ATOM     20  C   LIG    1       27.933 -29.145  15.499  0.00  0.00    +0.043 C 
ENDROOT
BRANCH   1  22
ATOM     21  C   LIG    1       30.605 -28.424  15.327  0.00  0.00    +0.089 C 
ATOM     22  C   LIG    1       30.169 -29.529  14.394  0.00  0.00    +0.162 C 
ATOM     23  O   LIG    1       30.998 -30.101  13.682  0.00  0.00    -0.295 OA
ENDBRANCH   1  22
BRANCH   1  24
ATOM     24  O   LIG    1       28.495 -31.296  14.559  0.00  0.00    -0.381 OA
ATOM     25  H   LIG    1       29.186 -31.598  15.176  0.00  0.00    +0.211 HD
ENDBRANCH   1  24
TORSDOF 2
ENDMDL
MODEL 9
REMARK VINA RESULT:      -5.3      9.585     12.670
REMARK  Name = *****
REMARK                            x       y       z     vdW  Elec       q    Type
REMARK                         _______ _______ _______ _____ _____    ______ ____
ROOT
ATOM      1  C   LIG    1       30.954 -18.319   9.791  0.00  0.00    +0.129 C 
ATOM      2  C   LIG    1       30.900 -19.554   8.835  0.00  0.00    +0.007 C 
ATOM      3  C   LIG    1       32.303 -20.103   8.506  0.00  0.00    +0.014 C 
ATOM      4  C   LIG    1       30.216 -18.976   7.572  0.00  0.00    +0.005 C 
ATOM      5  C   LIG    1       29.638 -20.034   6.597  0.00  0.00    +0.019 C 
ATOM      6  C   LIG    1       28.877 -21.217   7.237  0.00  0.00    +0.004 C 
ATOM      7  C   LIG    1       29.668 -21.774   8.430  0.00  0.00    +0.005 C 
ATOM      8  C   LIG    1       27.393 -20.863   7.532  0.00  0.00    +0.024 C 
ATOM      9  C   LIG    1       26.690 -20.313   6.281  0.00  0.00    -0.038 C 
ATOM     10  C   LIG    1       25.383 -20.543   6.055  0.00  0.00    +0.050 C 
ATOM     11  C   LIG    1       24.532 -21.289   7.011  0.00  0.00    +0.156 C 
ATOM     12  O   LIG    1       23.336 -21.432   6.768  0.00  0.00    -0.293 OA
ATOM     13  C   LIG    1       25.151 -21.773   8.293  0.00  0.00    +0.079 C 
ATOM     14  C   LIG    1       27.501 -19.519   5.344  0.00  0.00    -0.051 C 
ATOM     15  C   LIG    1       26.833 -18.811   4.190  0.00  0.00    +0.044 C 
ATOM     16  C   LIG    1       26.627 -22.077   8.100  0.00  0.00    +0.016 C 
ATOM     17  C   LIG    1       28.830 -19.386   5.508  0.00  0.00    -0.019 C 
ATOM     18  C   LIG    1       29.238 -17.901   8.093  0.00  0.00    +0.008 C 
ATOM     19  C   LIG    1       30.047 -20.702   9.445  0.00  0.00    +0.010 C 
ATOM     20  C   LIG    1       29.600 -17.633   9.554  0.00  0.00    +0.043 C 
ENDROOT
BRANCH   1  22
ATOM     21  C   LIG    1       32.915 -16.799  10.634  0.00  0.00    +0.089 C 
ATOM     22  C   LIG    1       32.104 -17.322   9.472  0.00  0.00    +0.162 C 
ATOM     23  O   LIG    1       32.358 -16.951   8.324  0.00  0.00    -0.295 OA
ENDBRANCH   1  22
BRANCH   1  24
ATOM     24  O   LIG    1       31.037 -18.732  11.153  0.00  0.00    -0.381 OA
ATOM     25  H   LIG    1       31.664 -18.142  11.608  0.00  0.00    +0.211 HD
ENDBRANCH   1  24
TORSDOF 2
ENDMDL
