MODEL 1
REMARK VINA RESULT:       4.0      0.000      0.000
REMARK  Name = *****
REMARK                            x       y       z     vdW  Elec       q    Type
REMARK                         _______ _______ _______ _____ _____    ______ ____
ROOT
ATOM      1  C   LIG    1       23.875 -20.512   6.447  0.00  0.00    +0.147 C 
ENDROOT
BRANCH   1   2
ATOM      2  N   LIG    1       22.785 -20.329   5.465  0.00  0.00    -0.315 N 
ATOM      3  C   LIG    1       22.803 -21.374   4.424  0.00  0.00    +0.131 C 
BRANCH   2   8
ATOM      4  C   LIG    1       22.303 -16.725   5.030  0.00  0.00    +0.225 A 
ATOM      5  N   LIG    1       21.521 -16.699   3.952  0.00  0.00    -0.201 NA
ATOM      6  C   LIG    1       21.091 -17.881   3.525  0.00  0.00    +0.227 A 
ATOM      7  N   LIG    1       21.473 -19.072   3.988  0.00  0.00    -0.221 NA
ATOM      8  C   LIG    1       22.340 -19.096   5.009  0.00  0.00    +0.128 A 
ATOM      9  C   LIG    1       22.689 -17.901   5.594  0.00  0.00    +0.111 A 
BRANCH   4  10
ATOM     10  O   LIG    1       22.791 -15.552   5.634  0.00  0.00    -0.438 OA
BRANCH  10  14
ATOM     11  C   LIG    1       24.002 -12.525   3.053  0.00  0.00    +0.120 A 
ATOM     12  C   LIG    1       23.976 -13.855   2.615  0.00  0.00    +0.049 A 
ATOM     13  C   LIG    1       23.638 -14.887   3.498  0.00  0.00    +0.050 A 
ATOM     14  C   LIG    1       23.277 -14.568   4.806  0.00  0.00    +0.131 A 
ATOM     15  C   LIG    1       23.411 -13.252   5.249  0.00  0.00    +0.050 A 
ATOM     16  C   LIG    1       23.707 -12.226   4.372  0.00  0.00    +0.049 A 
BRANCH  11  18
ATOM     17  C   LIG    1       25.657 -11.447   1.812  0.00  0.00    +0.277 C 
ATOM     18  O   LIG    1       24.312 -11.447   2.272  0.00  0.00    -0.495 OA
ENDBRANCH  11  18
ENDBRANCH  10  14
ENDBRANCH   4  10
ENDBRANCH   2   8
ENDBRANCH   1   2
BRANCH   1  19
ATOM     19  C   LIG    1       25.112 -21.432   6.172  0.00  0.00    +0.248 C 
BRANCH  19  20
ATOM     20  O   LIG    1       26.169 -21.243   5.189  0.00  0.00    -0.490 OA
BRANCH  20  21
ATOM     21  C   LIG    1       26.691 -20.014   4.917  0.00  0.00    +0.121 A 
ATOM     22  C   LIG    1       27.899 -19.625   5.426  0.00  0.00    +0.046 A 
ATOM     23  C   LIG    1       28.425 -18.377   5.244  0.00  0.00    +0.007 A 
ATOM     24  C   LIG    1       27.745 -17.433   4.507  0.00  0.00    -0.046 A 
ATOM     25  C   LIG    1       26.531 -17.805   3.918  0.00  0.00    +0.007 A 
ATOM     26  C   LIG    1       25.973 -19.076   4.166  0.00  0.00    +0.046 A 
BRANCH  24  27
ATOM     27  C   LIG    1       28.365 -16.073   4.368  0.00  0.00    +0.059 C 
BRANCH  27  28
ATOM     28  C   LIG    1       27.335 -14.949   4.148  0.00  0.00    +0.146 C 
ATOM     29  C   LIG    1       27.210 -13.927   5.279  0.00  0.00    +0.234 C 
ATOM     30  O   LIG    1       26.533 -14.048   6.297  0.00  0.00    -0.274 OA
ATOM     31  N   LIG    1       27.954 -12.823   5.072  0.00  0.00    -0.246 N 
ATOM     32  H   LIG    1       27.956 -12.071   5.735  0.00  0.00    +0.158 HD
ATOM     33  C   LIG    1       28.328 -12.554   3.778  0.00  0.00    +0.279 C 
ATOM     34  O   LIG    1       28.806 -11.543   3.397  0.00  0.00    -0.263 OA
ATOM     35  S   LIG    1       27.920 -13.918   2.751  0.00  0.00    -0.054 S 
ENDBRANCH  27  28
ENDBRANCH  24  27
ENDBRANCH  20  21
ENDBRANCH  19  20
ENDBRANCH   1  19
TORSDOF 10
ENDMDL
