MODEL 1
REMARK VINA RESULT:      -3.3      0.000      0.000
REMARK  Name = *****
REMARK                            x       y       z     vdW  Elec       q    Type
REMARK                         _______ _______ _______ _____ _____    ______ ____
ROOT
ATOM      1  C   LIG    1       24.782 -20.860   6.798  0.00  0.00    +0.138 C 
ATOM      2  N   LIG    1       24.830 -20.174   5.512  0.00  0.00    -0.272 N 
ATOM      3  C   LIG    1       26.066 -20.155   4.857  0.00  0.00    +0.241 C 
ATOM      4  O   LIG    1       27.087 -20.635   5.359  0.00  0.00    -0.273 OA
ATOM      5  C   LIG    1       26.093 -19.605   3.437  0.00  0.00    +0.238 C 
ATOM      6  N   LIG    1       25.892 -18.159   3.475  0.00  0.00    -0.273 NA
ATOM      7  C   LIG    1       24.721 -17.721   3.797  0.00  0.00    +0.078 C 
ATOM      8  C   LIG    1       23.545 -18.601   4.056  0.00  0.00    +0.023 A 
ATOM      9  C   LIG    1       22.331 -18.245   3.438  0.00  0.00    +0.032 A 
ATOM     10  C   LIG    1       21.169 -18.949   3.728  0.00  0.00    +0.042 A 
ATOM     11 CL   LIG    1       19.686 -18.500   2.982  0.00  0.00    -0.084 Cl
ATOM     12  C   LIG    1       21.199 -20.007   4.626  0.00  0.00    +0.022 A 
ATOM     13  C   LIG    1       22.409 -20.381   5.220  0.00  0.00    +0.025 A 
ATOM     14  C   LIG    1       23.611 -19.708   4.927  0.00  0.00    +0.045 A 
ENDROOT
BRANCH   7  15
ATOM     15  C   LIG    1       24.554 -16.238   3.892  0.00  0.00    +0.036 A 
ATOM     16  C   LIG    1       25.556 -15.356   3.482  0.00  0.00    +0.133 A 
ATOM     17  F   LIG    1       26.712 -15.807   2.973  0.00  0.00    -0.205 F 
ATOM     18  C   LIG    1       25.373 -13.977   3.576  0.00  0.00    +0.039 A 
ATOM     19  C   LIG    1       24.173 -13.468   4.070  0.00  0.00    +0.003 A 
ATOM     20  C   LIG    1       23.157 -14.340   4.464  0.00  0.00    +0.001 A 
ATOM     21  C   LIG    1       23.343 -15.721   4.370  0.00  0.00    +0.013 A 
ENDBRANCH   7  15
TORSDOF 1
ENDMDL
MODEL 2
REMARK VINA RESULT:      -3.0      1.033      1.472
REMARK  Name = *****
REMARK                            x       y       z     vdW  Elec       q    Type
REMARK                         _______ _______ _______ _____ _____    ______ ____
ROOT
ATOM      1  C   LIG    1       24.697 -20.786   6.871  0.00  0.00    +0.138 C 
ATOM      2  N   LIG    1       24.774 -20.144   5.565  0.00  0.00    -0.272 N 
ATOM      3  C   LIG    1       26.021 -20.164   4.928  0.00  0.00    +0.241 C 
ATOM      4  O   LIG    1       27.027 -20.642   5.462  0.00  0.00    -0.273 OA
ATOM      5  C   LIG    1       26.077 -19.661   3.492  0.00  0.00    +0.238 C 
ATOM      6  N   LIG    1       25.898 -18.213   3.480  0.00  0.00    -0.273 NA
ATOM      7  C   LIG    1       24.729 -17.747   3.769  0.00  0.00    +0.078 C 
ATOM      8  C   LIG    1       23.536 -18.601   4.038  0.00  0.00    +0.023 A 
ATOM      9  C   LIG    1       22.337 -18.248   3.389  0.00  0.00    +0.032 A 
ATOM     10  C   LIG    1       21.160 -18.925   3.684  0.00  0.00    +0.042 A 
ATOM     11 CL   LIG    1       19.696 -18.480   2.900  0.00  0.00    -0.084 Cl
ATOM     12  C   LIG    1       21.161 -19.953   4.616  0.00  0.00    +0.022 A 
ATOM     13  C   LIG    1       22.355 -20.325   5.241  0.00  0.00    +0.025 A 
ATOM     14  C   LIG    1       23.571 -19.680   4.945  0.00  0.00    +0.045 A 
ENDROOT
BRANCH   7  15
ATOM     15  C   LIG    1       24.582 -16.260   3.813  0.00  0.00    +0.036 A 
ATOM     16  C   LIG    1       23.491 -15.644   4.430  0.00  0.00    +0.133 A 
ATOM     17  F   LIG    1       22.530 -16.368   5.021  0.00  0.00    -0.205 F 
ATOM     18  C   LIG    1       23.381 -14.255   4.462  0.00  0.00    +0.039 A 
ATOM     19  C   LIG    1       24.376 -13.466   3.885  0.00  0.00    +0.003 A 
ATOM     20  C   LIG    1       25.482 -14.069   3.284  0.00  0.00    +0.001 A 
ATOM     21  C   LIG    1       25.589 -15.462   3.252  0.00  0.00    +0.013 A 
ENDBRANCH   7  15
TORSDOF 1
ENDMDL
MODEL 3
REMARK VINA RESULT:      -2.7      3.263      5.402
REMARK  Name = *****
REMARK                            x       y       z     vdW  Elec       q    Type
REMARK                         _______ _______ _______ _____ _____    ______ ____
ROOT
ATOM      1  C   LIG    1       22.015 -18.013   4.865  0.00  0.00    +0.138 C 
ATOM      2  N   LIG    1       23.239 -18.487   4.230  0.00  0.00    -0.272 N 
ATOM      3  C   LIG    1       23.234 -19.808   3.766  0.00  0.00    +0.241 C 
ATOM      4  O   LIG    1       22.272 -20.564   3.935  0.00  0.00    -0.273 OA
ATOM      5  C   LIG    1       24.432 -20.260   2.942  0.00  0.00    +0.238 C 
ATOM      6  N   LIG    1       25.597 -20.384   3.812  0.00  0.00    -0.273 NA
ATOM      7  C   LIG    1       26.121 -19.300   4.278  0.00  0.00    +0.078 C 
ATOM      8  C   LIG    1       25.654 -17.929   3.919  0.00  0.00    +0.023 A 
ATOM      9  C   LIG    1       26.642 -16.987   3.575  0.00  0.00    +0.032 A 
ATOM     10  C   LIG    1       26.292 -15.662   3.345  0.00  0.00    +0.042 A 
ATOM     11 CL   LIG    1       27.504 -14.513   2.940  0.00  0.00    -0.084 Cl
ATOM     12  C   LIG    1       24.967 -15.263   3.451  0.00  0.00    +0.022 A 
ATOM     13  C   LIG    1       23.980 -16.202   3.765  0.00  0.00    +0.025 A 
ATOM     14  C   LIG    1       24.295 -17.557   3.976  0.00  0.00    +0.045 A 
ENDROOT
BRANCH   7  15
ATOM     15  C   LIG    1       27.274 -19.452   5.217  0.00  0.00    +0.036 A 
ATOM     16  C   LIG    1       27.297 -20.444   6.201  0.00  0.00    +0.133 A 
ATOM     17  F   LIG    1       26.283 -21.310   6.336  0.00  0.00    -0.205 F 
ATOM     18  C   LIG    1       28.387 -20.568   7.061  0.00  0.00    +0.039 A 
ATOM     19  C   LIG    1       29.475 -19.706   6.933  0.00  0.00    +0.003 A 
ATOM     20  C   LIG    1       29.473 -18.725   5.940  0.00  0.00    +0.001 A 
ATOM     21  C   LIG    1       28.379 -18.601   5.080  0.00  0.00    +0.013 A 
ENDBRANCH   7  15
TORSDOF 1
ENDMDL
MODEL 4
REMARK VINA RESULT:      -1.3      2.977      5.138
REMARK  Name = *****
REMARK                            x       y       z     vdW  Elec       q    Type
REMARK                         _______ _______ _______ _____ _____    ______ ____
ROOT
ATOM      1  C   LIG    1       21.978 -18.159   4.967  0.00  0.00    +0.138 C 
ATOM      2  N   LIG    1       23.198 -18.595   4.299  0.00  0.00    -0.272 N 
ATOM      3  C   LIG    1       23.212 -19.908   3.813  0.00  0.00    +0.241 C 
ATOM      4  O   LIG    1       22.271 -20.687   3.990  0.00  0.00    -0.273 OA
ATOM      5  C   LIG    1       24.402 -20.320   2.957  0.00  0.00    +0.238 C 
ATOM      6  N   LIG    1       25.588 -20.432   3.800  0.00  0.00    -0.273 NA
ATOM      7  C   LIG    1       26.097 -19.344   4.272  0.00  0.00    +0.078 C 
ATOM      8  C   LIG    1       25.593 -17.979   3.946  0.00  0.00    +0.023 A 
ATOM      9  C   LIG    1       26.553 -17.010   3.596  0.00  0.00    +0.032 A 
ATOM     10  C   LIG    1       26.169 -15.689   3.396  0.00  0.00    +0.042 A 
ATOM     11 CL   LIG    1       27.347 -14.507   2.984  0.00  0.00    -0.084 Cl
ATOM     12  C   LIG    1       24.839 -15.321   3.537  0.00  0.00    +0.022 A 
ATOM     13  C   LIG    1       23.879 -16.286   3.856  0.00  0.00    +0.025 A 
ATOM     14  C   LIG    1       24.228 -17.638   4.038  0.00  0.00    +0.045 A 
ENDROOT
BRANCH   7  15
ATOM     15  C   LIG    1       27.274 -19.486   5.185  0.00  0.00    +0.036 A 
ATOM     16  C   LIG    1       28.388 -18.650   5.086  0.00  0.00    +0.133 A 
ATOM     17  F   LIG    1       28.443 -17.674   4.169  0.00  0.00    -0.205 F 
ATOM     18  C   LIG    1       29.469 -18.799   5.952  0.00  0.00    +0.039 A 
ATOM     19  C   LIG    1       29.438 -19.783   6.940  0.00  0.00    +0.003 A 
ATOM     20  C   LIG    1       28.320 -20.611   7.062  0.00  0.00    +0.001 A 
ATOM     21  C   LIG    1       27.238 -20.460   6.192  0.00  0.00    +0.013 A 
ENDBRANCH   7  15
TORSDOF 1
ENDMDL
MODEL 5
REMARK VINA RESULT:      -1.1      3.211      5.453
REMARK  Name = *****
REMARK                            x       y       z     vdW  Elec       q    Type
REMARK                         _______ _______ _______ _____ _____    ______ ____
ROOT
ATOM      1  C   LIG    1       21.917 -16.609   5.397  0.00  0.00    +0.138 C 
ATOM      2  N   LIG    1       22.912 -17.260   4.555  0.00  0.00    -0.272 N 
ATOM      3  C   LIG    1       22.592 -18.536   4.077  0.00  0.00    +0.241 C 
ATOM      4  O   LIG    1       21.550 -19.118   4.396  0.00  0.00    -0.273 OA
ATOM      5  C   LIG    1       23.535 -19.153   3.053  0.00  0.00    +0.238 C 
ATOM      6  N   LIG    1       24.786 -19.521   3.709  0.00  0.00    -0.273 NA
ATOM      7  C   LIG    1       25.567 -18.569   4.096  0.00  0.00    +0.078 C 
ATOM      8  C   LIG    1       25.304 -17.123   3.845  0.00  0.00    +0.023 A 
ATOM      9  C   LIG    1       26.376 -16.354   3.352  0.00  0.00    +0.032 A 
ATOM     10  C   LIG    1       26.239 -14.979   3.207  0.00  0.00    +0.042 A 
ATOM     11 CL   LIG    1       27.556 -14.043   2.620  0.00  0.00    -0.084 Cl
ATOM     12  C   LIG    1       25.045 -14.358   3.545  0.00  0.00    +0.022 A 
ATOM     13  C   LIG    1       23.969 -15.122   4.008  0.00  0.00    +0.025 A 
ATOM     14  C   LIG    1       24.064 -16.520   4.140  0.00  0.00    +0.045 A 
ENDROOT
BRANCH   7  15
ATOM     15  C   LIG    1       26.812 -18.966   4.822  0.00  0.00    +0.036 A 
ATOM     16  C   LIG    1       26.875 -20.125   5.599  0.00  0.00    +0.133 A 
ATOM     17  F   LIG    1       25.816 -20.938   5.718  0.00  0.00    -0.205 F 
ATOM     18  C   LIG    1       28.050 -20.476   6.262  0.00  0.00    +0.039 A 
ATOM     19  C   LIG    1       29.183 -19.672   6.139  0.00  0.00    +0.003 A 
ATOM     20  C   LIG    1       29.139 -18.523   5.348  0.00  0.00    +0.001 A 
ATOM     21  C   LIG    1       27.960 -18.173   4.686  0.00  0.00    +0.013 A 
ENDBRANCH   7  15
TORSDOF 1
ENDMDL
