MODEL 1
REMARK VINA RESULT:      -5.0      0.000      0.000
REMARK  Name = *****
REMARK                            x       y       z     vdW  Elec       q    Type
REMARK                         _______ _______ _______ _____ _____    ______ ____
ROOT
ATOM      1  C   LIG    1       25.603 -14.219   3.588  0.00  0.00    +0.146 C 
ENDROOT
BRANCH   1   2
ATOM      2  C   LIG    1       26.310 -13.599   4.774  0.00  0.00    +0.032 C 
ATOM      3  C   LIG    1       27.574 -13.178   4.907  0.00  0.00    +0.079 C 
ATOM      4 CL   LIG    1       28.770 -13.175   3.685  0.00  0.00    -0.092 Cl
ENDBRANCH   1   2
BRANCH   1   6
ATOM      5  C   LIG    1       23.217 -15.128   4.404  0.00  0.00    +0.007 C 
ATOM      6  C   LIG    1       24.287 -14.719   4.037  0.00  0.00    -0.067 C 
ENDBRANCH   1   6
BRANCH   1   7
ATOM      7  O   LIG    1       26.322 -15.348   3.101  0.00  0.00    -0.373 OA
ATOM      8  H   LIG    1       26.471 -15.944   3.853  0.00  0.00    +0.212 HD
ENDBRANCH   1   7
BRANCH   1   9
ATOM      9  C   LIG    1       25.439 -13.232   2.414  0.00  0.00    +0.049 C 
ATOM     10  C   LIG    1       24.364 -12.166   2.591  0.00  0.00    +0.008 C 
ENDBRANCH   1   9
TORSDOF 4
ENDMDL
MODEL 2
REMARK VINA RESULT:      -4.9      6.078      6.948
REMARK  Name = *****
REMARK                            x       y       z     vdW  Elec       q    Type
REMARK                         _______ _______ _______ _____ _____    ______ ____
ROOT
ATOM      1  C   LIG    1       24.347 -20.261   4.235  0.00  0.00    +0.146 C 
ENDROOT
BRANCH   1   2
ATOM      2  C   LIG    1       25.104 -20.442   5.534  0.00  0.00    +0.032 C 
ATOM      3  C   LIG    1       24.699 -20.931   6.712  0.00  0.00    +0.079 C 
ATOM      4 CL   LIG    1       23.152 -21.570   7.061  0.00  0.00    -0.092 Cl
ENDBRANCH   1   2
BRANCH   1   6
ATOM      5  C   LIG    1       22.172 -18.770   4.718  0.00  0.00    +0.007 C 
ATOM      6  C   LIG    1       23.148 -19.439   4.503  0.00  0.00    -0.067 C 
ENDBRANCH   1   6
BRANCH   1   7
ATOM      7  O   LIG    1       23.880 -21.512   3.740  0.00  0.00    -0.373 OA
ATOM      8  H   LIG    1       23.544 -22.017   4.498  0.00  0.00    +0.212 HD
ENDBRANCH   1   7
BRANCH   1   9
ATOM      9  C   LIG    1       25.212 -19.619   3.130  0.00  0.00    +0.049 C 
ATOM     10  C   LIG    1       25.604 -18.163   3.360  0.00  0.00    +0.008 C 
ENDBRANCH   1   9
TORSDOF 4
ENDMDL
MODEL 3
REMARK VINA RESULT:      -4.9      2.203      3.699
REMARK  Name = *****
REMARK                            x       y       z     vdW  Elec       q    Type
REMARK                         _______ _______ _______ _____ _____    ______ ____
ROOT
ATOM      1  C   LIG    1       26.653 -14.551   3.254  0.00  0.00    +0.146 C 
ENDROOT
BRANCH   1   2
ATOM      2  C   LIG    1       25.368 -14.122   3.931  0.00  0.00    +0.032 C 
ATOM      3  C   LIG    1       24.508 -13.145   3.618  0.00  0.00    +0.079 C 
ATOM      4 CL   LIG    1       24.610 -12.108   2.263  0.00  0.00    -0.092 Cl
ENDBRANCH   1   2
BRANCH   1   6
ATOM      5  C   LIG    1       28.609 -12.884   4.017  0.00  0.00    +0.007 C 
ATOM      6  C   LIG    1       27.732 -13.631   3.673  0.00  0.00    -0.067 C 
ENDBRANCH   1   6
BRANCH   1   7
ATOM      7  O   LIG    1       26.547 -14.434   1.839  0.00  0.00    -0.373 OA
ATOM      8  H   LIG    1       26.019 -13.641   1.653  0.00  0.00    +0.212 HD
ENDBRANCH   1   7
BRANCH   1   9
ATOM      9  C   LIG    1       27.030 -16.013   3.572  0.00  0.00    +0.049 C 
ATOM     10  C   LIG    1       25.955 -17.053   3.272  0.00  0.00    +0.008 C 
ENDBRANCH   1   9
TORSDOF 4
ENDMDL
MODEL 4
REMARK VINA RESULT:      -4.7      6.278      7.224
REMARK  Name = *****
REMARK                            x       y       z     vdW  Elec       q    Type
REMARK                         _______ _______ _______ _____ _____    ______ ____
ROOT
ATOM      1  C   LIG    1       22.832 -20.534   4.977  0.00  0.00    +0.146 C 
ENDROOT
BRANCH   1   2
ATOM      2  C   LIG    1       23.714 -20.635   3.750  0.00  0.00    +0.032 C 
ATOM      3  C   LIG    1       25.003 -20.314   3.580  0.00  0.00    +0.079 C 
ATOM      4 CL   LIG    1       26.064 -19.731   4.786  0.00  0.00    -0.092 Cl
ENDBRANCH   1   2
BRANCH   1   6
ATOM      5  C   LIG    1       24.160 -21.571   7.061  0.00  0.00    +0.007 C 
ATOM      6  C   LIG    1       23.563 -21.106   6.127  0.00  0.00    -0.067 C 
ENDBRANCH   1   6
BRANCH   1   7
ATOM      7  O   LIG    1       21.650 -21.312   4.819  0.00  0.00    -0.373 OA
ATOM      8  H   LIG    1       21.201 -21.335   5.679  0.00  0.00    +0.212 HD
ENDBRANCH   1   7
BRANCH   1   9
ATOM      9  C   LIG    1       22.397 -19.083   5.274  0.00  0.00    +0.049 C 
ATOM     10  C   LIG    1       21.975 -18.258   4.063  0.00  0.00    +0.008 C 
ENDBRANCH   1   9
TORSDOF 4
ENDMDL
MODEL 5
REMARK VINA RESULT:      -4.7      5.798      6.785
REMARK  Name = *****
REMARK                            x       y       z     vdW  Elec       q    Type
REMARK                         _______ _______ _______ _____ _____    ______ ____
ROOT
ATOM      1  C   LIG    1       23.886 -20.430   4.777  0.00  0.00    +0.146 C 
ENDROOT
BRANCH   1   2
ATOM      2  C   LIG    1       23.978 -20.759   6.253  0.00  0.00    +0.032 C 
ATOM      3  C   LIG    1       25.042 -20.820   7.062  0.00  0.00    +0.079 C 
ATOM      4 CL   LIG    1       26.658 -20.466   6.632  0.00  0.00    -0.092 Cl
ENDBRANCH   1   2
BRANCH   1   6
ATOM      5  C   LIG    1       21.990 -18.565   4.438  0.00  0.00    +0.007 C 
ATOM      6  C   LIG    1       22.840 -19.402   4.591  0.00  0.00    -0.067 C 
ENDBRANCH   1   6
BRANCH   1   7
ATOM      7  O   LIG    1       23.475 -21.568   4.027  0.00  0.00    -0.373 OA
ATOM      8  H   LIG    1       24.257 -22.130   3.900  0.00  0.00    +0.212 HD
ENDBRANCH   1   7
BRANCH   1   9
ATOM      9  C   LIG    1       25.231 -19.950   4.193  0.00  0.00    +0.049 C 
ATOM     10  C   LIG    1       25.189 -18.626   3.438  0.00  0.00    +0.008 C 
ENDBRANCH   1   9
TORSDOF 4
ENDMDL
MODEL 6
REMARK VINA RESULT:      -4.6      1.223      2.055
REMARK  Name = *****
REMARK                            x       y       z     vdW  Elec       q    Type
REMARK                         _______ _______ _______ _____ _____    ______ ____
ROOT
ATOM      1  C   LIG    1       25.595 -14.054   3.605  0.00  0.00    +0.146 C 
ENDROOT
BRANCH   1   2
ATOM      2  C   LIG    1       26.303 -13.517   4.831  0.00  0.00    +0.032 C 
ATOM      3  C   LIG    1       27.580 -13.154   5.005  0.00  0.00    +0.079 C 
ATOM      4 CL   LIG    1       28.798 -13.143   3.805  0.00  0.00    -0.092 Cl
ENDBRANCH   1   2
BRANCH   1   6
ATOM      5  C   LIG    1       26.296 -16.620   3.278  0.00  0.00    +0.007 C 
ATOM      6  C   LIG    1       25.980 -15.469   3.424  0.00  0.00    -0.067 C 
ENDBRANCH   1   6
BRANCH   1   7
ATOM      7  O   LIG    1       26.017 -13.365   2.432  0.00  0.00    -0.373 OA
ATOM      8  H   LIG    1       25.219 -13.069   1.966  0.00  0.00    +0.212 HD
ENDBRANCH   1   7
BRANCH   1   9
ATOM      9  C   LIG    1       24.061 -13.913   3.698  0.00  0.00    +0.049 C 
ATOM     10  C   LIG    1       23.348 -14.989   4.510  0.00  0.00    +0.008 C 
ENDBRANCH   1   9
TORSDOF 4
ENDMDL
MODEL 7
REMARK VINA RESULT:      -4.6      6.258      6.820
REMARK  Name = *****
REMARK                            x       y       z     vdW  Elec       q    Type
REMARK                         _______ _______ _______ _____ _____    ______ ____
ROOT
ATOM      1  C   LIG    1       24.031 -20.293   4.464  0.00  0.00    +0.146 C 
ENDROOT
BRANCH   1   2
ATOM      2  C   LIG    1       25.453 -19.774   4.499  0.00  0.00    +0.032 C 
ATOM      3  C   LIG    1       26.498 -20.156   5.244  0.00  0.00    +0.079 C 
ATOM      4 CL   LIG    1       26.516 -21.442   6.370  0.00  0.00    -0.092 Cl
ENDBRANCH   1   2
BRANCH   1   6
ATOM      5  C   LIG    1       23.187 -20.633   6.985  0.00  0.00    +0.007 C 
ATOM      6  C   LIG    1       23.568 -20.481   5.854  0.00  0.00    -0.067 C 
ENDBRANCH   1   6
BRANCH   1   7
ATOM      7  O   LIG    1       23.972 -21.572   3.840  0.00  0.00    -0.373 OA
ATOM      8  H   LIG    1       24.856 -21.968   3.906  0.00  0.00    +0.212 HD
ENDBRANCH   1   7
BRANCH   1   9
ATOM      9  C   LIG    1       23.078 -19.356   3.693  0.00  0.00    +0.049 C 
ATOM     10  C   LIG    1       22.360 -18.306   4.534  0.00  0.00    +0.008 C 
ENDBRANCH   1   9
TORSDOF 4
ENDMDL
MODEL 8
REMARK VINA RESULT:      -4.5      6.084      7.441
REMARK  Name = *****
REMARK                            x       y       z     vdW  Elec       q    Type
REMARK                         _______ _______ _______ _____ _____    ______ ____
ROOT
ATOM      1  C   LIG    1       24.422 -20.712   4.737  0.00  0.00    +0.146 C 
ENDROOT
BRANCH   1   2
ATOM      2  C   LIG    1       23.331 -20.215   5.663  0.00  0.00    +0.032 C 
ATOM      3  C   LIG    1       22.331 -19.355   5.439  0.00  0.00    +0.079 C 
ATOM      4 CL   LIG    1       21.966 -18.596   3.952  0.00  0.00    -0.092 Cl
ENDBRANCH   1   2
BRANCH   1   6
ATOM      5  C   LIG    1       25.473 -18.605   3.456  0.00  0.00    +0.007 C 
ATOM      6  C   LIG    1       25.000 -19.551   4.030  0.00  0.00    -0.067 C 
ENDBRANCH   1   6
BRANCH   1   7
ATOM      7  O   LIG    1       23.886 -21.572   3.736  0.00  0.00    -0.373 OA
ATOM      8  H   LIG    1       23.597 -21.012   2.997  0.00  0.00    +0.212 HD
ENDBRANCH   1   7
BRANCH   1   9
ATOM      9  C   LIG    1       25.520 -21.498   5.484  0.00  0.00    +0.049 C 
ATOM     10  C   LIG    1       26.190 -20.761   6.639  0.00  0.00    +0.008 C 
ENDBRANCH   1   9
TORSDOF 4
ENDMDL
MODEL 9
REMARK VINA RESULT:      -4.5      2.527      3.434
REMARK  Name = *****
REMARK                            x       y       z     vdW  Elec       q    Type
REMARK                         _______ _______ _______ _____ _____    ______ ____
ROOT
ATOM      1  C   LIG    1       26.433 -14.026   3.665  0.00  0.00    +0.146 C 
ENDROOT
BRANCH   1   2
ATOM      2  C   LIG    1       25.165 -13.400   3.125  0.00  0.00    +0.032 C 
ATOM      3  C   LIG    1       23.882 -13.686   3.378  0.00  0.00    +0.079 C 
ATOM      4 CL   LIG    1       23.308 -14.856   4.485  0.00  0.00    -0.092 Cl
ENDBRANCH   1   2
BRANCH   1   6
ATOM      5  C   LIG    1       26.292 -16.679   3.310  0.00  0.00    +0.007 C 
ATOM      6  C   LIG    1       26.354 -15.489   3.469  0.00  0.00    -0.067 C 
ENDBRANCH   1   6
BRANCH   1   7
ATOM      7  O   LIG    1       26.550 -13.810   5.067  0.00  0.00    -0.373 OA
ATOM      8  H   LIG    1       27.135 -13.046   5.196  0.00  0.00    +0.212 HD
ENDBRANCH   1   7
BRANCH   1   9
ATOM      9  C   LIG    1       27.704 -13.456   3.000  0.00  0.00    +0.049 C 
ATOM     10  C   LIG    1       28.760 -12.907   3.954  0.00  0.00    +0.008 C 
ENDBRANCH   1   9
TORSDOF 4
ENDMDL
