MODEL 1
REMARK VINA RESULT:      -8.6      0.000      0.000
REMARK  Name = *****
REMARK                            x       y       z     vdW  Elec       q    Type
REMARK                         _______ _______ _______ _____ _____    ______ ____
ROOT
ATOM      1  C   LIG    1       21.418 -20.950   4.378  0.00  0.00    +0.105 C 
ATOM      2  N   LIG    1       22.158 -19.878   5.025  0.00  0.00    -0.299 NA
ATOM      3  C   LIG    1       22.868 -20.264   6.256  0.00  0.00    +0.119 C 
ATOM      4  C   LIG    1       23.573 -21.614   6.260  0.00  0.00    -0.027 A 
ATOM      5  C   LIG    1       24.880 -21.843   5.771  0.00  0.00    -0.010 A 
ATOM      6  C   LIG    1       25.404 -23.156   5.836  0.00  0.00    +0.007 A 
ATOM      7  C   LIG    1       24.670 -24.217   6.364  0.00  0.00    +0.000 A 
ATOM      8  C   LIG    1       23.390 -23.992   6.844  0.00  0.00    +0.000 A 
ATOM      9  C   LIG    1       25.812 -20.777   5.188  0.00  0.00    +0.179 C 
ATOM     10  O   LIG    1       25.189 -19.551   4.827  0.00  0.00    -0.366 OA
ATOM     11  C   LIG    1       24.322 -19.660   3.701  0.00  0.00    +0.176 C 
ATOM     12  C   LIG    1       22.851 -22.707   6.794  0.00  0.00    +0.005 A 
ATOM     13  C   LIG    1       22.960 -19.080   4.088  0.00  0.00    +0.112 C 
ENDROOT
BRANCH   9  14
ATOM     14  C   LIG    1       26.965 -20.411   6.116  0.00  0.00    -0.015 A 
ATOM     15  C   LIG    1       28.155 -19.884   5.582  0.00  0.00    +0.006 A 
ATOM     16  C   LIG    1       29.215 -19.528   6.417  0.00  0.00    +0.000 A 
ATOM     17  C   LIG    1       29.102 -19.687   7.796  0.00  0.00    +0.000 A 
ATOM     18  C   LIG    1       27.925 -20.194   8.343  0.00  0.00    +0.000 A 
ATOM     19  C   LIG    1       26.862 -20.548   7.509  0.00  0.00    +0.006 A 
ENDBRANCH   9  14
TORSDOF 1
ENDMDL
MODEL 2
REMARK VINA RESULT:      -7.5      2.025      4.751
REMARK  Name = *****
REMARK                            x       y       z     vdW  Elec       q    Type
REMARK                         _______ _______ _______ _____ _____    ______ ____
ROOT
ATOM      1  C   LIG    1       22.912 -19.564   5.588  0.00  0.00    +0.105 C 
ATOM      2  N   LIG    1       22.777 -20.783   4.806  0.00  0.00    -0.299 NA
ATOM      3  C   LIG    1       24.047 -21.396   4.383  0.00  0.00    +0.119 C 
ATOM      4  C   LIG    1       25.185 -21.413   5.394  0.00  0.00    -0.027 A 
ATOM      5  C   LIG    1       25.366 -22.403   6.388  0.00  0.00    -0.010 A 
ATOM      6  C   LIG    1       26.471 -22.285   7.264  0.00  0.00    +0.007 A 
ATOM      7  C   LIG    1       27.374 -21.228   7.173  0.00  0.00    +0.000 A 
ATOM      8  C   LIG    1       27.198 -20.259   6.198  0.00  0.00    +0.000 A 
ATOM      9  C   LIG    1       24.474 -23.631   6.595  0.00  0.00    +0.179 C 
ATOM     10  O   LIG    1       23.209 -23.584   5.947  0.00  0.00    -0.366 OA
ATOM     11  C   LIG    1       22.316 -22.623   6.505  0.00  0.00    +0.176 C 
ATOM     12  C   LIG    1       26.119 -20.353   5.320  0.00  0.00    +0.005 A 
ATOM     13  C   LIG    1       21.807 -21.730   5.372  0.00  0.00    +0.112 C 
ENDROOT
BRANCH   9  14
ATOM     14  C   LIG    1       25.130 -24.934   6.154  0.00  0.00    -0.015 A 
ATOM     15  C   LIG    1       25.106 -25.307   4.798  0.00  0.00    +0.006 A 
ATOM     16  C   LIG    1       25.716 -26.488   4.373  0.00  0.00    +0.000 A 
ATOM     17  C   LIG    1       26.363 -27.311   5.291  0.00  0.00    +0.000 A 
ATOM     18  C   LIG    1       26.409 -26.950   6.636  0.00  0.00    +0.000 A 
ATOM     19  C   LIG    1       25.803 -25.766   7.063  0.00  0.00    +0.006 A 
ENDBRANCH   9  14
TORSDOF 1
ENDMDL
MODEL 3
REMARK VINA RESULT:      -7.5      1.918      4.764
REMARK  Name = *****
REMARK                            x       y       z     vdW  Elec       q    Type
REMARK                         _______ _______ _______ _____ _____    ______ ____
ROOT
ATOM      1  C   LIG    1       23.004 -19.323   5.297  0.00  0.00    +0.105 C 
ATOM      2  N   LIG    1       22.846 -20.580   4.581  0.00  0.00    -0.299 NA
ATOM      3  C   LIG    1       24.105 -21.239   4.196  0.00  0.00    +0.119 C 
ATOM      4  C   LIG    1       25.239 -21.225   5.211  0.00  0.00    -0.027 A 
ATOM      5  C   LIG    1       25.398 -22.163   6.257  0.00  0.00    -0.010 A 
ATOM      6  C   LIG    1       26.503 -22.021   7.130  0.00  0.00    +0.007 A 
ATOM      7  C   LIG    1       27.427 -20.988   6.985  0.00  0.00    +0.000 A 
ATOM      8  C   LIG    1       27.273 -20.069   5.960  0.00  0.00    +0.000 A 
ATOM      9  C   LIG    1       24.481 -23.361   6.526  0.00  0.00    +0.179 C 
ATOM     10  O   LIG    1       23.219 -23.323   5.871  0.00  0.00    -0.366 OA
ATOM     11  C   LIG    1       22.344 -22.316   6.374  0.00  0.00    +0.176 C 
ATOM     12  C   LIG    1       26.194 -20.189   5.084  0.00  0.00    +0.005 A 
ATOM     13  C   LIG    1       21.856 -21.475   5.193  0.00  0.00    +0.112 C 
ENDROOT
BRANCH   9  14
ATOM     14  C   LIG    1       25.112 -24.698   6.158  0.00  0.00    -0.015 A 
ATOM     15  C   LIG    1       25.674 -25.509   7.160  0.00  0.00    +0.006 A 
ATOM     16  C   LIG    1       26.242 -26.744   6.844  0.00  0.00    +0.000 A 
ATOM     17  C   LIG    1       26.252 -27.192   5.525  0.00  0.00    +0.000 A 
ATOM     18  C   LIG    1       25.686 -26.409   4.522  0.00  0.00    +0.000 A 
ATOM     19  C   LIG    1       25.114 -25.173   4.836  0.00  0.00    +0.006 A 
ENDBRANCH   9  14
TORSDOF 1
ENDMDL
MODEL 4
REMARK VINA RESULT:      -7.4      1.398      4.540
REMARK  Name = *****
REMARK                            x       y       z     vdW  Elec       q    Type
REMARK                         _______ _______ _______ _____ _____    ______ ____
ROOT
ATOM      1  C   LIG    1       23.987 -18.083   4.153  0.00  0.00    +0.105 C 
ATOM      2  N   LIG    1       23.590 -19.416   3.725  0.00  0.00    -0.299 NA
ATOM      3  C   LIG    1       24.676 -20.409   3.690  0.00  0.00    +0.119 C 
ATOM      4  C   LIG    1       25.682 -20.382   4.833  0.00  0.00    -0.027 A 
ATOM      5  C   LIG    1       25.508 -21.034   6.076  0.00  0.00    -0.010 A 
ATOM      6  C   LIG    1       26.530 -20.917   7.048  0.00  0.00    +0.007 A 
ATOM      7  C   LIG    1       27.690 -20.181   6.812  0.00  0.00    +0.000 A 
ATOM      8  C   LIG    1       27.861 -19.544   5.593  0.00  0.00    +0.000 A 
ATOM      9  C   LIG    1       24.304 -21.894   6.470  0.00  0.00    +0.179 C 
ATOM     10  O   LIG    1       23.155 -21.752   5.644  0.00  0.00    -0.366 OA
ATOM     11  C   LIG    1       22.513 -20.485   5.769  0.00  0.00    +0.176 C 
ATOM     12  C   LIG    1       26.871 -19.646   4.617  0.00  0.00    +0.005 A 
ATOM     13  C   LIG    1       22.358 -19.888   4.370  0.00  0.00    +0.112 C 
ENDROOT
BRANCH   9  14
ATOM     14  C   LIG    1       24.615 -23.386   6.512  0.00  0.00    -0.015 A 
ATOM     15  C   LIG    1       23.589 -24.323   6.299  0.00  0.00    +0.006 A 
ATOM     16  C   LIG    1       23.859 -25.692   6.317  0.00  0.00    +0.000 A 
ATOM     17  C   LIG    1       25.156 -26.146   6.542  0.00  0.00    +0.000 A 
ATOM     18  C   LIG    1       26.187 -25.232   6.740  0.00  0.00    +0.000 A 
ATOM     19  C   LIG    1       25.921 -23.860   6.719  0.00  0.00    +0.006 A 
ENDBRANCH   9  14
TORSDOF 1
ENDMDL
MODEL 5
REMARK VINA RESULT:      -7.0      2.002      4.894
REMARK  Name = *****
REMARK                            x       y       z     vdW  Elec       q    Type
REMARK                         _______ _______ _______ _____ _____    ______ ____
ROOT
ATOM      1  C   LIG    1       25.905 -25.219   7.121  0.00  0.00    +0.105 C 
ATOM      2  N   LIG    1       24.588 -24.718   6.761  0.00  0.00    -0.299 NA
ATOM      3  C   LIG    1       24.271 -23.374   7.272  0.00  0.00    +0.119 C 
ATOM      4  C   LIG    1       25.380 -22.332   7.229  0.00  0.00    -0.027 A 
ATOM      5  C   LIG    1       25.685 -21.525   6.108  0.00  0.00    -0.010 A 
ATOM      6  C   LIG    1       26.751 -20.599   6.214  0.00  0.00    +0.007 A 
ATOM      7  C   LIG    1       27.499 -20.467   7.382  0.00  0.00    +0.000 A 
ATOM      8  C   LIG    1       27.199 -21.257   8.480  0.00  0.00    +0.000 A 
ATOM      9  C   LIG    1       24.940 -21.540   4.770  0.00  0.00    +0.179 C 
ATOM     10  O   LIG    1       24.101 -22.667   4.551  0.00  0.00    -0.366 OA
ATOM     11  C   LIG    1       24.817 -23.886   4.366  0.00  0.00    +0.176 C 
ATOM     12  C   LIG    1       26.152 -22.174   8.404  0.00  0.00    +0.005 A 
ATOM     13  C   LIG    1       24.258 -24.920   5.344  0.00  0.00    +0.112 C 
ENDROOT
BRANCH   9  14
ATOM     14  C   LIG    1       24.066 -20.310   4.553  0.00  0.00    -0.015 A 
ATOM     15  C   LIG    1       22.820 -20.212   5.196  0.00  0.00    +0.006 A 
ATOM     16  C   LIG    1       22.014 -19.086   5.022  0.00  0.00    +0.000 A 
ATOM     17  C   LIG    1       22.441 -18.040   4.209  0.00  0.00    +0.000 A 
ATOM     18  C   LIG    1       23.679 -18.113   3.575  0.00  0.00    +0.000 A 
ATOM     19  C   LIG    1       24.490 -19.237   3.751  0.00  0.00    +0.006 A 
ENDBRANCH   9  14
TORSDOF 1
ENDMDL
MODEL 6
REMARK VINA RESULT:      -6.7      2.034      3.705
REMARK  Name = *****
REMARK                            x       y       z     vdW  Elec       q    Type
REMARK                         _______ _______ _______ _____ _____    ______ ____
ROOT
ATOM      1  C   LIG    1       23.393 -24.866   6.134  0.00  0.00    +0.105 C 
ATOM      2  N   LIG    1       24.779 -24.692   5.725  0.00  0.00    -0.299 NA
ATOM      3  C   LIG    1       25.057 -23.454   4.979  0.00  0.00    +0.119 C 
ATOM      4  C   LIG    1       24.372 -22.181   5.459  0.00  0.00    -0.027 A 
ATOM      5  C   LIG    1       24.861 -21.339   6.484  0.00  0.00    -0.010 A 
ATOM      6  C   LIG    1       24.112 -20.188   6.826  0.00  0.00    +0.007 A 
ATOM      7  C   LIG    1       22.916 -19.870   6.186  0.00  0.00    +0.000 A 
ATOM      8  C   LIG    1       22.437 -20.695   5.180  0.00  0.00    +0.000 A 
ATOM      9  C   LIG    1       26.167 -21.544   7.258  0.00  0.00    +0.179 C 
ATOM     10  O   LIG    1       26.745 -22.838   7.149  0.00  0.00    -0.366 OA
ATOM     11  C   LIG    1       25.992 -23.858   7.802  0.00  0.00    +0.176 C 
ATOM     12  C   LIG    1       23.158 -21.833   4.821  0.00  0.00    +0.005 A 
ATOM     13  C   LIG    1       25.739 -24.983   6.797  0.00  0.00    +0.112 C 
ENDROOT
BRANCH   9  14
ATOM     14  C   LIG    1       27.260 -20.555   6.870  0.00  0.00    -0.015 A 
ATOM     15  C   LIG    1       28.275 -20.235   7.789  0.00  0.00    +0.006 A 
ATOM     16  C   LIG    1       29.293 -19.345   7.446  0.00  0.00    +0.000 A 
ATOM     17  C   LIG    1       29.319 -18.766   6.179  0.00  0.00    +0.000 A 
ATOM     18  C   LIG    1       28.330 -19.084   5.251  0.00  0.00    +0.000 A 
ATOM     19  C   LIG    1       27.311 -19.977   5.591  0.00  0.00    +0.006 A 
ENDBRANCH   9  14
TORSDOF 1
ENDMDL
MODEL 7
REMARK VINA RESULT:      -6.4      6.655      9.285
REMARK  Name = *****
REMARK                            x       y       z     vdW  Elec       q    Type
REMARK                         _______ _______ _______ _____ _____    ______ ____
ROOT
ATOM      1  C   LIG    1       24.151 -32.683   9.646  0.00  0.00    +0.105 C 
ATOM      2  N   LIG    1       23.375 -31.852   8.739  0.00  0.00    -0.299 NA
ATOM      3  C   LIG    1       23.288 -30.432   9.117  0.00  0.00    +0.119 C 
ATOM      4  C   LIG    1       24.551 -29.774   9.657  0.00  0.00    -0.027 A 
ATOM      5  C   LIG    1       25.570 -29.207   8.858  0.00  0.00    -0.010 A 
ATOM      6  C   LIG    1       26.692 -28.633   9.502  0.00  0.00    +0.007 A 
ATOM      7  C   LIG    1       26.815 -28.616  10.890  0.00  0.00    +0.000 A 
ATOM      8  C   LIG    1       25.815 -29.170  11.673  0.00  0.00    +0.000 A 
ATOM      9  C   LIG    1       25.564 -29.130   7.328  0.00  0.00    +0.179 C 
ATOM     10  O   LIG    1       24.621 -29.973   6.678  0.00  0.00    -0.366 OA
ATOM     11  C   LIG    1       24.928 -31.362   6.782  0.00  0.00    +0.176 C 
ATOM     12  C   LIG    1       24.698 -29.740  11.064  0.00  0.00    +0.005 A 
ATOM     13  C   LIG    1       23.694 -32.084   7.325  0.00  0.00    +0.112 C 
ENDROOT
BRANCH   9  14
ATOM     14  C   LIG    1       25.315 -27.724   6.796  0.00  0.00    -0.015 A 
ATOM     15  C   LIG    1       26.169 -26.671   7.169  0.00  0.00    +0.006 A 
ATOM     16  C   LIG    1       25.967 -25.380   6.679  0.00  0.00    +0.000 A 
ATOM     17  C   LIG    1       24.914 -25.121   5.805  0.00  0.00    +0.000 A 
ATOM     18  C   LIG    1       24.067 -26.155   5.413  0.00  0.00    +0.000 A 
ATOM     19  C   LIG    1       24.269 -27.449   5.899  0.00  0.00    +0.006 A 
ENDBRANCH   9  14
TORSDOF 1
ENDMDL
MODEL 8
REMARK VINA RESULT:      -6.4      7.462     10.231
REMARK  Name = *****
REMARK                            x       y       z     vdW  Elec       q    Type
REMARK                         _______ _______ _______ _____ _____    ______ ____
ROOT
ATOM      1  C   LIG    1       25.350 -33.481   9.610  0.00  0.00    +0.105 C 
ATOM      2  N   LIG    1       25.585 -32.097   9.991  0.00  0.00    -0.299 NA
ATOM      3  C   LIG    1       26.489 -31.351   9.100  0.00  0.00    +0.119 C 
ATOM      4  C   LIG    1       26.337 -31.580   7.602  0.00  0.00    -0.027 A 
ATOM      5  C   LIG    1       25.416 -30.902   6.771  0.00  0.00    -0.010 A 
ATOM      6  C   LIG    1       25.385 -31.224   5.393  0.00  0.00    +0.007 A 
ATOM      7  C   LIG    1       26.232 -32.185   4.843  0.00  0.00    +0.000 A 
ATOM      8  C   LIG    1       27.135 -32.849   5.657  0.00  0.00    +0.000 A 
ATOM      9  C   LIG    1       24.443 -29.809   7.225  0.00  0.00    +0.179 C 
ATOM     10  O   LIG    1       24.245 -29.713   8.630  0.00  0.00    -0.366 OA
ATOM     11  C   LIG    1       23.536 -30.820   9.184  0.00  0.00    +0.176 C 
ATOM     12  C   LIG    1       27.188 -32.548   7.017  0.00  0.00    +0.005 A 
ATOM     13  C   LIG    1       24.356 -31.377  10.349  0.00  0.00    +0.112 C 
ENDROOT
BRANCH   9  14
ATOM     14  C   LIG    1       24.841 -28.414   6.756  0.00  0.00    -0.015 A 
ATOM     15  C   LIG    1       24.158 -27.813   5.685  0.00  0.00    +0.006 A 
ATOM     16  C   LIG    1       24.497 -26.530   5.252  0.00  0.00    +0.000 A 
ATOM     17  C   LIG    1       25.518 -25.826   5.885  0.00  0.00    +0.000 A 
ATOM     18  C   LIG    1       26.196 -26.401   6.958  0.00  0.00    +0.000 A 
ATOM     19  C   LIG    1       25.856 -27.683   7.395  0.00  0.00    +0.006 A 
ENDBRANCH   9  14
TORSDOF 1
ENDMDL
MODEL 9
REMARK VINA RESULT:      -6.1      9.337     11.156
REMARK  Name = *****
REMARK                            x       y       z     vdW  Elec       q    Type
REMARK                         _______ _______ _______ _____ _____    ______ ____
ROOT
ATOM      1  C   LIG    1       28.756 -29.608  11.770  0.00  0.00    +0.105 C 
ATOM      2  N   LIG    1       28.074 -28.603  12.571  0.00  0.00    -0.299 NA
ATOM      3  C   LIG    1       27.046 -27.829  11.856  0.00  0.00    +0.119 C 
ATOM      4  C   LIG    1       26.147 -28.587  10.889  0.00  0.00    -0.027 A 
ATOM      5  C   LIG    1       24.968 -29.276  11.256  0.00  0.00    -0.010 A 
ATOM      6  C   LIG    1       24.234 -29.943  10.246  0.00  0.00    +0.007 A 
ATOM      7  C   LIG    1       24.643 -29.937   8.913  0.00  0.00    +0.000 A 
ATOM      8  C   LIG    1       25.797 -29.260   8.554  0.00  0.00    +0.000 A 
ATOM      9  C   LIG    1       24.383 -29.351  12.669  0.00  0.00    +0.179 C 
ATOM     10  O   LIG    1       25.266 -28.969  13.717  0.00  0.00    -0.366 OA
ATOM     11  C   LIG    1       26.339 -29.886  13.923  0.00  0.00    +0.176 C 
ATOM     12  C   LIG    1       26.537 -28.593   9.529  0.00  0.00    +0.005 A 
ATOM     13  C   LIG    1       27.651 -29.101  13.887  0.00  0.00    +0.112 C 
ENDROOT
BRANCH   9  14
ATOM     14  C   LIG    1       23.124 -28.510  12.847  0.00  0.00    -0.015 A 
ATOM     15  C   LIG    1       23.231 -27.152  13.197  0.00  0.00    +0.006 A 
ATOM     16  C   LIG    1       22.091 -26.362  13.347  0.00  0.00    +0.000 A 
ATOM     17  C   LIG    1       20.828 -26.913  13.145  0.00  0.00    +0.000 A 
ATOM     18  C   LIG    1       20.704 -28.252  12.783  0.00  0.00    +0.000 A 
ATOM     19  C   LIG    1       21.844 -29.044  12.628  0.00  0.00    +0.006 A 
ENDBRANCH   9  14
TORSDOF 1
ENDMDL
