MODEL 1
REMARK VINA RESULT:     -10.6      0.000      0.000
REMARK  Name = *****
REMARK                            x       y       z     vdW  Elec       q    Type
REMARK                         _______ _______ _______ _____ _____    ______ ____
ROOT
ATOM      1  C   LIG    1       24.980 -21.129   5.805  0.00  0.00    +0.021 C 
ATOM      2  C   LIG    1       25.135 -20.428   4.420  0.00  0.00    +0.016 C 
ATOM      3  C   LIG    1       23.860 -20.221   3.598  0.00  0.00    +0.001 C 
ATOM      4  C   LIG    1       22.687 -19.652   4.389  0.00  0.00    +0.000 C 
ATOM      5  C   LIG    1       22.444 -20.366   5.701  0.00  0.00    +0.001 C 
ATOM      6  C   LIG    1       23.722 -20.516   6.534  0.00  0.00    +0.016 C 
ENDROOT
BRANCH   1  10
ATOM      7  C   LIG    1       24.198 -25.557   5.760  0.00  0.00    +0.122 A 
ATOM      8  C   LIG    1       24.721 -24.947   4.633  0.00  0.00    +0.046 A 
ATOM      9  C   LIG    1       24.987 -23.541   4.602  0.00  0.00    +0.008 A 
ATOM     10  C   LIG    1       24.733 -22.671   5.676  0.00  0.00    -0.037 A 
ATOM     11  C   LIG    1       24.202 -23.348   6.736  0.00  0.00    +0.008 A 
ATOM     12  C   LIG    1       23.985 -24.702   6.805  0.00  0.00    +0.046 A 
BRANCH   7  13
ATOM     13  O   LIG    1       23.996 -26.910   5.773  0.00  0.00    -0.475 OA
BRANCH  13  14
ATOM     14  C   LIG    1       25.083 -27.876   5.990  0.00  0.00    +0.203 C 
ATOM     15  C   LIG    1       26.302 -27.446   5.141  0.00  0.00    +0.068 C 
BRANCH  14  17
ATOM     16  C   LIG    1       25.367 -29.256   8.303  0.00  0.00    +0.008 C 
ATOM     17  C   LIG    1       25.494 -28.024   7.465  0.00  0.00    +0.056 C 
ENDBRANCH  14  17
BRANCH  14  18
ATOM     18  C   LIG    1       24.544 -29.219   5.478  0.00  0.00    +0.349 C 
ATOM     19  O   LIG    1       25.268 -30.106   5.095  0.00  0.00    -0.246 OA
BRANCH  18  20
ATOM     20  O   LIG    1       23.204 -29.381   5.448  0.00  0.00    -0.478 OA
ATOM     21  H   LIG    1       22.870 -30.236   5.116  0.00  0.00    +0.295 HD
ENDBRANCH  18  20
ENDBRANCH  14  18
ENDBRANCH  13  14
ENDBRANCH   7  13
ENDBRANCH   1  10
BRANCH   1  22
ATOM     22  C   LIG    1       26.326 -20.745   6.609  0.00  0.00    -0.037 A 
ATOM     23  C   LIG    1       27.431 -20.269   5.926  0.00  0.00    +0.008 A 
ATOM     24  C   LIG    1       28.557 -19.780   6.597  0.00  0.00    +0.046 A 
ATOM     25  C   LIG    1       28.592 -19.597   7.971  0.00  0.00    +0.122 A 
ATOM     26  C   LIG    1       27.628 -20.275   8.679  0.00  0.00    +0.046 A 
ATOM     27  C   LIG    1       26.627 -20.963   7.973  0.00  0.00    +0.008 A 
BRANCH  25  28
ATOM     28  O   LIG    1       29.499 -18.867   8.687  0.00  0.00    -0.475 OA
BRANCH  28  29
ATOM     29  C   LIG    1       30.921 -19.117   8.546  0.00  0.00    +0.203 C 
ATOM     30  C   LIG    1       31.342 -19.075   7.070  0.00  0.00    +0.068 C 
BRANCH  29  31
ATOM     31  C   LIG    1       31.177 -20.605   8.974  0.00  0.00    +0.349 C 
ATOM     32  O   LIG    1       30.855 -21.077  10.017  0.00  0.00    -0.246 OA
BRANCH  31  33
ATOM     33  O   LIG    1       31.766 -21.344   8.007  0.00  0.00    -0.478 OA
ATOM     34  H   LIG    1       31.741 -20.941   7.132  0.00  0.00    +0.295 HD
ENDBRANCH  31  33
ENDBRANCH  29  31
BRANCH  29  35
ATOM     35  C   LIG    1       31.790 -18.242   9.490  0.00  0.00    +0.056 C 
ATOM     36  C   LIG    1       30.985 -17.499  10.551  0.00  0.00    +0.008 C 
ENDBRANCH  29  35
ENDBRANCH  28  29
ENDBRANCH  25  28
ENDBRANCH   1  22
TORSDOF 12
ENDMDL
MODEL 2
REMARK VINA RESULT:     -10.3      0.784      8.676
REMARK  Name = *****
REMARK                            x       y       z     vdW  Elec       q    Type
REMARK                         _______ _______ _______ _____ _____    ______ ____
ROOT
ATOM      1  C   LIG    1       24.824 -21.707   5.724  0.00  0.00    +0.021 C 
ATOM      2  C   LIG    1       23.492 -21.340   6.446  0.00  0.00    +0.016 C 
ATOM      3  C   LIG    1       22.923 -19.942   6.188  0.00  0.00    +0.001 C 
ATOM      4  C   LIG    1       22.899 -19.533   4.720  0.00  0.00    +0.000 C 
ATOM      5  C   LIG    1       24.208 -19.788   4.003  0.00  0.00    +0.001 C 
ATOM      6  C   LIG    1       24.735 -21.211   4.229  0.00  0.00    +0.016 C 
ENDROOT
BRANCH   1  10
ATOM      7  C   LIG    1       28.251 -19.737   7.869  0.00  0.00    +0.122 A 
ATOM      8  C   LIG    1       28.245 -19.773   6.485  0.00  0.00    +0.046 A 
ATOM      9  C   LIG    1       27.175 -20.388   5.760  0.00  0.00    +0.008 A 
ATOM     10  C   LIG    1       26.071 -21.010   6.368  0.00  0.00    -0.037 A 
ATOM     11  C   LIG    1       26.166 -20.948   7.729  0.00  0.00    +0.008 A 
ATOM     12  C   LIG    1       27.157 -20.321   8.443  0.00  0.00    +0.046 A 
BRANCH   7  13
ATOM     13  O   LIG    1       29.267 -19.104   8.532  0.00  0.00    -0.475 OA
BRANCH  13  14
ATOM     14  C   LIG    1       30.686 -19.327   8.215  0.00  0.00    +0.203 C 
ATOM     15  C   LIG    1       30.845 -19.391   6.678  0.00  0.00    +0.068 C 
BRANCH  14  17
ATOM     16  C   LIG    1       31.273 -17.234   9.831  0.00  0.00    +0.008 C 
ATOM     17  C   LIG    1       31.625 -18.258   8.798  0.00  0.00    +0.056 C 
ENDBRANCH  14  17
BRANCH  14  18
ATOM     18  C   LIG    1       31.030 -20.692   8.828  0.00  0.00    +0.349 C 
ATOM     19  O   LIG    1       30.243 -21.606   8.860  0.00  0.00    -0.246 OA
BRANCH  18  20
ATOM     20  O   LIG    1       32.262 -20.841   9.360  0.00  0.00    -0.478 OA
ATOM     21  H   LIG    1       32.936 -20.183   9.102  0.00  0.00    +0.295 HD
ENDBRANCH  18  20
ENDBRANCH  14  18
ENDBRANCH  13  14
ENDBRANCH   7  13
ENDBRANCH   1  10
BRANCH   1  22
ATOM     22  C   LIG    1       24.881 -23.320   5.768  0.00  0.00    -0.037 A 
ATOM     23  C   LIG    1       25.279 -23.971   6.922  0.00  0.00    +0.008 A 
ATOM     24  C   LIG    1       25.192 -25.361   7.052  0.00  0.00    +0.046 A 
ATOM     25  C   LIG    1       24.570 -26.166   6.109  0.00  0.00    +0.122 A 
ATOM     26  C   LIG    1       24.392 -25.592   4.873  0.00  0.00    +0.046 A 
ATOM     27  C   LIG    1       24.711 -24.234   4.703  0.00  0.00    +0.008 A 
BRANCH  25  28
ATOM     28  O   LIG    1       24.169 -27.463   6.264  0.00  0.00    -0.475 OA
BRANCH  28  29
ATOM     29  C   LIG    1       25.146 -28.534   6.326  0.00  0.00    +0.203 C 
ATOM     30  C   LIG    1       26.355 -28.225   5.432  0.00  0.00    +0.068 C 
BRANCH  29  31
ATOM     31  C   LIG    1       24.494 -29.799   5.666  0.00  0.00    +0.349 C 
ATOM     32  O   LIG    1       25.074 -30.802   5.401  0.00  0.00    -0.246 OA
BRANCH  31  33
ATOM     33  O   LIG    1       23.163 -29.669   5.466  0.00  0.00    -0.478 OA
ATOM     34  H   LIG    1       22.646 -29.601   6.277  0.00  0.00    +0.295 HD
ENDBRANCH  31  33
ENDBRANCH  29  31
BRANCH  29  35
ATOM     35  C   LIG    1       25.506 -28.944   7.780  0.00  0.00    +0.056 C 
ATOM     36  C   LIG    1       24.391 -29.697   8.500  0.00  0.00    +0.008 C 
ENDBRANCH  29  35
ENDBRANCH  28  29
ENDBRANCH  25  28
ENDBRANCH   1  22
TORSDOF 12
ENDMDL
MODEL 3
REMARK VINA RESULT:     -10.0      1.263      8.620
REMARK  Name = *****
REMARK                            x       y       z     vdW  Elec       q    Type
REMARK                         _______ _______ _______ _____ _____    ______ ____
ROOT
ATOM      1  C   LIG    1       24.839 -21.881   5.810  0.00  0.00    +0.021 C 
ATOM      2  C   LIG    1       23.501 -21.550   6.542  0.00  0.00    +0.016 C 
ATOM      3  C   LIG    1       22.891 -20.169   6.285  0.00  0.00    +0.001 C 
ATOM      4  C   LIG    1       22.845 -19.765   4.816  0.00  0.00    +0.000 C 
ATOM      5  C   LIG    1       24.155 -19.984   4.090  0.00  0.00    +0.001 C 
ATOM      6  C   LIG    1       24.724 -21.390   4.315  0.00  0.00    +0.016 C 
ENDROOT
BRANCH   1  10
ATOM      7  C   LIG    1       28.230 -19.820   7.926  0.00  0.00    +0.122 A 
ATOM      8  C   LIG    1       28.187 -19.814   6.543  0.00  0.00    +0.046 A 
ATOM      9  C   LIG    1       27.126 -20.455   5.827  0.00  0.00    +0.008 A 
ATOM     10  C   LIG    1       26.070 -21.147   6.444  0.00  0.00    -0.037 A 
ATOM     11  C   LIG    1       26.200 -21.122   7.802  0.00  0.00    +0.008 A 
ATOM     12  C   LIG    1       27.180 -20.472   8.510  0.00  0.00    +0.046 A 
BRANCH   7  13
ATOM     13  O   LIG    1       29.234 -19.162   8.582  0.00  0.00    -0.475 OA
BRANCH  13  14
ATOM     14  C   LIG    1       30.658 -19.381   8.285  0.00  0.00    +0.203 C 
ATOM     15  C   LIG    1       30.849 -19.371   6.750  0.00  0.00    +0.068 C 
BRANCH  14  17
ATOM     16  C   LIG    1       31.243 -16.939   9.301  0.00  0.00    +0.008 C 
ATOM     17  C   LIG    1       31.592 -18.348   8.938  0.00  0.00    +0.056 C 
ENDBRANCH  14  17
BRANCH  14  18
ATOM     18  C   LIG    1       30.980 -20.776   8.837  0.00  0.00    +0.349 C 
ATOM     19  O   LIG    1       30.187 -21.685   8.807  0.00  0.00    -0.246 OA
BRANCH  18  20
ATOM     20  O   LIG    1       32.198 -20.960   9.389  0.00  0.00    -0.478 OA
ATOM     21  H   LIG    1       32.628 -20.175   9.780  0.00  0.00    +0.295 HD
ENDBRANCH  18  20
ENDBRANCH  14  18
ENDBRANCH  13  14
ENDBRANCH   7  13
ENDBRANCH   1  10
BRANCH   1  22
ATOM     22  C   LIG    1       24.941 -23.491   5.857  0.00  0.00    -0.037 A 
ATOM     23  C   LIG    1       24.763 -24.233   4.702  0.00  0.00    +0.008 A 
ATOM     24  C   LIG    1       24.997 -25.611   4.669  0.00  0.00    +0.046 A 
ATOM     25  C   LIG    1       25.562 -26.304   5.730  0.00  0.00    +0.122 A 
ATOM     26  C   LIG    1       25.519 -25.657   6.942  0.00  0.00    +0.046 A 
ATOM     27  C   LIG    1       25.054 -24.332   6.988  0.00  0.00    +0.008 A 
BRANCH  25  28
ATOM     28  O   LIG    1       26.101 -27.559   5.707  0.00  0.00    -0.475 OA
BRANCH  28  29
ATOM     29  C   LIG    1       25.253 -28.727   5.857  0.00  0.00    +0.203 C 
ATOM     30  C   LIG    1       23.821 -28.429   5.392  0.00  0.00    +0.068 C 
BRANCH  29  31
ATOM     31  C   LIG    1       25.107 -29.002   7.396  0.00  0.00    +0.349 C 
ATOM     32  O   LIG    1       24.090 -29.287   7.941  0.00  0.00    -0.246 OA
BRANCH  31  33
ATOM     33  O   LIG    1       26.283 -28.938   8.062  0.00  0.00    -0.478 OA
ATOM     34  H   LIG    1       26.872 -29.682   7.895  0.00  0.00    +0.295 HD
ENDBRANCH  31  33
ENDBRANCH  29  31
BRANCH  29  35
ATOM     35  C   LIG    1       25.875 -30.013   5.247  0.00  0.00    +0.056 C 
ATOM     36  C   LIG    1       25.076 -31.279   5.536  0.00  0.00    +0.008 C 
ENDBRANCH  29  35
ENDBRANCH  28  29
ENDBRANCH  25  28
ENDBRANCH   1  22
TORSDOF 12
ENDMDL
MODEL 4
REMARK VINA RESULT:      -9.7      1.397      9.089
REMARK  Name = *****
REMARK                            x       y       z     vdW  Elec       q    Type
REMARK                         _______ _______ _______ _____ _____    ______ ____
ROOT
ATOM      1  C   LIG    1       24.853 -22.751   6.331  0.00  0.00    +0.021 C 
ATOM      2  C   LIG    1       23.520 -22.433   7.076  0.00  0.00    +0.016 C 
ATOM      3  C   LIG    1       22.887 -21.063   6.817  0.00  0.00    +0.001 C 
ATOM      4  C   LIG    1       22.818 -20.671   5.345  0.00  0.00    +0.000 C 
ATOM      5  C   LIG    1       24.122 -20.877   4.605  0.00  0.00    +0.001 C 
ATOM      6  C   LIG    1       24.713 -22.274   4.834  0.00  0.00    +0.016 C 
ENDROOT
BRANCH   1  10
ATOM      7  C   LIG    1       28.165 -20.350   8.199  0.00  0.00    +0.122 A 
ATOM      8  C   LIG    1       28.478 -21.446   7.413  0.00  0.00    +0.046 A 
ATOM      9  C   LIG    1       27.458 -22.238   6.798  0.00  0.00    +0.008 A 
ATOM     10  C   LIG    1       26.081 -21.995   6.944  0.00  0.00    -0.037 A 
ATOM     11  C   LIG    1       25.861 -20.914   7.747  0.00  0.00    +0.008 A 
ATOM     12  C   LIG    1       26.824 -20.111   8.306  0.00  0.00    +0.046 A 
BRANCH   7  13
ATOM     13  O   LIG    1       29.165 -19.587   8.738  0.00  0.00    -0.475 OA
BRANCH  13  14
ATOM     14  C   LIG    1       30.434 -19.329   8.041  0.00  0.00    +0.203 C 
ATOM     15  C   LIG    1       31.452 -20.420   8.450  0.00  0.00    +0.068 C 
BRANCH  14  17
ATOM     16  C   LIG    1       29.484 -18.309   5.719  0.00  0.00    +0.008 C 
ATOM     17  C   LIG    1       30.300 -19.282   6.510  0.00  0.00    +0.056 C 
ENDBRANCH  14  17
BRANCH  14  18
ATOM     18  C   LIG    1       30.909 -17.962   8.551  0.00  0.00    +0.349 C 
ATOM     19  O   LIG    1       31.988 -17.502   8.267  0.00  0.00    -0.246 OA
BRANCH  18  20
ATOM     20  O   LIG    1       30.075 -17.276   9.361  0.00  0.00    -0.478 OA
ATOM     21  H   LIG    1       30.407 -16.433   9.725  0.00  0.00    +0.295 HD
ENDBRANCH  18  20
ENDBRANCH  14  18
ENDBRANCH  13  14
ENDBRANCH   7  13
ENDBRANCH   1  10
BRANCH   1  22
ATOM     22  C   LIG    1       24.979 -24.359   6.389  0.00  0.00    -0.037 A 
ATOM     23  C   LIG    1       23.869 -25.152   6.153  0.00  0.00    +0.008 A 
ATOM     24  C   LIG    1       23.968 -26.543   6.040  0.00  0.00    +0.046 A 
ATOM     25  C   LIG    1       25.184 -27.209   6.004  0.00  0.00    +0.122 A 
ATOM     26  C   LIG    1       26.260 -26.493   6.471  0.00  0.00    +0.046 A 
ATOM     27  C   LIG    1       26.081 -25.140   6.805  0.00  0.00    +0.008 A 
BRANCH  25  28
ATOM     28  O   LIG    1       25.411 -28.496   5.605  0.00  0.00    -0.475 OA
BRANCH  28  29
ATOM     29  C   LIG    1       25.263 -29.594   6.543  0.00  0.00    +0.203 C 
ATOM     30  C   LIG    1       26.216 -30.746   6.193  0.00  0.00    +0.068 C 
BRANCH  29  31
ATOM     31  C   LIG    1       23.833 -30.202   6.327  0.00  0.00    +0.349 C 
ATOM     32  O   LIG    1       23.377 -31.106   6.951  0.00  0.00    -0.246 OA
BRANCH  31  33
ATOM     33  O   LIG    1       23.117 -29.556   5.379  0.00  0.00    -0.478 OA
ATOM     34  H   LIG    1       22.428 -30.091   4.970  0.00  0.00    +0.295 HD
ENDBRANCH  31  33
ENDBRANCH  29  31
BRANCH  29  35
ATOM     35  C   LIG    1       25.319 -29.139   8.027  0.00  0.00    +0.056 C 
ATOM     36  C   LIG    1       26.091 -30.092   8.933  0.00  0.00    +0.008 C 
ENDBRANCH  29  35
ENDBRANCH  28  29
ENDBRANCH  25  28
ENDBRANCH   1  22
TORSDOF 12
ENDMDL
MODEL 5
REMARK VINA RESULT:      -9.5      0.787      1.286
REMARK  Name = *****
REMARK                            x       y       z     vdW  Elec       q    Type
REMARK                         _______ _______ _______ _____ _____    ______ ____
ROOT
ATOM      1  C   LIG    1       25.024 -21.147   5.775  0.00  0.00    +0.021 C 
ATOM      2  C   LIG    1       25.192 -20.465   4.383  0.00  0.00    +0.016 C 
ATOM      3  C   LIG    1       23.922 -20.254   3.553  0.00  0.00    +0.001 C 
ATOM      4  C   LIG    1       22.752 -19.663   4.333  0.00  0.00    +0.000 C 
ATOM      5  C   LIG    1       22.496 -20.359   5.653  0.00  0.00    +0.001 C 
ATOM      6  C   LIG    1       23.770 -20.513   6.493  0.00  0.00    +0.016 C 
ENDROOT
BRANCH   1  10
ATOM      7  C   LIG    1       24.215 -25.571   5.783  0.00  0.00    +0.122 A 
ATOM      8  C   LIG    1       24.683 -24.967   4.630  0.00  0.00    +0.046 A 
ATOM      9  C   LIG    1       24.956 -23.563   4.581  0.00  0.00    +0.008 A 
ATOM     10  C   LIG    1       24.762 -22.688   5.664  0.00  0.00    -0.037 A 
ATOM     11  C   LIG    1       24.281 -23.359   6.751  0.00  0.00    +0.008 A 
ATOM     12  C   LIG    1       24.061 -24.711   6.835  0.00  0.00    +0.046 A 
BRANCH   7  13
ATOM     13  O   LIG    1       24.006 -26.922   5.811  0.00  0.00    -0.475 OA
BRANCH  13  14
ATOM     14  C   LIG    1       25.097 -27.895   5.975  0.00  0.00    +0.203 C 
ATOM     15  C   LIG    1       24.923 -29.013   4.921  0.00  0.00    +0.068 C 
BRANCH  14  17
ATOM     16  C   LIG    1       27.402 -27.337   4.667  0.00  0.00    +0.008 C 
ATOM     17  C   LIG    1       26.500 -27.275   5.858  0.00  0.00    +0.056 C 
ENDBRANCH  14  17
BRANCH  14  18
ATOM     18  C   LIG    1       24.917 -28.478   7.383  0.00  0.00    +0.349 C 
ATOM     19  O   LIG    1       25.661 -28.213   8.295  0.00  0.00    -0.246 OA
BRANCH  18  20
ATOM     20  O   LIG    1       23.889 -29.331   7.576  0.00  0.00    -0.478 OA
ATOM     21  H   LIG    1       23.676 -29.938   6.841  0.00  0.00    +0.295 HD
ENDBRANCH  18  20
ENDBRANCH  14  18
ENDBRANCH  13  14
ENDBRANCH   7  13
ENDBRANCH   1  10
BRANCH   1  22
ATOM     22  C   LIG    1       26.371 -20.768   6.580  0.00  0.00    -0.037 A 
ATOM     23  C   LIG    1       27.466 -20.260   5.903  0.00  0.00    +0.008 A 
ATOM     24  C   LIG    1       28.590 -19.775   6.579  0.00  0.00    +0.046 A 
ATOM     25  C   LIG    1       28.633 -19.627   7.957  0.00  0.00    +0.122 A 
ATOM     26  C   LIG    1       27.682 -20.335   8.653  0.00  0.00    +0.046 A 
ATOM     27  C   LIG    1       26.684 -21.016   7.936  0.00  0.00    +0.008 A 
BRANCH  25  28
ATOM     28  O   LIG    1       29.535 -18.905   8.685  0.00  0.00    -0.475 OA
BRANCH  28  29
ATOM     29  C   LIG    1       30.957 -19.168   8.565  0.00  0.00    +0.203 C 
ATOM     30  C   LIG    1       31.410 -19.078   7.101  0.00  0.00    +0.068 C 
BRANCH  29  31
ATOM     31  C   LIG    1       31.186 -20.673   8.945  0.00  0.00    +0.349 C 
ATOM     32  O   LIG    1       30.858 -21.172   9.973  0.00  0.00    -0.246 OA
BRANCH  31  33
ATOM     33  O   LIG    1       31.757 -21.392   7.952  0.00  0.00    -0.478 OA
ATOM     34  H   LIG    1       32.714 -21.474   8.023  0.00  0.00    +0.295 HD
ENDBRANCH  31  33
ENDBRANCH  29  31
BRANCH  29  35
ATOM     35  C   LIG    1       31.816 -18.338   9.558  0.00  0.00    +0.056 C 
ATOM     36  C   LIG    1       31.940 -16.866   9.181  0.00  0.00    +0.008 C 
ENDBRANCH  29  35
ENDBRANCH  28  29
ENDBRANCH  25  28
ENDBRANCH   1  22
TORSDOF 12
ENDMDL
MODEL 6
REMARK VINA RESULT:      -9.2      1.563      2.095
REMARK  Name = *****
REMARK                            x       y       z     vdW  Elec       q    Type
REMARK                         _______ _______ _______ _____ _____    ______ ____
ROOT
ATOM      1  C   LIG    1       24.850 -22.005   6.066  0.00  0.00    +0.021 C 
ATOM      2  C   LIG    1       24.551 -21.272   4.721  0.00  0.00    +0.016 C 
ATOM      3  C   LIG    1       23.177 -21.514   4.088  0.00  0.00    +0.001 C 
ATOM      4  C   LIG    1       22.008 -21.407   5.061  0.00  0.00    +0.000 C 
ATOM      5  C   LIG    1       22.220 -22.182   6.344  0.00  0.00    +0.001 C 
ATOM      6  C   LIG    1       23.578 -21.886   6.992  0.00  0.00    +0.016 C 
ENDROOT
BRANCH   1  10
ATOM      7  C   LIG    1       25.819 -26.388   5.799  0.00  0.00    +0.122 A 
ATOM      8  C   LIG    1       25.291 -25.740   4.697  0.00  0.00    +0.046 A 
ATOM      9  C   LIG    1       24.969 -24.346   4.734  0.00  0.00    +0.008 A 
ATOM     10  C   LIG    1       25.137 -23.533   5.868  0.00  0.00    -0.037 A 
ATOM     11  C   LIG    1       25.640 -24.253   6.913  0.00  0.00    +0.008 A 
ATOM     12  C   LIG    1       26.003 -25.577   6.883  0.00  0.00    +0.046 A 
BRANCH   7  13
ATOM     13  O   LIG    1       26.157 -27.712   5.718  0.00  0.00    -0.475 OA
BRANCH  13  14
ATOM     14  C   LIG    1       25.192 -28.796   5.955  0.00  0.00    +0.203 C 
ATOM     15  C   LIG    1       23.800 -28.334   5.464  0.00  0.00    +0.068 C 
BRANCH  14  17
ATOM     16  C   LIG    1       24.983 -31.468   5.560  0.00  0.00    +0.008 C 
ATOM     17  C   LIG    1       25.575 -30.123   5.278  0.00  0.00    +0.056 C 
ENDBRANCH  14  17
BRANCH  14  18
ATOM     18  C   LIG    1       25.165 -28.993   7.477  0.00  0.00    +0.349 C 
ATOM     19  O   LIG    1       24.160 -29.291   8.075  0.00  0.00    -0.246 OA
BRANCH  18  20
ATOM     20  O   LIG    1       26.320 -28.801   8.149  0.00  0.00    -0.478 OA
ATOM     21  H   LIG    1       26.279 -28.235   8.943  0.00  0.00    +0.295 HD
ENDBRANCH  18  20
ENDBRANCH  14  18
ENDBRANCH  13  14
ENDBRANCH   7  13
ENDBRANCH   1  10
BRANCH   1  22
ATOM     22  C   LIG    1       26.081 -21.185   6.711  0.00  0.00    -0.037 A 
ATOM     23  C   LIG    1       26.034 -20.789   8.036  0.00  0.00    +0.008 A 
ATOM     24  C   LIG    1       27.141 -20.217   8.674  0.00  0.00    +0.046 A 
ATOM     25  C   LIG    1       28.394 -20.144   8.084  0.00  0.00    +0.122 A 
ATOM     26  C   LIG    1       28.409 -20.299   6.718  0.00  0.00    +0.046 A 
ATOM     27  C   LIG    1       27.217 -20.650   6.061  0.00  0.00    +0.008 A 
BRANCH  25  28
ATOM     28  O   LIG    1       29.586 -19.890   8.700  0.00  0.00    -0.475 OA
BRANCH  28  29
ATOM     29  C   LIG    1       30.191 -18.573   8.618  0.00  0.00    +0.203 C 
ATOM     30  C   LIG    1       30.001 -17.969   7.220  0.00  0.00    +0.068 C 
BRANCH  29  31
ATOM     31  C   LIG    1       31.743 -18.765   8.745  0.00  0.00    +0.349 C 
ATOM     32  O   LIG    1       32.273 -19.718   9.219  0.00  0.00    -0.246 OA
BRANCH  31  33
ATOM     33  O   LIG    1       32.452 -17.748   8.204  0.00  0.00    -0.478 OA
ATOM     34  H   LIG    1       33.150 -18.030   7.602  0.00  0.00    +0.295 HD
ENDBRANCH  31  33
ENDBRANCH  29  31
BRANCH  29  35
ATOM     35  C   LIG    1       29.776 -17.639   9.787  0.00  0.00    +0.056 C 
ATOM     36  C   LIG    1       30.769 -17.623  10.944  0.00  0.00    +0.008 C 
ENDBRANCH  29  35
ENDBRANCH  28  29
ENDBRANCH  25  28
ENDBRANCH   1  22
TORSDOF 12
ENDMDL
MODEL 7
REMARK VINA RESULT:      -8.4      1.159      2.024
REMARK  Name = *****
REMARK                            x       y       z     vdW  Elec       q    Type
REMARK                         _______ _______ _______ _____ _____    ______ ____
ROOT
ATOM      1  C   LIG    1       24.786 -21.481   6.018  0.00  0.00    +0.021 C 
ATOM      2  C   LIG    1       25.134 -20.944   4.596  0.00  0.00    +0.016 C 
ATOM      3  C   LIG    1       23.976 -20.804   3.602  0.00  0.00    +0.001 C 
ATOM      4  C   LIG    1       22.736 -20.125   4.173  0.00  0.00    +0.000 C 
ATOM      5  C   LIG    1       22.309 -20.682   5.515  0.00  0.00    +0.001 C 
ATOM      6  C   LIG    1       23.471 -20.764   6.514  0.00  0.00    +0.016 C 
ENDROOT
BRANCH   1  10
ATOM      7  C   LIG    1       24.211 -25.936   5.815  0.00  0.00    +0.122 A 
ATOM      8  C   LIG    1       23.348 -25.173   6.582  0.00  0.00    +0.046 A 
ATOM      9  C   LIG    1       23.491 -23.752   6.675  0.00  0.00    +0.008 A 
ATOM     10  C   LIG    1       24.504 -23.022   6.029  0.00  0.00    -0.037 A 
ATOM     11  C   LIG    1       25.320 -23.850   5.314  0.00  0.00    +0.008 A 
ATOM     12  C   LIG    1       25.171 -25.207   5.171  0.00  0.00    +0.046 A 
BRANCH   7  13
ATOM     13  O   LIG    1       24.021 -27.287   5.712  0.00  0.00    -0.475 OA
BRANCH  13  14
ATOM     14  C   LIG    1       24.847 -28.265   6.436  0.00  0.00    +0.203 C 
ATOM     15  C   LIG    1       25.786 -27.502   7.398  0.00  0.00    +0.068 C 
BRANCH  14  17
ATOM     16  C   LIG    1       24.431 -29.982   8.489  0.00  0.00    +0.008 C 
ATOM     17  C   LIG    1       24.028 -29.308   7.216  0.00  0.00    +0.056 C 
ENDBRANCH  14  17
BRANCH  14  18
ATOM     18  C   LIG    1       25.676 -28.977   5.358  0.00  0.00    +0.349 C 
ATOM     19  O   LIG    1       25.431 -30.098   4.986  0.00  0.00    -0.246 OA
BRANCH  18  20
ATOM     20  O   LIG    1       26.726 -28.306   4.839  0.00  0.00    -0.478 OA
ATOM     21  H   LIG    1       27.464 -28.104   5.445  0.00  0.00    +0.295 HD
ENDBRANCH  18  20
ENDBRANCH  14  18
ENDBRANCH  13  14
ENDBRANCH   7  13
ENDBRANCH   1  10
BRANCH   1  22
ATOM     22  C   LIG    1       26.036 -21.037   6.938  0.00  0.00    -0.037 A 
ATOM     23  C   LIG    1       27.328 -21.137   6.450  0.00  0.00    +0.008 A 
ATOM     24  C   LIG    1       28.422 -20.620   7.152  0.00  0.00    +0.046 A 
ATOM     25  C   LIG    1       28.285 -19.847   8.295  0.00  0.00    +0.122 A 
ATOM     26  C   LIG    1       27.065 -19.938   8.922  0.00  0.00    +0.046 A 
ATOM     27  C   LIG    1       26.036 -20.668   8.302  0.00  0.00    +0.008 A 
BRANCH  25  28
ATOM     28  O   LIG    1       29.234 -19.059   8.880  0.00  0.00    -0.475 OA
BRANCH  28  29
ATOM     29  C   LIG    1       30.594 -19.044   8.373  0.00  0.00    +0.203 C 
ATOM     30  C   LIG    1       31.457 -20.092   9.091  0.00  0.00    +0.068 C 
BRANCH  29  31
ATOM     31  C   LIG    1       31.232 -17.672   8.790  0.00  0.00    +0.349 C 
ATOM     32  O   LIG    1       32.348 -17.340   8.547  0.00  0.00    -0.246 OA
BRANCH  31  33
ATOM     33  O   LIG    1       30.363 -16.850   9.420  0.00  0.00    -0.478 OA
ATOM     34  H   LIG    1       29.460 -17.186   9.460  0.00  0.00    +0.295 HD
ENDBRANCH  31  33
ENDBRANCH  29  31
BRANCH  29  35
ATOM     35  C   LIG    1       30.666 -19.100   6.823  0.00  0.00    +0.056 C 
ATOM     36  C   LIG    1       29.771 -18.078   6.129  0.00  0.00    +0.008 C 
ENDBRANCH  29  35
ENDBRANCH  28  29
ENDBRANCH  25  28
ENDBRANCH   1  22
TORSDOF 12
ENDMDL
MODEL 8
REMARK VINA RESULT:      -7.8      4.054      8.968
REMARK  Name = *****
REMARK                            x       y       z     vdW  Elec       q    Type
REMARK                         _______ _______ _______ _____ _____    ______ ____
ROOT
ATOM      1  C   LIG    1       25.075 -30.215   7.713  0.00  0.00    +0.021 C 
ATOM      2  C   LIG    1       23.765 -31.029   7.478  0.00  0.00    +0.016 C 
ATOM      3  C   LIG    1       23.576 -31.659   6.095  0.00  0.00    +0.001 C 
ATOM      4  C   LIG    1       24.801 -32.397   5.568  0.00  0.00    +0.000 C 
ATOM      5  C   LIG    1       26.083 -31.602   5.692  0.00  0.00    +0.001 C 
ATOM      6  C   LIG    1       26.282 -31.024   7.099  0.00  0.00    +0.016 C 
ENDROOT
BRANCH   1  10
ATOM      7  C   LIG    1       25.199 -26.087   5.932  0.00  0.00    +0.122 A 
ATOM      8  C   LIG    1       24.361 -27.041   5.382  0.00  0.00    +0.046 A 
ATOM      9  C   LIG    1       24.287 -28.367   5.916  0.00  0.00    +0.008 A 
ATOM     10  C   LIG    1       25.051 -28.816   7.007  0.00  0.00    -0.037 A 
ATOM     11  C   LIG    1       25.863 -27.823   7.474  0.00  0.00    +0.008 A 
ATOM     12  C   LIG    1       25.913 -26.532   7.009  0.00  0.00    +0.046 A 
BRANCH   7  13
ATOM     13  O   LIG    1       25.215 -24.817   5.425  0.00  0.00    -0.475 OA
BRANCH  13  14
ATOM     14  C   LIG    1       24.825 -23.639   6.216  0.00  0.00    +0.203 C 
ATOM     15  C   LIG    1       23.409 -23.878   6.791  0.00  0.00    +0.068 C 
BRANCH  14  17
ATOM     16  C   LIG    1       25.589 -22.312   8.450  0.00  0.00    +0.008 C 
ATOM     17  C   LIG    1       25.806 -23.305   7.352  0.00  0.00    +0.056 C 
ENDBRANCH  14  17
BRANCH  14  18
ATOM     18  C   LIG    1       24.787 -22.472   5.219  0.00  0.00    +0.349 C 
ATOM     19  O   LIG    1       24.999 -21.331   5.549  0.00  0.00    -0.246 OA
BRANCH  18  20
ATOM     20  O   LIG    1       24.486 -22.761   3.936  0.00  0.00    -0.478 OA
ATOM     21  H   LIG    1       23.626 -23.194   3.771  0.00  0.00    +0.295 HD
ENDBRANCH  18  20
ENDBRANCH  14  18
ENDBRANCH  13  14
ENDBRANCH   7  13
ENDBRANCH   1  10
BRANCH   1  22
ATOM     22  C   LIG    1       25.224 -30.135   9.318  0.00  0.00    -0.037 A 
ATOM     23  C   LIG    1       26.454 -30.351   9.914  0.00  0.00    +0.008 A 
ATOM     24  C   LIG    1       26.657 -30.138  11.282  0.00  0.00    +0.046 A 
ATOM     25  C   LIG    1       25.701 -29.560  12.103  0.00  0.00    +0.122 A 
ATOM     26  C   LIG    1       24.419 -29.565  11.605  0.00  0.00    +0.046 A 
ATOM     27  C   LIG    1       24.205 -30.009  10.290  0.00  0.00    +0.008 A 
BRANCH  25  28
ATOM     28  O   LIG    1       25.887 -29.041  13.353  0.00  0.00    -0.475 OA
BRANCH  28  29
ATOM     29  C   LIG    1       26.267 -27.650  13.523  0.00  0.00    +0.203 C 
ATOM     30  C   LIG    1       26.637 -27.014  12.176  0.00  0.00    +0.068 C 
BRANCH  29  31
ATOM     31  C   LIG    1       27.609 -27.631  14.337  0.00  0.00    +0.349 C 
ATOM     32  O   LIG    1       28.093 -28.576  14.872  0.00  0.00    -0.246 OA
BRANCH  31  33
ATOM     33  O   LIG    1       28.216 -26.422  14.334  0.00  0.00    -0.478 OA
ATOM     34  H   LIG    1       28.688 -26.215  15.149  0.00  0.00    +0.295 HD
ENDBRANCH  31  33
ENDBRANCH  29  31
BRANCH  29  35
ATOM     35  C   LIG    1       25.243 -26.838  14.361  0.00  0.00    +0.056 C 
ATOM     36  C   LIG    1       24.077 -26.291  13.544  0.00  0.00    +0.008 C 
ENDBRANCH  29  35
ENDBRANCH  28  29
ENDBRANCH  25  28
ENDBRANCH   1  22
TORSDOF 12
ENDMDL
MODEL 9
REMARK VINA RESULT:      -7.8      4.029      8.571
REMARK  Name = *****
REMARK                            x       y       z     vdW  Elec       q    Type
REMARK                         _______ _______ _______ _____ _____    ______ ____
ROOT
ATOM      1  C   LIG    1       24.974 -29.871   7.176  0.00  0.00    +0.021 C 
ATOM      2  C   LIG    1       26.235 -30.710   6.806  0.00  0.00    +0.016 C 
ATOM      3  C   LIG    1       26.073 -32.233   6.777  0.00  0.00    +0.001 C 
ATOM      4  C   LIG    1       24.834 -32.720   6.035  0.00  0.00    +0.000 C 
ATOM      5  C   LIG    1       23.568 -31.991   6.434  0.00  0.00    +0.001 C 
ATOM      6  C   LIG    1       23.734 -30.467   6.404  0.00  0.00    +0.016 C 
ENDROOT
BRANCH   1  10
ATOM      7  C   LIG    1       23.690 -30.076  11.481  0.00  0.00    +0.122 A 
ATOM      8  C   LIG    1       25.003 -29.765  11.177  0.00  0.00    +0.046 A 
ATOM      9  C   LIG    1       25.457 -29.687   9.822  0.00  0.00    +0.008 A 
ATOM     10  C   LIG    1       24.638 -29.929   8.705  0.00  0.00    -0.037 A 
ATOM     11  C   LIG    1       23.369 -30.248   9.094  0.00  0.00    +0.008 A 
ATOM     12  C   LIG    1       22.901 -30.280  10.384  0.00  0.00    +0.046 A 
BRANCH   7  13
ATOM     13  O   LIG    1       23.277 -30.100  12.785  0.00  0.00    -0.475 OA
BRANCH  13  14
ATOM     14  C   LIG    1       22.495 -29.013  13.393  0.00  0.00    +0.203 C 
ATOM     15  C   LIG    1       22.722 -29.037  14.923  0.00  0.00    +0.068 C 
BRANCH  14  17
ATOM     16  C   LIG    1       22.996 -26.361  13.622  0.00  0.00    +0.008 C 
ATOM     17  C   LIG    1       22.831 -27.621  12.833  0.00  0.00    +0.056 C 
ENDBRANCH  14  17
BRANCH  14  18
ATOM     18  C   LIG    1       21.028 -29.343  13.083  0.00  0.00    +0.349 C 
ATOM     19  O   LIG    1       20.533 -30.411  13.351  0.00  0.00    -0.246 OA
BRANCH  18  20
ATOM     20  O   LIG    1       20.293 -28.392  12.471  0.00  0.00    -0.478 OA
ATOM     21  H   LIG    1       19.450 -28.143  12.897  0.00  0.00    +0.295 HD
ENDBRANCH  18  20
ENDBRANCH  14  18
ENDBRANCH  13  14
ENDBRANCH   7  13
ENDBRANCH   1  10
BRANCH   1  22
ATOM     22  C   LIG    1       25.299 -28.386   6.634  0.00  0.00    -0.037 A 
ATOM     23  C   LIG    1       24.956 -28.026   5.342  0.00  0.00    +0.008 A 
ATOM     24  C   LIG    1       25.078 -26.709   4.887  0.00  0.00    +0.046 A 
ATOM     25  C   LIG    1       25.402 -25.652   5.723  0.00  0.00    +0.122 A 
ATOM     26  C   LIG    1       25.975 -26.006   6.922  0.00  0.00    +0.046 A 
ATOM     27  C   LIG    1       26.054 -27.367   7.259  0.00  0.00    +0.008 A 
BRANCH  25  28
ATOM     28  O   LIG    1       25.261 -24.318   5.464  0.00  0.00    -0.475 OA
BRANCH  28  29
ATOM     29  C   LIG    1       24.512 -23.467   6.371  0.00  0.00    +0.203 C 
ATOM     30  C   LIG    1       23.157 -24.098   6.721  0.00  0.00    +0.068 C 
BRANCH  29  31
ATOM     31  C   LIG    1       24.135 -22.164   5.582  0.00  0.00    +0.349 C 
ATOM     32  O   LIG    1       23.570 -21.227   6.048  0.00  0.00    -0.246 OA
BRANCH  31  33
ATOM     33  O   LIG    1       24.568 -22.173   4.301  0.00  0.00    -0.478 OA
ATOM     34  H   LIG    1       25.511 -22.003   4.202  0.00  0.00    +0.295 HD
ENDBRANCH  31  33
ENDBRANCH  29  31
BRANCH  29  35
ATOM     35  C   LIG    1       25.345 -23.003   7.597  0.00  0.00    +0.056 C 
ATOM     36  C   LIG    1       26.677 -22.360   7.227  0.00  0.00    +0.008 C 
ENDBRANCH  29  35
ENDBRANCH  28  29
ENDBRANCH  25  28
ENDBRANCH   1  22
TORSDOF 12
ENDMDL
