MODEL 1
REMARK VINA RESULT:      -7.3      0.000      0.000
REMARK  Name = *****
REMARK                            x       y       z     vdW  Elec       q    Type
REMARK                         _______ _______ _______ _____ _____    ______ ____
ROOT
ATOM      1  N   LIG    1       26.522 -20.303   6.412  0.00  0.00    -0.303 N 
ATOM      2  H   LIG    1       27.035 -20.522   5.569  0.00  0.00    +0.149 HD
ATOM      3  C   LIG    1       27.242 -20.126   7.565  0.00  0.00    +0.220 C 
ATOM      4  O   LIG    1       26.714 -20.200   8.689  0.00  0.00    -0.275 OA
ENDROOT
BRANCH   1   5
ATOM      5  C   LIG    1       25.082 -20.650   6.396  0.00  0.00    +0.164 C 
BRANCH   5   9
ATOM      6  C   LIG    1       25.948 -24.400   6.654  0.00  0.00    +0.128 C 
ATOM      7  N   LIG    1       25.973 -22.975   6.402  0.00  0.00    -0.317 N 
ATOM      8  H   LIG    1       26.749 -22.586   5.882  0.00  0.00    +0.148 HD
ATOM      9  C   LIG    1       24.984 -22.138   6.872  0.00  0.00    +0.234 C 
ATOM     10  O   LIG    1       24.027 -22.584   7.499  0.00  0.00    -0.274 OA
ENDBRANCH   5   9
BRANCH   5  11
ATOM     11  C   LIG    1       24.435 -20.404   4.983  0.00  0.00    -0.011 C 
ATOM     12  C   LIG    1       23.052 -19.737   5.150  0.00  0.00    +0.013 C 
ATOM     13  C   LIG    1       24.278 -21.709   4.181  0.00  0.00    +0.013 C 
ATOM     14  C   LIG    1       25.287 -19.444   4.115  0.00  0.00    +0.013 C 
ENDBRANCH   5  11
ENDBRANCH   1   5
BRANCH   3  15
ATOM     15  C   LIG    1       28.720 -19.740   7.411  0.00  0.00    +0.113 C 
BRANCH  15  16
ATOM     16  C   LIG    1       29.524 -21.042   7.179  0.00  0.00    +0.214 C 
BRANCH  16  17
ATOM     17  C   LIG    1       30.280 -21.512   8.430  0.00  0.00    +0.265 C 
ATOM     18  N   LIG    1       31.642 -21.270   8.355  0.00  0.00    -0.195 N 
ATOM     19  H   LIG    1       32.075 -20.595   7.750  0.00  0.00    +0.182 HD
ATOM     20  O   LIG    1       29.772 -22.111   9.359  0.00  0.00    -0.271 OA
BRANCH  18  21
ATOM     21  O   LIG    1       32.437 -21.778   9.428  0.00  0.00    -0.295 OA
ATOM     22  H   LIG    1       32.474 -22.740   9.228  0.00  0.00    +0.241 HD
ENDBRANCH  18  21
ENDBRANCH  16  17
BRANCH  16  23
ATOM     23  O   LIG    1       28.654 -22.126   6.821  0.00  0.00    -0.382 OA
ATOM     24  H   LIG    1       29.155 -22.954   6.941  0.00  0.00    +0.210 HD
ENDBRANCH  16  23
ENDBRANCH  15  16
BRANCH  15  25
ATOM     25  C   LIG    1       29.137 -18.919   8.676  0.00  0.00    +0.018 C 
BRANCH  25  26
ATOM     26  C   LIG    1       30.117 -17.723   8.515  0.00  0.00    -0.016 C 
ATOM     27  C   LIG    1       31.491 -18.177   7.977  0.00  0.00    +0.007 C 
ATOM     28  C   LIG    1       30.346 -16.986   9.833  0.00  0.00    +0.007 C 
ENDBRANCH  25  26
ENDBRANCH  15  25
ENDBRANCH   3  15
TORSDOF 10
ENDMDL
MODEL 2
REMARK VINA RESULT:      -7.3      2.066      2.815
REMARK  Name = *****
REMARK                            x       y       z     vdW  Elec       q    Type
REMARK                         _______ _______ _______ _____ _____    ______ ____
ROOT
ATOM      1  N   LIG    1       26.383 -22.319   6.701  0.00  0.00    -0.303 N 
ATOM      2  H   LIG    1       26.800 -22.434   5.788  0.00  0.00    +0.149 HD
ATOM      3  C   LIG    1       27.166 -21.789   7.694  0.00  0.00    +0.220 C 
ATOM      4  O   LIG    1       26.882 -21.923   8.898  0.00  0.00    -0.275 OA
ENDROOT
BRANCH   1   5
ATOM      5  C   LIG    1       25.176 -23.137   6.964  0.00  0.00    +0.164 C 
BRANCH   5   9
ATOM      6  C   LIG    1       26.219 -26.768   6.183  0.00  0.00    +0.128 C 
ATOM      7  N   LIG    1       25.882 -25.522   6.837  0.00  0.00    -0.317 N 
ATOM      8  H   LIG    1       26.024 -25.442   7.836  0.00  0.00    +0.148 HD
ATOM      9  C   LIG    1       25.353 -24.457   6.140  0.00  0.00    +0.234 C 
ATOM     10  O   LIG    1       25.178 -24.522   4.927  0.00  0.00    -0.274 OA
ENDBRANCH   5   9
BRANCH   5  11
ATOM     11  C   LIG    1       23.853 -22.359   6.617  0.00  0.00    -0.011 C 
ATOM     12  C   LIG    1       22.648 -23.323   6.680  0.00  0.00    +0.013 C 
ATOM     13  C   LIG    1       23.912 -21.706   5.224  0.00  0.00    +0.013 C 
ATOM     14  C   LIG    1       23.566 -21.224   7.632  0.00  0.00    +0.013 C 
ENDBRANCH   5  11
ENDBRANCH   1   5
BRANCH   3  15
ATOM     15  C   LIG    1       28.366 -20.939   7.256  0.00  0.00    +0.113 C 
BRANCH  15  16
ATOM     16  C   LIG    1       29.210 -20.632   8.516  0.00  0.00    +0.214 C 
BRANCH  16  17
ATOM     17  C   LIG    1       30.701 -20.954   8.334  0.00  0.00    +0.265 C 
ATOM     18  N   LIG    1       31.004 -22.271   8.638  0.00  0.00    -0.195 N 
ATOM     19  H   LIG    1       30.342 -23.026   8.655  0.00  0.00    +0.182 HD
ATOM     20  O   LIG    1       31.553 -20.137   8.040  0.00  0.00    -0.271 OA
BRANCH  18  21
ATOM     21  O   LIG    1       32.387 -22.627   8.604  0.00  0.00    -0.295 OA
ATOM     22  H   LIG    1       32.743 -22.172   9.399  0.00  0.00    +0.241 HD
ENDBRANCH  18  21
ENDBRANCH  16  17
BRANCH  16  23
ATOM     23  O   LIG    1       29.152 -19.236   8.846  0.00  0.00    -0.382 OA
ATOM     24  H   LIG    1       28.501 -19.133   9.564  0.00  0.00    +0.210 HD
ENDBRANCH  16  23
ENDBRANCH  15  16
BRANCH  15  25
ATOM     25  C   LIG    1       27.817 -19.681   6.504  0.00  0.00    +0.018 C 
BRANCH  25  26
ATOM     26  C   LIG    1       28.616 -19.107   5.300  0.00  0.00    -0.016 C 
ATOM     27  C   LIG    1       29.932 -18.441   5.753  0.00  0.00    +0.007 C 
ATOM     28  C   LIG    1       27.810 -18.076   4.514  0.00  0.00    +0.007 C 
ENDBRANCH  25  26
ENDBRANCH  15  25
ENDBRANCH   3  15
TORSDOF 10
ENDMDL
MODEL 3
REMARK VINA RESULT:      -7.0      1.653      6.302
REMARK  Name = *****
REMARK                            x       y       z     vdW  Elec       q    Type
REMARK                         _______ _______ _______ _____ _____    ______ ____
ROOT
ATOM      1  N   LIG    1       27.476 -20.272   7.222  0.00  0.00    -0.303 N 
ATOM      2  H   LIG    1       27.193 -20.221   8.190  0.00  0.00    +0.149 HD
ATOM      3  C   LIG    1       26.519 -20.605   6.298  0.00  0.00    +0.220 C 
ATOM      4  O   LIG    1       26.817 -21.028   5.166  0.00  0.00    -0.275 OA
ENDROOT
BRANCH   1   5
ATOM      5  C   LIG    1       28.930 -20.433   6.985  0.00  0.00    +0.164 C 
BRANCH   5   9
ATOM      6  C   LIG    1       31.481 -22.331   9.170  0.00  0.00    +0.128 C 
ATOM      7  N   LIG    1       30.842 -21.461   8.206  0.00  0.00    -0.317 N 
ATOM      8  H   LIG    1       31.420 -20.952   7.549  0.00  0.00    +0.148 HD
ATOM      9  C   LIG    1       29.474 -21.294   8.174  0.00  0.00    +0.234 C 
ATOM     10  O   LIG    1       28.747 -21.904   8.952  0.00  0.00    -0.274 OA
ENDBRANCH   5   9
BRANCH   5  11
ATOM     11  C   LIG    1       29.657 -19.047   6.835  0.00  0.00    -0.011 C 
ATOM     12  C   LIG    1       29.466 -18.213   8.121  0.00  0.00    +0.013 C 
ATOM     13  C   LIG    1       29.137 -18.247   5.626  0.00  0.00    +0.013 C 
ATOM     14  C   LIG    1       31.185 -19.212   6.638  0.00  0.00    +0.013 C 
ENDBRANCH   5  11
ENDBRANCH   1   5
BRANCH   3  15
ATOM     15  C   LIG    1       25.057 -20.349   6.686  0.00  0.00    +0.113 C 
BRANCH  15  16
ATOM     16  C   LIG    1       24.648 -21.429   7.716  0.00  0.00    +0.214 C 
BRANCH  16  17
ATOM     17  C   LIG    1       24.638 -22.848   7.129  0.00  0.00    +0.265 C 
ATOM     18  N   LIG    1       23.358 -23.316   6.885  0.00  0.00    -0.195 N 
ATOM     19  H   LIG    1       22.544 -22.739   6.775  0.00  0.00    +0.182 HD
ATOM     20  O   LIG    1       25.629 -23.535   6.968  0.00  0.00    -0.271 OA
BRANCH  18  21
ATOM     21  O   LIG    1       23.252 -24.671   6.443  0.00  0.00    -0.295 OA
ATOM     22  H   LIG    1       22.570 -24.611   5.737  0.00  0.00    +0.241 HD
ENDBRANCH  18  21
ENDBRANCH  16  17
BRANCH  16  23
ATOM     23  O   LIG    1       25.574 -21.469   8.813  0.00  0.00    -0.382 OA
ATOM     24  H   LIG    1       26.439 -21.741   8.454  0.00  0.00    +0.210 HD
ENDBRANCH  16  23
ENDBRANCH  15  16
BRANCH  15  25
ATOM     25  C   LIG    1       24.206 -20.330   5.372  0.00  0.00    +0.018 C 
BRANCH  25  26
ATOM     26  C   LIG    1       22.706 -19.932   5.446  0.00  0.00    -0.016 C 
ATOM     27  C   LIG    1       21.792 -21.034   4.868  0.00  0.00    +0.007 C 
ATOM     28  C   LIG    1       22.418 -18.635   4.692  0.00  0.00    +0.007 C 
ENDBRANCH  25  26
ENDBRANCH  15  25
ENDBRANCH   3  15
TORSDOF 10
ENDMDL
MODEL 4
REMARK VINA RESULT:      -6.8      1.991      3.131
REMARK  Name = *****
REMARK                            x       y       z     vdW  Elec       q    Type
REMARK                         _______ _______ _______ _____ _____    ______ ____
ROOT
ATOM      1  N   LIG    1       26.905 -22.490   6.774  0.00  0.00    -0.303 N 
ATOM      2  H   LIG    1       27.349 -22.890   5.960  0.00  0.00    +0.149 HD
ATOM      3  C   LIG    1       27.670 -21.691   7.585  0.00  0.00    +0.220 C 
ATOM      4  O   LIG    1       27.343 -21.440   8.759  0.00  0.00    -0.275 OA
ENDROOT
BRANCH   1   5
ATOM      5  C   LIG    1       25.667 -23.165   7.228  0.00  0.00    +0.164 C 
BRANCH   5   9
ATOM      6  C   LIG    1       25.483 -26.106   4.740  0.00  0.00    +0.128 C 
ATOM      7  N   LIG    1       25.556 -24.796   5.350  0.00  0.00    -0.317 N 
ATOM      8  H   LIG    1       25.475 -23.978   4.760  0.00  0.00    +0.148 HD
ATOM      9  C   LIG    1       25.754 -24.637   6.705  0.00  0.00    +0.234 C 
ATOM     10  O   LIG    1       25.846 -25.611   7.446  0.00  0.00    -0.274 OA
ENDBRANCH   5   9
BRANCH   5  11
ATOM     11  C   LIG    1       24.375 -22.407   6.745  0.00  0.00    -0.011 C 
ATOM     12  C   LIG    1       24.519 -22.025   5.256  0.00  0.00    +0.013 C 
ATOM     13  C   LIG    1       24.104 -21.137   7.574  0.00  0.00    +0.013 C 
ATOM     14  C   LIG    1       23.109 -23.292   6.855  0.00  0.00    +0.013 C 
ENDBRANCH   5  11
ENDBRANCH   1   5
BRANCH   3  15
ATOM     15  C   LIG    1       28.908 -21.040   6.955  0.00  0.00    +0.113 C 
BRANCH  15  16
ATOM     16  C   LIG    1       30.087 -21.216   7.943  0.00  0.00    +0.214 C 
BRANCH  16  17
ATOM     17  C   LIG    1       30.683 -19.881   8.411  0.00  0.00    +0.265 C 
ATOM     18  N   LIG    1       31.646 -19.392   7.544  0.00  0.00    -0.195 N 
ATOM     19  H   LIG    1       31.740 -19.655   6.580  0.00  0.00    +0.182 HD
ATOM     20  O   LIG    1       30.416 -19.338   9.467  0.00  0.00    -0.271 OA
BRANCH  18  21
ATOM     21  O   LIG    1       32.333 -18.211   7.961  0.00  0.00    -0.295 OA
ATOM     22  H   LIG    1       31.662 -17.761   8.520  0.00  0.00    +0.241 HD
ENDBRANCH  18  21
ENDBRANCH  16  17
BRANCH  16  23
ATOM     23  O   LIG    1       29.660 -21.891   9.136  0.00  0.00    -0.382 OA
ATOM     24  H   LIG    1       28.700 -22.042   9.058  0.00  0.00    +0.210 HD
ENDBRANCH  16  23
ENDBRANCH  15  16
BRANCH  15  25
ATOM     25  C   LIG    1       28.550 -19.557   6.608  0.00  0.00    +0.018 C 
BRANCH  25  26
ATOM     26  C   LIG    1       28.251 -19.173   5.132  0.00  0.00    -0.016 C 
ATOM     27  C   LIG    1       28.563 -17.687   4.853  0.00  0.00    +0.007 C 
ATOM     28  C   LIG    1       26.794 -19.430   4.754  0.00  0.00    +0.007 C 
ENDBRANCH  25  26
ENDBRANCH  15  25
ENDBRANCH   3  15
TORSDOF 10
ENDMDL
MODEL 5
REMARK VINA RESULT:      -6.8      1.668      2.143
REMARK  Name = *****
REMARK                            x       y       z     vdW  Elec       q    Type
REMARK                         _______ _______ _______ _____ _____    ______ ____
ROOT
ATOM      1  N   LIG    1       26.259 -21.262   6.389  0.00  0.00    -0.303 N 
ATOM      2  H   LIG    1       26.639 -21.895   5.700  0.00  0.00    +0.149 HD
ATOM      3  C   LIG    1       27.026 -20.993   7.494  0.00  0.00    +0.220 C 
ATOM      4  O   LIG    1       26.535 -20.526   8.538  0.00  0.00    -0.275 OA
ENDROOT
BRANCH   1   5
ATOM      5  C   LIG    1       24.790 -21.078   6.352  0.00  0.00    +0.164 C 
BRANCH   5   9
ATOM      6  C   LIG    1       24.417 -24.916   6.419  0.00  0.00    +0.128 C 
ATOM      7  N   LIG    1       24.917 -23.564   6.295  0.00  0.00    -0.317 N 
ATOM      8  H   LIG    1       25.851 -23.421   5.932  0.00  0.00    +0.148 HD
ATOM      9  C   LIG    1       24.165 -22.475   6.680  0.00  0.00    +0.234 C 
ATOM     10  O   LIG    1       23.027 -22.618   7.117  0.00  0.00    -0.274 OA
ENDBRANCH   5   9
BRANCH   5  11
ATOM     11  C   LIG    1       24.308 -20.487   4.976  0.00  0.00    -0.011 C 
ATOM     12  C   LIG    1       25.412 -19.588   4.378  0.00  0.00    +0.013 C 
ATOM     13  C   LIG    1       23.008 -19.674   5.117  0.00  0.00    +0.013 C 
ATOM     14  C   LIG    1       24.030 -21.599   3.933  0.00  0.00    +0.013 C 
ENDBRANCH   5  11
ENDBRANCH   1   5
BRANCH   3  15
ATOM     15  C   LIG    1       28.540 -21.209   7.362  0.00  0.00    +0.113 C 
BRANCH  15  16
ATOM     16  C   LIG    1       29.200 -20.728   8.676  0.00  0.00    +0.214 C 
BRANCH  16  17
ATOM     17  C   LIG    1       30.708 -21.013   8.731  0.00  0.00    +0.265 C 
ATOM     18  N   LIG    1       31.013 -22.334   8.449  0.00  0.00    -0.195 N 
ATOM     19  H   LIG    1       30.415 -22.970   7.952  0.00  0.00    +0.182 HD
ATOM     20  O   LIG    1       31.552 -20.204   9.066  0.00  0.00    -0.271 OA
BRANCH  18  21
ATOM     21  O   LIG    1       32.383 -22.713   8.588  0.00  0.00    -0.295 OA
ATOM     22  H   LIG    1       32.755 -21.974   9.119  0.00  0.00    +0.241 HD
ENDBRANCH  18  21
ENDBRANCH  16  17
BRANCH  16  23
ATOM     23  O   LIG    1       29.068 -19.306   8.827  0.00  0.00    -0.382 OA
ATOM     24  H   LIG    1       28.971 -18.926   7.934  0.00  0.00    +0.210 HD
ENDBRANCH  16  23
ENDBRANCH  15  16
BRANCH  15  25
ATOM     25  C   LIG    1       29.020 -20.469   6.069  0.00  0.00    +0.018 C 
BRANCH  25  26
ATOM     26  C   LIG    1       29.364 -18.955   6.145  0.00  0.00    -0.016 C 
ATOM     27  C   LIG    1       28.697 -18.158   5.003  0.00  0.00    +0.007 C 
ATOM     28  C   LIG    1       30.869 -18.704   6.079  0.00  0.00    +0.007 C 
ENDBRANCH  25  26
ENDBRANCH  15  25
ENDBRANCH   3  15
TORSDOF 10
ENDMDL
MODEL 6
REMARK VINA RESULT:      -6.8      2.247      3.404
REMARK  Name = *****
REMARK                            x       y       z     vdW  Elec       q    Type
REMARK                         _______ _______ _______ _____ _____    ______ ____
ROOT
ATOM      1  N   LIG    1       26.215 -21.675   6.837  0.00  0.00    -0.303 N 
ATOM      2  H   LIG    1       26.713 -21.811   5.968  0.00  0.00    +0.149 HD
ATOM      3  C   LIG    1       26.874 -21.026   7.850  0.00  0.00    +0.220 C 
ATOM      4  O   LIG    1       26.504 -21.109   9.035  0.00  0.00    -0.275 OA
ENDROOT
BRANCH   1   5
ATOM      5  C   LIG    1       25.055 -22.568   7.060  0.00  0.00    +0.164 C 
BRANCH   5   9
ATOM      6  C   LIG    1       26.342 -26.116   6.264  0.00  0.00    +0.128 C 
ATOM      7  N   LIG    1       25.913 -24.902   6.924  0.00  0.00    -0.317 N 
ATOM      8  H   LIG    1       26.028 -24.825   7.927  0.00  0.00    +0.148 HD
ATOM      9  C   LIG    1       25.333 -23.864   6.227  0.00  0.00    +0.234 C 
ATOM     10  O   LIG    1       25.189 -23.926   5.009  0.00  0.00    -0.274 OA
ENDBRANCH   5   9
BRANCH   5  11
ATOM     11  C   LIG    1       23.696 -21.868   6.689  0.00  0.00    -0.011 C 
ATOM     12  C   LIG    1       22.545 -22.896   6.749  0.00  0.00    +0.013 C 
ATOM     13  C   LIG    1       23.736 -21.229   5.288  0.00  0.00    +0.013 C 
ATOM     14  C   LIG    1       23.334 -20.739   7.686  0.00  0.00    +0.013 C 
ENDBRANCH   5  11
ENDBRANCH   1   5
BRANCH   3  15
ATOM     15  C   LIG    1       28.040 -20.111   7.450  0.00  0.00    +0.113 C 
BRANCH  15  16
ATOM     16  C   LIG    1       28.123 -20.105   5.904  0.00  0.00    +0.214 C 
BRANCH  16  17
ATOM     17  C   LIG    1       28.477 -18.727   5.327  0.00  0.00    +0.265 C 
ATOM     18  N   LIG    1       27.505 -18.240   4.469  0.00  0.00    -0.195 N 
ATOM     19  H   LIG    1       26.548 -18.543   4.451  0.00  0.00    +0.182 HD
ATOM     20  O   LIG    1       29.529 -18.147   5.521  0.00  0.00    -0.271 OA
BRANCH  18  21
ATOM     21  O   LIG    1       27.806 -17.014   3.799  0.00  0.00    -0.295 OA
ATOM     22  H   LIG    1       28.535 -17.277   3.193  0.00  0.00    +0.241 HD
ENDBRANCH  18  21
ENDBRANCH  16  17
BRANCH  16  23
ATOM     23  O   LIG    1       29.148 -20.995   5.441  0.00  0.00    -0.382 OA
ATOM     24  H   LIG    1       29.800 -21.089   6.160  0.00  0.00    +0.210 HD
ENDBRANCH  16  23
ENDBRANCH  15  16
BRANCH  15  25
ATOM     25  C   LIG    1       29.325 -20.623   8.180  0.00  0.00    +0.018 C 
BRANCH  25  26
ATOM     26  C   LIG    1       30.405 -19.596   8.624  0.00  0.00    -0.016 C 
ATOM     27  C   LIG    1       29.789 -18.215   8.932  0.00  0.00    +0.007 C 
ATOM     28  C   LIG    1       31.487 -19.405   7.564  0.00  0.00    +0.007 C 
ENDBRANCH  25  26
ENDBRANCH  15  25
ENDBRANCH   3  15
TORSDOF 10
ENDMDL
MODEL 7
REMARK VINA RESULT:      -6.5      1.571      2.819
REMARK  Name = *****
REMARK                            x       y       z     vdW  Elec       q    Type
REMARK                         _______ _______ _______ _____ _____    ______ ____
ROOT
ATOM      1  N   LIG    1       26.569 -21.914   6.454  0.00  0.00    -0.303 N 
ATOM      2  H   LIG    1       26.768 -22.343   7.347  0.00  0.00    +0.149 HD
ATOM      3  C   LIG    1       27.268 -20.781   6.126  0.00  0.00    +0.220 C 
ATOM      4  O   LIG    1       26.872 -19.997   5.244  0.00  0.00    -0.275 OA
ENDROOT
BRANCH   1   5
ATOM      5  C   LIG    1       25.271 -22.278   5.842  0.00  0.00    +0.164 C 
BRANCH   5   9
ATOM      6  C   LIG    1       22.637 -19.471   5.599  0.00  0.00    +0.128 C 
ATOM      7  N   LIG    1       23.532 -20.573   5.322  0.00  0.00    -0.317 N 
ATOM      8  H   LIG    1       23.622 -20.900   4.368  0.00  0.00    +0.148 HD
ATOM      9  C   LIG    1       24.242 -21.201   6.322  0.00  0.00    +0.234 C 
ATOM     10  O   LIG    1       24.159 -20.822   7.487  0.00  0.00    -0.274 OA
ENDBRANCH   5   9
BRANCH   5  11
ATOM     11  C   LIG    1       24.845 -23.750   6.200  0.00  0.00    -0.011 C 
ATOM     12  C   LIG    1       24.992 -24.654   4.956  0.00  0.00    +0.013 C 
ATOM     13  C   LIG    1       23.397 -23.826   6.717  0.00  0.00    +0.013 C 
ATOM     14  C   LIG    1       25.747 -24.363   7.300  0.00  0.00    +0.013 C 
ENDBRANCH   5  11
ENDBRANCH   1   5
BRANCH   3  15
ATOM     15  C   LIG    1       28.613 -20.563   6.831  0.00  0.00    +0.113 C 
BRANCH  15  16
ATOM     16  C   LIG    1       28.752 -21.648   7.925  0.00  0.00    +0.214 C 
BRANCH  16  17
ATOM     17  C   LIG    1       30.092 -21.580   8.673  0.00  0.00    +0.265 C 
ATOM     18  N   LIG    1       31.054 -22.410   8.123  0.00  0.00    -0.195 N 
ATOM     19  H   LIG    1       31.039 -22.768   7.185  0.00  0.00    +0.182 HD
ATOM     20  O   LIG    1       30.283 -20.940   9.689  0.00  0.00    -0.271 OA
BRANCH  18  21
ATOM     21  O   LIG    1       32.296 -22.494   8.824  0.00  0.00    -0.295 OA
ATOM     22  H   LIG    1       32.832 -23.074   8.239  0.00  0.00    +0.241 HD
ENDBRANCH  18  21
ENDBRANCH  16  17
BRANCH  16  23
ATOM     23  O   LIG    1       27.738 -21.497   8.930  0.00  0.00    -0.382 OA
ATOM     24  H   LIG    1       27.818 -22.253   9.541  0.00  0.00    +0.210 HD
ENDBRANCH  16  23
ENDBRANCH  15  16
BRANCH  15  25
ATOM     25  C   LIG    1       28.651 -19.088   7.351  0.00  0.00    +0.018 C 
BRANCH  25  26
ATOM     26  C   LIG    1       29.978 -18.284   7.260  0.00  0.00    -0.016 C 
ATOM     27  C   LIG    1       31.116 -19.126   6.643  0.00  0.00    +0.007 C 
ATOM     28  C   LIG    1       30.445 -17.788   8.627  0.00  0.00    +0.007 C 
ENDBRANCH  25  26
ENDBRANCH  15  25
ENDBRANCH   3  15
TORSDOF 10
ENDMDL
MODEL 8
REMARK VINA RESULT:      -6.5      1.699      6.493
REMARK  Name = *****
REMARK                            x       y       z     vdW  Elec       q    Type
REMARK                         _______ _______ _______ _____ _____    ______ ____
ROOT
ATOM      1  N   LIG    1       29.171 -19.201   8.092  0.00  0.00    -0.303 N 
ATOM      2  H   LIG    1       28.684 -19.401   8.955  0.00  0.00    +0.149 HD
ATOM      3  C   LIG    1       28.611 -19.660   6.927  0.00  0.00    +0.220 C 
ATOM      4  O   LIG    1       29.274 -19.776   5.880  0.00  0.00    -0.275 OA
ENDROOT
BRANCH   1   5
ATOM      5  C   LIG    1       30.606 -18.861   8.228  0.00  0.00    +0.164 C 
BRANCH   5   9
ATOM      6  C   LIG    1       31.113 -22.615   8.953  0.00  0.00    +0.128 C 
ATOM      7  N   LIG    1       30.636 -21.340   8.464  0.00  0.00    -0.317 N 
ATOM      8  H   LIG    1       29.783 -21.314   7.919  0.00  0.00    +0.148 HD
ATOM      9  C   LIG    1       31.324 -20.169   8.701  0.00  0.00    +0.234 C 
ATOM     10  O   LIG    1       32.356 -20.168   9.366  0.00  0.00    -0.274 OA
ENDBRANCH   5   9
BRANCH   5  11
ATOM     11  C   LIG    1       30.830 -17.642   9.197  0.00  0.00    -0.011 C 
ATOM     12  C   LIG    1       29.877 -16.488   8.815  0.00  0.00    +0.013 C 
ATOM     13  C   LIG    1       32.284 -17.134   9.166  0.00  0.00    +0.013 C 
ATOM     14  C   LIG    1       30.516 -18.006  10.670  0.00  0.00    +0.013 C 
ENDBRANCH   5  11
ENDBRANCH   1   5
BRANCH   3  15
ATOM     15  C   LIG    1       27.103 -19.940   6.942  0.00  0.00    +0.113 C 
BRANCH  15  16
ATOM     16  C   LIG    1       26.807 -20.860   8.152  0.00  0.00    +0.214 C 
BRANCH  16  17
ATOM     17  C   LIG    1       25.538 -21.704   7.969  0.00  0.00    +0.265 C 
ATOM     18  N   LIG    1       24.377 -20.960   8.100  0.00  0.00    -0.195 N 
ATOM     19  H   LIG    1       24.317 -19.963   7.997  0.00  0.00    +0.182 HD
ATOM     20  O   LIG    1       25.528 -22.910   7.811  0.00  0.00    -0.271 OA
BRANCH  18  21
ATOM     21  O   LIG    1       23.148 -21.688   8.056  0.00  0.00    -0.295 OA
ATOM     22  H   LIG    1       22.604 -21.149   7.439  0.00  0.00    +0.241 HD
ENDBRANCH  18  21
ENDBRANCH  16  17
BRANCH  16  23
ATOM     23  O   LIG    1       27.873 -21.799   8.354  0.00  0.00    -0.382 OA
ATOM     24  H   LIG    1       28.294 -21.955   7.488  0.00  0.00    +0.210 HD
ENDBRANCH  16  23
ENDBRANCH  15  16
BRANCH  15  25
ATOM     25  C   LIG    1       26.709 -20.531   5.548  0.00  0.00    +0.018 C 
BRANCH  25  26
ATOM     26  C   LIG    1       25.353 -20.122   4.906  0.00  0.00    -0.016 C 
ATOM     27  C   LIG    1       24.548 -21.353   4.437  0.00  0.00    +0.007 C 
ATOM     28  C   LIG    1       25.541 -19.195   3.707  0.00  0.00    +0.007 C 
ENDBRANCH  25  26
ENDBRANCH  15  25
ENDBRANCH   3  15
TORSDOF 10
ENDMDL
MODEL 9
REMARK VINA RESULT:      -6.4      4.003      7.449
REMARK  Name = *****
REMARK                            x       y       z     vdW  Elec       q    Type
REMARK                         _______ _______ _______ _____ _____    ______ ____
ROOT
ATOM      1  N   LIG    1       25.990 -23.815   6.928  0.00  0.00    -0.303 N 
ATOM      2  H   LIG    1       26.936 -23.828   6.573  0.00  0.00    +0.149 HD
ATOM      3  C   LIG    1       25.262 -24.974   6.835  0.00  0.00    +0.220 C 
ATOM      4  O   LIG    1       24.020 -24.978   6.913  0.00  0.00    -0.275 OA
ENDROOT
BRANCH   1   5
ATOM      5  C   LIG    1       25.375 -22.475   7.071  0.00  0.00    +0.164 C 
BRANCH   5   9
ATOM      6  C   LIG    1       22.503 -21.226   4.820  0.00  0.00    +0.128 C 
ATOM      7  N   LIG    1       23.431 -21.441   5.909  0.00  0.00    -0.317 N 
ATOM      8  H   LIG    1       23.256 -20.984   6.796  0.00  0.00    +0.148 HD
ATOM      9  C   LIG    1       24.552 -22.229   5.763  0.00  0.00    +0.234 C 
ATOM     10  O   LIG    1       24.785 -22.802   4.703  0.00  0.00    -0.274 OA
ENDBRANCH   5   9
BRANCH   5  11
ATOM     11  C   LIG    1       26.453 -21.363   7.348  0.00  0.00    -0.011 C 
ATOM     12  C   LIG    1       26.064 -20.561   8.610  0.00  0.00    +0.013 C 
ATOM     13  C   LIG    1       26.609 -20.397   6.159  0.00  0.00    +0.013 C 
ATOM     14  C   LIG    1       27.853 -21.967   7.622  0.00  0.00    +0.013 C 
ENDBRANCH   5  11
ENDBRANCH   1   5
BRANCH   3  15
ATOM     15  C   LIG    1       26.050 -26.285   6.721  0.00  0.00    +0.113 C 
BRANCH  15  16
ATOM     16  C   LIG    1       25.979 -26.750   5.247  0.00  0.00    +0.214 C 
BRANCH  16  17
ATOM     17  C   LIG    1       25.273 -28.103   5.076  0.00  0.00    +0.265 C 
ATOM     18  N   LIG    1       23.907 -28.025   5.296  0.00  0.00    -0.195 N 
ATOM     19  H   LIG    1       23.363 -27.182   5.247  0.00  0.00    +0.182 HD
ATOM     20  O   LIG    1       25.841 -29.155   4.856  0.00  0.00    -0.271 OA
BRANCH  18  21
ATOM     21  O   LIG    1       23.189 -29.259   5.268  0.00  0.00    -0.295 OA
ATOM     22  H   LIG    1       23.542 -29.692   4.459  0.00  0.00    +0.241 HD
ENDBRANCH  18  21
ENDBRANCH  16  17
BRANCH  16  23
ATOM     23  O   LIG    1       25.232 -25.819   4.450  0.00  0.00    -0.382 OA
ATOM     24  H   LIG    1       25.586 -24.928   4.633  0.00  0.00    +0.210 HD
ENDBRANCH  16  23
ENDBRANCH  15  16
BRANCH  15  25
ATOM     25  C   LIG    1       25.462 -27.294   7.763  0.00  0.00    +0.018 C 
BRANCH  25  26
ATOM     26  C   LIG    1       26.389 -28.382   8.373  0.00  0.00    -0.016 C 
ATOM     27  C   LIG    1       25.752 -29.786   8.293  0.00  0.00    +0.007 C 
ATOM     28  C   LIG    1       26.724 -28.098   9.836  0.00  0.00    +0.007 C 
ENDBRANCH  25  26
ENDBRANCH  15  25
ENDBRANCH   3  15
TORSDOF 10
ENDMDL
