MODEL 1
REMARK VINA RESULT:      -7.7      0.000      0.000
REMARK  Name = *****
REMARK                            x       y       z     vdW  Elec       q    Type
REMARK                         _______ _______ _______ _____ _____    ______ ____
ROOT
ATOM      1  C   LIG    1       27.130 -21.832   7.660  0.00  0.00    +0.161 C 
ENDROOT
BRANCH   1   2
ATOM      2  C   LIG    1       28.422 -21.028   7.571  0.00  0.00    -0.014 A 
ATOM      3  C   LIG    1       29.542 -21.332   8.355  0.00  0.00    +0.055 A 
ATOM      4  C   LIG    1       30.702 -20.579   8.239  0.00  0.00    +0.159 A 
ATOM      5  C   LIG    1       30.775 -19.515   7.341  0.00  0.00    +0.158 A 
ATOM      6  C   LIG    1       29.687 -19.207   6.538  0.00  0.00    +0.049 A 
ATOM      7  C   LIG    1       28.520 -19.970   6.646  0.00  0.00    +0.010 A 
BRANCH   4   8
ATOM      8  O   LIG    1       31.779 -20.894   9.013  0.00  0.00    -0.503 OA
ATOM      9  H   LIG    1       31.956 -20.081   9.526  0.00  0.00    +0.292 HD
ENDBRANCH   4   8
BRANCH   5  10
ATOM     10  O   LIG    1       31.946 -18.815   7.291  0.00  0.00    -0.503 OA
ATOM     11  H   LIG    1       32.616 -19.322   7.783  0.00  0.00    +0.292 HD
ENDBRANCH   5  10
ENDBRANCH   1   2
BRANCH   1  12
ATOM     12  O   LIG    1       26.586 -21.687   8.974  0.00  0.00    -0.386 OA
ATOM     13  H   LIG    1       26.895 -20.826   9.301  0.00  0.00    +0.210 HD
ENDBRANCH   1  12
BRANCH   1  14
ATOM     14  C   LIG    1       26.018 -21.634   6.552  0.00  0.00    +0.087 C 
BRANCH  14  16
ATOM     15  C   LIG    1       23.652 -20.601   6.271  0.00  0.00    +0.005 C 
ATOM     16  C   LIG    1       24.882 -20.758   7.158  0.00  0.00    +0.018 C 
ENDBRANCH  14  16
BRANCH  14  17
ATOM     17  N   LIG    1       25.404 -22.822   5.905  0.00  0.00    -0.308 NA
ATOM     18  H   LIG    1       25.991 -23.109   5.123  0.00  0.00    +0.122 HD
BRANCH  17  19
ATOM     19  C   LIG    1       25.116 -24.001   6.728  0.00  0.00    +0.048 C 
ATOM     20  C   LIG    1       25.928 -25.243   6.363  0.00  0.00    +0.024 C 
ATOM     21  C   LIG    1       23.621 -24.327   6.594  0.00  0.00    +0.024 C 
ENDBRANCH  17  19
ENDBRANCH  14  17
ENDBRANCH   1  14
TORSDOF 8
ENDMDL
MODEL 2
REMARK VINA RESULT:      -7.6      0.688      1.650
REMARK  Name = *****
REMARK                            x       y       z     vdW  Elec       q    Type
REMARK                         _______ _______ _______ _____ _____    ______ ____
ROOT
ATOM      1  C   LIG    1       27.131 -21.813   7.577  0.00  0.00    +0.161 C 
ENDROOT
BRANCH   1   2
ATOM      2  C   LIG    1       28.418 -21.009   7.444  0.00  0.00    -0.014 A 
ATOM      3  C   LIG    1       28.538 -19.940   6.546  0.00  0.00    +0.055 A 
ATOM      4  C   LIG    1       29.726 -19.228   6.461  0.00  0.00    +0.159 A 
ATOM      5  C   LIG    1       30.815 -19.558   7.267  0.00  0.00    +0.158 A 
ATOM      6  C   LIG    1       30.715 -20.597   8.180  0.00  0.00    +0.049 A 
ATOM      7  C   LIG    1       29.516 -21.311   8.274  0.00  0.00    +0.010 A 
BRANCH   4   8
ATOM      8  O   LIG    1       29.818 -18.193   5.578  0.00  0.00    -0.503 OA
ATOM      9  H   LIG    1       30.174 -17.453   6.108  0.00  0.00    +0.292 HD
ENDBRANCH   4   8
BRANCH   5  10
ATOM     10  O   LIG    1       31.952 -18.817   7.118  0.00  0.00    -0.503 OA
ATOM     11  H   LIG    1       32.644 -19.402   6.761  0.00  0.00    +0.292 HD
ENDBRANCH   5  10
ENDBRANCH   1   2
BRANCH   1  12
ATOM     12  O   LIG    1       26.632 -21.669   8.908  0.00  0.00    -0.386 OA
ATOM     13  H   LIG    1       26.043 -20.897   8.894  0.00  0.00    +0.210 HD
ENDBRANCH   1  12
BRANCH   1  14
ATOM     14  C   LIG    1       25.982 -21.615   6.508  0.00  0.00    +0.087 C 
BRANCH  14  16
ATOM     15  C   LIG    1       23.595 -20.610   6.324  0.00  0.00    +0.005 C 
ATOM     16  C   LIG    1       24.869 -20.735   7.150  0.00  0.00    +0.018 C 
ENDBRANCH  14  16
BRANCH  14  17
ATOM     17  N   LIG    1       25.343 -22.803   5.885  0.00  0.00    -0.308 NA
ATOM     18  H   LIG    1       25.902 -23.093   5.083  0.00  0.00    +0.122 HD
BRANCH  17  19
ATOM     19  C   LIG    1       25.083 -23.981   6.720  0.00  0.00    +0.048 C 
ATOM     20  C   LIG    1       25.909 -25.213   6.353  0.00  0.00    +0.024 C 
ATOM     21  C   LIG    1       23.591 -24.329   6.607  0.00  0.00    +0.024 C 
ENDBRANCH  17  19
ENDBRANCH  14  17
ENDBRANCH   1  14
TORSDOF 8
ENDMDL
MODEL 3
REMARK VINA RESULT:      -7.3      2.009      2.838
REMARK  Name = *****
REMARK                            x       y       z     vdW  Elec       q    Type
REMARK                         _______ _______ _______ _____ _____    ______ ____
ROOT
ATOM      1  C   LIG    1       25.325 -20.374   4.817  0.00  0.00    +0.161 C 
ENDROOT
BRANCH   1   2
ATOM      2  C   LIG    1       26.447 -20.317   5.847  0.00  0.00    -0.014 A 
ATOM      3  C   LIG    1       27.783 -20.105   5.480  0.00  0.00    +0.055 A 
ATOM      4  C   LIG    1       28.774 -20.054   6.449  0.00  0.00    +0.159 A 
ATOM      5  C   LIG    1       28.461 -20.205   7.799  0.00  0.00    +0.158 A 
ATOM      6  C   LIG    1       27.144 -20.395   8.191  0.00  0.00    +0.049 A 
ATOM      7  C   LIG    1       26.141 -20.438   7.217  0.00  0.00    +0.010 A 
BRANCH   4   8
ATOM      8  O   LIG    1       30.067 -19.847   6.067  0.00  0.00    -0.503 OA
ATOM      9  H   LIG    1       30.282 -20.620   5.509  0.00  0.00    +0.292 HD
ENDBRANCH   4   8
BRANCH   5  10
ATOM     10  O   LIG    1       29.492 -20.152   8.692  0.00  0.00    -0.503 OA
ATOM     11  H   LIG    1       30.317 -20.034   8.188  0.00  0.00    +0.292 HD
ENDBRANCH   5  10
ENDBRANCH   1   2
BRANCH   1  12
ATOM     12  O   LIG    1       25.867 -20.086   3.527  0.00  0.00    -0.386 OA
ATOM     13  H   LIG    1       25.803 -19.122   3.415  0.00  0.00    +0.210 HD
ENDBRANCH   1  12
BRANCH   1  14
ATOM     14  C   LIG    1       24.380 -21.642   4.773  0.00  0.00    +0.087 C 
BRANCH  14  16
ATOM     15  C   LIG    1       22.648 -19.942   5.695  0.00  0.00    +0.005 C 
ATOM     16  C   LIG    1       23.166 -21.375   5.710  0.00  0.00    +0.018 C 
ENDBRANCH  14  16
BRANCH  14  17
ATOM     17  N   LIG    1       24.935 -22.984   5.090  0.00  0.00    -0.308 NA
ATOM     18  H   LIG    1       25.948 -22.952   4.985  0.00  0.00    +0.122 HD
BRANCH  17  19
ATOM     19  C   LIG    1       24.621 -23.585   6.391  0.00  0.00    +0.048 C 
ATOM     20  C   LIG    1       25.836 -23.837   7.283  0.00  0.00    +0.024 C 
ATOM     21  C   LIG    1       23.901 -24.919   6.142  0.00  0.00    +0.024 C 
ENDBRANCH  17  19
ENDBRANCH  14  17
ENDBRANCH   1  14
TORSDOF 8
ENDMDL
MODEL 4
REMARK VINA RESULT:      -7.2      2.582      6.088
REMARK  Name = *****
REMARK                            x       y       z     vdW  Elec       q    Type
REMARK                         _______ _______ _______ _____ _____    ______ ____
ROOT
ATOM      1  C   LIG    1       26.697 -20.387   7.829  0.00  0.00    +0.161 C 
ENDROOT
BRANCH   1   2
ATOM      2  C   LIG    1       26.048 -21.532   7.061  0.00  0.00    -0.014 A 
ATOM      3  C   LIG    1       25.304 -21.316   5.893  0.00  0.00    +0.055 A 
ATOM      4  C   LIG    1       24.736 -22.388   5.219  0.00  0.00    +0.159 A 
ATOM      5  C   LIG    1       24.897 -23.691   5.685  0.00  0.00    +0.158 A 
ATOM      6  C   LIG    1       25.646 -23.934   6.827  0.00  0.00    +0.049 A 
ATOM      7  C   LIG    1       26.228 -22.857   7.503  0.00  0.00    +0.010 A 
BRANCH   4   8
ATOM      8  O   LIG    1       24.016 -22.152   4.085  0.00  0.00    -0.503 OA
ATOM      9  H   LIG    1       24.544 -21.493   3.594  0.00  0.00    +0.292 HD
ENDBRANCH   4   8
BRANCH   5  10
ATOM     10  O   LIG    1       24.299 -24.691   4.973  0.00  0.00    -0.503 OA
ATOM     11  H   LIG    1       24.883 -25.469   5.004  0.00  0.00    +0.292 HD
ENDBRANCH   5  10
ENDBRANCH   1   2
BRANCH   1  12
ATOM     12  O   LIG    1       26.260 -20.438   9.189  0.00  0.00    -0.386 OA
ATOM     13  H   LIG    1       26.485 -21.327   9.511  0.00  0.00    +0.210 HD
ENDBRANCH   1  12
BRANCH   1  14
ATOM     14  C   LIG    1       28.263 -20.182   7.735  0.00  0.00    +0.087 C 
BRANCH  14  16
ATOM     15  C   LIG    1       29.125 -18.833   5.692  0.00  0.00    +0.005 C 
ATOM     16  C   LIG    1       28.662 -20.181   6.231  0.00  0.00    +0.018 C 
ENDBRANCH  14  16
BRANCH  14  17
ATOM     17  N   LIG    1       29.170 -21.107   8.463  0.00  0.00    -0.308 NA
ATOM     18  H   LIG    1       28.978 -22.061   8.160  0.00  0.00    +0.122 HD
BRANCH  17  19
ATOM     19  C   LIG    1       30.617 -20.878   8.387  0.00  0.00    +0.048 C 
ATOM     20  C   LIG    1       31.463 -21.913   9.130  0.00  0.00    +0.024 C 
ATOM     21  C   LIG    1       30.913 -19.486   8.963  0.00  0.00    +0.024 C 
ENDBRANCH  17  19
ENDBRANCH  14  17
ENDBRANCH   1  14
TORSDOF 8
ENDMDL
MODEL 5
REMARK VINA RESULT:      -7.2      1.768      2.584
REMARK  Name = *****
REMARK                            x       y       z     vdW  Elec       q    Type
REMARK                         _______ _______ _______ _____ _____    ______ ____
ROOT
ATOM      1  C   LIG    1       27.443 -19.877   6.147  0.00  0.00    +0.161 C 
ENDROOT
BRANCH   1   2
ATOM      2  C   LIG    1       28.725 -19.958   6.966  0.00  0.00    -0.014 A 
ATOM      3  C   LIG    1       29.547 -18.842   7.173  0.00  0.00    +0.055 A 
ATOM      4  C   LIG    1       30.704 -18.957   7.931  0.00  0.00    +0.159 A 
ATOM      5  C   LIG    1       31.065 -20.176   8.503  0.00  0.00    +0.158 A 
ATOM      6  C   LIG    1       30.257 -21.290   8.332  0.00  0.00    +0.049 A 
ATOM      7  C   LIG    1       29.086 -21.176   7.576  0.00  0.00    +0.010 A 
BRANCH   4   8
ATOM      8  O   LIG    1       31.488 -17.857   8.117  0.00  0.00    -0.503 OA
ATOM      9  H   LIG    1       32.000 -17.780   7.288  0.00  0.00    +0.292 HD
ENDBRANCH   4   8
BRANCH   5  10
ATOM     10  O   LIG    1       32.221 -20.211   9.227  0.00  0.00    -0.503 OA
ATOM     11  H   LIG    1       32.965 -20.119   8.605  0.00  0.00    +0.292 HD
ENDBRANCH   5  10
ENDBRANCH   1   2
BRANCH   1  12
ATOM     12  O   LIG    1       27.739 -20.220   4.792  0.00  0.00    -0.386 OA
ATOM     13  H   LIG    1       27.742 -21.190   4.753  0.00  0.00    +0.210 HD
ENDBRANCH   1  12
BRANCH   1  14
ATOM     14  C   LIG    1       26.149 -20.630   6.661  0.00  0.00    +0.087 C 
BRANCH  14  16
ATOM     15  C   LIG    1       25.855 -21.793   8.963  0.00  0.00    +0.005 C 
ATOM     16  C   LIG    1       26.089 -20.489   8.210  0.00  0.00    +0.018 C 
ENDBRANCH  14  16
BRANCH  14  17
ATOM     17  N   LIG    1       25.941 -22.059   6.309  0.00  0.00    -0.308 NA
ATOM     18  H   LIG    1       25.899 -22.605   7.168  0.00  0.00    +0.122 HD
BRANCH  17  19
ATOM     19  C   LIG    1       24.790 -22.418   5.474  0.00  0.00    +0.048 C 
ATOM     20  C   LIG    1       24.300 -21.299   4.554  0.00  0.00    +0.024 C 
ATOM     21  C   LIG    1       23.639 -22.841   6.399  0.00  0.00    +0.024 C 
ENDBRANCH  17  19
ENDBRANCH  14  17
ENDBRANCH   1  14
TORSDOF 8
ENDMDL
MODEL 6
REMARK VINA RESULT:      -7.2      2.685      6.279
REMARK  Name = *****
REMARK                            x       y       z     vdW  Elec       q    Type
REMARK                         _______ _______ _______ _____ _____    ______ ____
ROOT
ATOM      1  C   LIG    1       25.960 -20.718   8.079  0.00  0.00    +0.161 C 
ENDROOT
BRANCH   1   2
ATOM      2  C   LIG    1       25.312 -21.990   7.545  0.00  0.00    -0.014 A 
ATOM      3  C   LIG    1       23.944 -22.058   7.247  0.00  0.00    +0.055 A 
ATOM      4  C   LIG    1       23.394 -23.233   6.756  0.00  0.00    +0.159 A 
ATOM      5  C   LIG    1       24.188 -24.361   6.547  0.00  0.00    +0.158 A 
ATOM      6  C   LIG    1       25.548 -24.313   6.814  0.00  0.00    +0.049 A 
ATOM      7  C   LIG    1       26.107 -23.126   7.300  0.00  0.00    +0.010 A 
BRANCH   4   8
ATOM      8  O   LIG    1       22.061 -23.275   6.474  0.00  0.00    -0.503 OA
ATOM      9  H   LIG    1       21.674 -22.563   7.019  0.00  0.00    +0.292 HD
ENDBRANCH   4   8
BRANCH   5  10
ATOM     10  O   LIG    1       23.571 -25.482   6.071  0.00  0.00    -0.503 OA
ATOM     11  H   LIG    1       22.615 -25.382   6.221  0.00  0.00    +0.292 HD
ENDBRANCH   5  10
ENDBRANCH   1   2
BRANCH   1  12
ATOM     12  O   LIG    1       25.857 -20.711   9.504  0.00  0.00    -0.386 OA
ATOM     13  H   LIG    1       25.073 -20.176   9.715  0.00  0.00    +0.210 HD
ENDBRANCH   1  12
BRANCH   1  14
ATOM     14  C   LIG    1       27.423 -20.340   7.608  0.00  0.00    +0.087 C 
BRANCH  14  16
ATOM     15  C   LIG    1       28.096 -19.250   5.350  0.00  0.00    +0.005 C 
ATOM     16  C   LIG    1       27.475 -20.449   6.055  0.00  0.00    +0.018 C 
ENDBRANCH  14  16
BRANCH  14  17
ATOM     17  N   LIG    1       28.589 -21.069   8.171  0.00  0.00    -0.308 NA
ATOM     18  H   LIG    1       28.607 -22.010   7.779  0.00  0.00    +0.122 HD
BRANCH  17  19
ATOM     19  C   LIG    1       29.924 -20.479   8.026  0.00  0.00    +0.048 C 
ATOM     20  C   LIG    1       31.024 -21.200   8.806  0.00  0.00    +0.024 C 
ATOM     21  C   LIG    1       29.856 -19.018   8.495  0.00  0.00    +0.024 C 
ENDBRANCH  17  19
ENDBRANCH  14  17
ENDBRANCH   1  14
TORSDOF 8
ENDMDL
MODEL 7
REMARK VINA RESULT:      -7.2      4.045      7.531
REMARK  Name = *****
REMARK                            x       y       z     vdW  Elec       q    Type
REMARK                         _______ _______ _______ _____ _____    ______ ____
ROOT
ATOM      1  C   LIG    1       25.490 -24.970   5.612  0.00  0.00    +0.161 C 
ENDROOT
BRANCH   1   2
ATOM      2  C   LIG    1       25.260 -26.389   6.118  0.00  0.00    -0.014 A 
ATOM      3  C   LIG    1       24.337 -27.253   5.515  0.00  0.00    +0.055 A 
ATOM      4  C   LIG    1       24.163 -28.540   6.003  0.00  0.00    +0.159 A 
ATOM      5  C   LIG    1       24.902 -28.997   7.094  0.00  0.00    +0.158 A 
ATOM      6  C   LIG    1       25.838 -28.169   7.695  0.00  0.00    +0.049 A 
ATOM      7  C   LIG    1       26.022 -26.873   7.199  0.00  0.00    +0.010 A 
BRANCH   4   8
ATOM      8  O   LIG    1       23.257 -29.363   5.400  0.00  0.00    -0.503 OA
ATOM      9  H   LIG    1       22.588 -29.536   6.090  0.00  0.00    +0.292 HD
ENDBRANCH   4   8
BRANCH   5  10
ATOM     10  O   LIG    1       24.667 -30.272   7.522  0.00  0.00    -0.503 OA
ATOM     11  H   LIG    1       23.743 -30.492   7.307  0.00  0.00    +0.292 HD
ENDBRANCH   5  10
ENDBRANCH   1   2
BRANCH   1  12
ATOM     12  O   LIG    1       24.819 -24.813   4.360  0.00  0.00    -0.386 OA
ATOM     13  H   LIG    1       25.479 -25.009   3.673  0.00  0.00    +0.210 HD
ENDBRANCH   1  12
BRANCH   1  14
ATOM     14  C   LIG    1       25.201 -23.749   6.576  0.00  0.00    +0.087 C 
BRANCH  14  16
ATOM     15  C   LIG    1       23.040 -22.310   6.538  0.00  0.00    +0.005 C 
ATOM     16  C   LIG    1       23.664 -23.673   6.813  0.00  0.00    +0.018 C 
ENDBRANCH  14  16
BRANCH  14  17
ATOM     17  N   LIG    1       25.690 -22.393   6.213  0.00  0.00    -0.308 NA
ATOM     18  H   LIG    1       24.887 -21.777   6.093  0.00  0.00    +0.122 HD
BRANCH  17  19
ATOM     19  C   LIG    1       26.654 -21.733   7.099  0.00  0.00    +0.048 C 
ATOM     20  C   LIG    1       26.080 -21.289   8.444  0.00  0.00    +0.024 C 
ATOM     21  C   LIG    1       27.215 -20.504   6.367  0.00  0.00    +0.024 C 
ENDBRANCH  17  19
ENDBRANCH  14  17
ENDBRANCH   1  14
TORSDOF 8
ENDMDL
MODEL 8
REMARK VINA RESULT:      -7.2      1.592      2.743
REMARK  Name = *****
REMARK                            x       y       z     vdW  Elec       q    Type
REMARK                         _______ _______ _______ _____ _____    ______ ____
ROOT
ATOM      1  C   LIG    1       26.920 -21.563   7.352  0.00  0.00    +0.161 C 
ENDROOT
BRANCH   1   2
ATOM      2  C   LIG    1       28.260 -20.841   7.281  0.00  0.00    -0.014 A 
ATOM      3  C   LIG    1       28.494 -19.793   6.381  0.00  0.00    +0.055 A 
ATOM      4  C   LIG    1       29.727 -19.157   6.354  0.00  0.00    +0.159 A 
ATOM      5  C   LIG    1       30.749 -19.543   7.220  0.00  0.00    +0.158 A 
ATOM      6  C   LIG    1       30.537 -20.563   8.135  0.00  0.00    +0.049 A 
ATOM      7  C   LIG    1       29.292 -21.201   8.171  0.00  0.00    +0.010 A 
BRANCH   4   8
ATOM      8  O   LIG    1       29.930 -18.140   5.469  0.00  0.00    -0.503 OA
ATOM      9  H   LIG    1       30.901 -18.039   5.432  0.00  0.00    +0.292 HD
ENDBRANCH   4   8
BRANCH   5  10
ATOM     10  O   LIG    1       31.936 -18.876   7.126  0.00  0.00    -0.503 OA
ATOM     11  H   LIG    1       31.765 -17.936   7.312  0.00  0.00    +0.292 HD
ENDBRANCH   5  10
ENDBRANCH   1   2
BRANCH   1  12
ATOM     12  O   LIG    1       26.597 -21.803   8.723  0.00  0.00    -0.386 OA
ATOM     13  H   LIG    1       26.837 -22.729   8.899  0.00  0.00    +0.210 HD
ENDBRANCH   1  12
BRANCH   1  14
ATOM     14  C   LIG    1       25.682 -20.972   6.564  0.00  0.00    +0.087 C 
BRANCH  14  16
ATOM     15  C   LIG    1       23.431 -21.928   7.438  0.00  0.00    +0.005 C 
ATOM     16  C   LIG    1       24.492 -20.841   7.560  0.00  0.00    +0.018 C 
ENDBRANCH  14  16
BRANCH  14  17
ATOM     17  N   LIG    1       25.196 -21.656   5.337  0.00  0.00    -0.308 NA
ATOM     18  H   LIG    1       24.392 -22.234   5.581  0.00  0.00    +0.122 HD
BRANCH  17  19
ATOM     19  C   LIG    1       24.845 -20.841   4.169  0.00  0.00    +0.048 C 
ATOM     20  C   LIG    1       25.533 -19.476   4.119  0.00  0.00    +0.024 C 
ATOM     21  C   LIG    1       23.324 -20.633   4.168  0.00  0.00    +0.024 C 
ENDBRANCH  17  19
ENDBRANCH  14  17
ENDBRANCH   1  14
TORSDOF 8
ENDMDL
MODEL 9
REMARK VINA RESULT:      -7.2      1.078      2.376
REMARK  Name = *****
REMARK                            x       y       z     vdW  Elec       q    Type
REMARK                         _______ _______ _______ _____ _____    ______ ____
ROOT
ATOM      1  C   LIG    1       26.500 -21.967   8.039  0.00  0.00    +0.161 C 
ENDROOT
BRANCH   1   2
ATOM      2  C   LIG    1       27.711 -21.165   7.579  0.00  0.00    -0.014 A 
ATOM      3  C   LIG    1       28.999 -21.414   8.071  0.00  0.00    +0.055 A 
ATOM      4  C   LIG    1       30.076 -20.665   7.620  0.00  0.00    +0.159 A 
ATOM      5  C   LIG    1       29.900 -19.660   6.670  0.00  0.00    +0.158 A 
ATOM      6  C   LIG    1       28.639 -19.408   6.151  0.00  0.00    +0.049 A 
ATOM      7  C   LIG    1       27.552 -20.167   6.596  0.00  0.00    +0.010 A 
BRANCH   4   8
ATOM      8  O   LIG    1       31.320 -20.925   8.116  0.00  0.00    -0.503 OA
ATOM      9  H   LIG    1       31.454 -21.878   7.948  0.00  0.00    +0.292 HD
ENDBRANCH   4   8
BRANCH   5  10
ATOM     10  O   LIG    1       31.007 -18.960   6.284  0.00  0.00    -0.503 OA
ATOM     11  H   LIG    1       31.441 -19.460   5.571  0.00  0.00    +0.292 HD
ENDBRANCH   5  10
ENDBRANCH   1   2
BRANCH   1  12
ATOM     12  O   LIG    1       25.896 -21.295   9.147  0.00  0.00    -0.386 OA
ATOM     13  H   LIG    1       24.968 -21.147   8.899  0.00  0.00    +0.210 HD
ENDBRANCH   1  12
BRANCH   1  14
ATOM     14  C   LIG    1       25.416 -22.410   6.975  0.00  0.00    +0.087 C 
BRANCH  14  16
ATOM     15  C   LIG    1       24.001 -24.534   6.501  0.00  0.00    +0.005 C 
ATOM     16  C   LIG    1       25.326 -23.964   6.993  0.00  0.00    +0.018 C 
ENDBRANCH  14  16
BRANCH  14  17
ATOM     17  N   LIG    1       25.544 -21.962   5.564  0.00  0.00    -0.308 NA
ATOM     18  H   LIG    1       25.759 -22.770   4.982  0.00  0.00    +0.122 HD
BRANCH  17  19
ATOM     19  C   LIG    1       24.428 -21.232   4.953  0.00  0.00    +0.048 C 
ATOM     20  C   LIG    1       24.847 -20.149   3.958  0.00  0.00    +0.024 C 
ATOM     21  C   LIG    1       23.605 -20.585   6.077  0.00  0.00    +0.024 C 
ENDBRANCH  17  19
ENDBRANCH  14  17
ENDBRANCH   1  14
TORSDOF 8
ENDMDL
