MODEL 1
REMARK VINA RESULT:      -3.2      0.000      0.000
REMARK  Name = *****
REMARK                            x       y       z     vdW  Elec       q    Type
REMARK                         _______ _______ _______ _____ _____    ______ ____
ROOT
ATOM      1  CA  GLY A  1       27.609 -13.751   4.062  0.00  0.00    +0.199 C 
ENDROOT
BRANCH   1   2
ATOM      2  N   GLY A  1       28.712 -12.995   3.410  0.00  0.00    -0.321 NA
ATOM      3  H1  GLY A  1       28.293 -12.396   2.690  0.00  0.00    +0.119 HD
ATOM      4  H2  GLY A  1       29.080 -12.332   4.099  0.00  0.00    +0.119 HD
ENDBRANCH   1   2
BRANCH   1   5
ATOM      5  C   GLY A  1       26.954 -14.675   3.038  0.00  0.00    +0.319 C 
ATOM      6  O   GLY A  1       26.555 -15.805   3.267  0.00  0.00    -0.250 OA
BRANCH   5   7
ATOM      7  OXT GLY A  1       26.901 -14.091   1.812  0.00  0.00    -0.480 OA
ATOM      8  HXT GLY A  1       27.793 -14.234   1.409  0.00  0.00    +0.295 HD
ENDBRANCH   5   7
ENDBRANCH   1   5
TORSDOF 3
ENDMDL
MODEL 2
REMARK VINA RESULT:      -3.1      0.197      1.434
REMARK  Name = *****
REMARK                            x       y       z     vdW  Elec       q    Type
REMARK                         _______ _______ _______ _____ _____    ______ ____
ROOT
ATOM      1  CA  GLY A  1       27.602 -13.761   3.985  0.00  0.00    +0.199 C 
ENDROOT
BRANCH   1   2
ATOM      2  N   GLY A  1       28.742 -13.006   3.397  0.00  0.00    -0.321 NA
ATOM      3  H1  GLY A  1       28.737 -12.067   3.809  0.00  0.00    +0.119 HD
ATOM      4  H2  GLY A  1       29.605 -13.428   3.752  0.00  0.00    +0.119 HD
ENDBRANCH   1   2
BRANCH   1   5
ATOM      5  C   GLY A  1       26.918 -14.577   2.891  0.00  0.00    +0.319 C 
ATOM      6  O   GLY A  1       26.556 -14.137   1.812  0.00  0.00    -0.250 OA
BRANCH   5   7
ATOM      7  OXT GLY A  1       26.727 -15.863   3.283  0.00  0.00    -0.480 OA
ATOM      8  HXT GLY A  1       27.183 -15.946   4.158  0.00  0.00    +0.295 HD
ENDBRANCH   5   7
ENDBRANCH   1   5
TORSDOF 3
ENDMDL
MODEL 3
REMARK VINA RESULT:      -3.1      1.669      1.896
REMARK  Name = *****
REMARK                            x       y       z     vdW  Elec       q    Type
REMARK                         _______ _______ _______ _____ _____    ______ ____
ROOT
ATOM      1  CA  GLY A  1       26.271 -13.843   4.298  0.00  0.00    +0.199 C 
ENDROOT
BRANCH   1   2
ATOM      2  N   GLY A  1       27.089 -13.272   5.402  0.00  0.00    -0.321 NA
ATOM      3  H1  GLY A  1       28.048 -13.166   5.054  0.00  0.00    +0.119 HD
ATOM      4  H2  GLY A  1       26.773 -12.309   5.552  0.00  0.00    +0.119 HD
ENDBRANCH   1   2
BRANCH   1   5
ATOM      5  C   GLY A  1       27.089 -13.840   3.009  0.00  0.00    +0.319 C 
ATOM      6  O   GLY A  1       26.707 -14.276   1.935  0.00  0.00    -0.250 OA
BRANCH   5   7
ATOM      7  OXT GLY A  1       28.326 -13.315   3.212  0.00  0.00    -0.480 OA
ATOM      8  HXT GLY A  1       28.268 -12.819   4.067  0.00  0.00    +0.295 HD
ENDBRANCH   5   7
ENDBRANCH   1   5
TORSDOF 3
ENDMDL
MODEL 4
REMARK VINA RESULT:      -3.1      2.343      2.528
REMARK  Name = *****
REMARK                            x       y       z     vdW  Elec       q    Type
REMARK                         _______ _______ _______ _____ _____    ______ ____
ROOT
ATOM      1  CA  GLY A  1       27.129 -14.661   3.318  0.00  0.00    +0.199 C 
ENDROOT
BRANCH   1   2
ATOM      2  N   GLY A  1       26.779 -14.173   1.957  0.00  0.00    -0.321 NA
ATOM      3  H1  GLY A  1       25.809 -14.447   1.769  0.00  0.00    +0.119 HD
ATOM      4  H2  GLY A  1       26.743 -13.150   1.997  0.00  0.00    +0.119 HD
ENDBRANCH   1   2
BRANCH   1   5
ATOM      5  C   GLY A  1       28.000 -13.621   4.019  0.00  0.00    +0.319 C 
ATOM      6  O   GLY A  1       27.709 -13.047   5.055  0.00  0.00    -0.250 OA
BRANCH   5   7
ATOM      7  OXT GLY A  1       29.142 -13.385   3.321  0.00  0.00    -0.480 OA
ATOM      8  HXT GLY A  1       29.424 -14.265   2.965  0.00  0.00    +0.295 HD
ENDBRANCH   5   7
ENDBRANCH   1   5
TORSDOF 3
ENDMDL
MODEL 5
REMARK VINA RESULT:      -3.0      2.373      2.794
REMARK  Name = *****
REMARK                            x       y       z     vdW  Elec       q    Type
REMARK                         _______ _______ _______ _____ _____    ______ ____
ROOT
ATOM      1  CA  GLY A  1       27.163 -14.587   3.433  0.00  0.00    +0.199 C 
ENDROOT
BRANCH   1   2
ATOM      2  N   GLY A  1       26.863 -14.126   2.051  0.00  0.00    -0.321 NA
ATOM      3  H1  GLY A  1       27.649 -14.405   1.453  0.00  0.00    +0.119 HD
ATOM      4  H2  GLY A  1       26.078 -14.685   1.704  0.00  0.00    +0.119 HD
ENDBRANCH   1   2
BRANCH   1   5
ATOM      5  C   GLY A  1       27.890 -13.477   4.189  0.00  0.00    +0.319 C 
ATOM      6  O   GLY A  1       28.929 -12.948   3.830  0.00  0.00    -0.250 OA
BRANCH   5   7
ATOM      7  OXT GLY A  1       27.247 -13.167   5.346  0.00  0.00    -0.480 OA
ATOM      8  HXT GLY A  1       27.636 -13.761   6.035  0.00  0.00    +0.295 HD
ENDBRANCH   5   7
ENDBRANCH   1   5
TORSDOF 3
ENDMDL
MODEL 6
REMARK VINA RESULT:      -2.9      2.289      2.478
REMARK  Name = *****
REMARK                            x       y       z     vdW  Elec       q    Type
REMARK                         _______ _______ _______ _____ _____    ______ ____
ROOT
ATOM      1  CA  GLY A  1       27.600 -13.876   3.375  0.00  0.00    +0.199 C 
ENDROOT
BRANCH   1   2
ATOM      2  N   GLY A  1       26.883 -14.110   2.092  0.00  0.00    -0.321 NA
ATOM      3  H1  GLY A  1       25.880 -14.155   2.300  0.00  0.00    +0.119 HD
ATOM      4  H2  GLY A  1       26.980 -13.262   1.526  0.00  0.00    +0.119 HD
ENDBRANCH   1   2
BRANCH   1   5
ATOM      5  C   GLY A  1       26.583 -13.769   4.509  0.00  0.00    +0.319 C 
ATOM      6  O   GLY A  1       25.418 -14.125   4.441  0.00  0.00    -0.250 OA
BRANCH   5   7
ATOM      7  OXT GLY A  1       27.132 -13.191   5.609  0.00  0.00    -0.480 OA
ATOM      8  HXT GLY A  1       27.897 -13.767   5.859  0.00  0.00    +0.295 HD
ENDBRANCH   5   7
ENDBRANCH   1   5
TORSDOF 3
ENDMDL
MODEL 7
REMARK VINA RESULT:      -2.8      1.707      1.842
REMARK  Name = *****
REMARK                            x       y       z     vdW  Elec       q    Type
REMARK                         _______ _______ _______ _____ _____    ______ ____
ROOT
ATOM      1  CA  GLY A  1       28.931 -12.686   4.020  0.00  0.00    +0.199 C 
ENDROOT
BRANCH   1   2
ATOM      2  N   GLY A  1       28.898 -12.010   5.346  0.00  0.00    -0.321 NA
ATOM      3  H1  GLY A  1       29.807 -12.163   5.795  0.00  0.00    +0.119 HD
ATOM      4  H2  GLY A  1       28.873 -11.001   5.175  0.00  0.00    +0.119 HD
ENDBRANCH   1   2
BRANCH   1   5
ATOM      5  C   GLY A  1       27.657 -13.508   3.840  0.00  0.00    +0.319 C 
ATOM      6  O   GLY A  1       26.948 -13.910   4.748  0.00  0.00    -0.250 OA
BRANCH   5   7
ATOM      7  OXT GLY A  1       27.422 -13.770   2.528  0.00  0.00    -0.480 OA
ATOM      8  HXT GLY A  1       28.227 -13.457   2.045  0.00  0.00    +0.295 HD
ENDBRANCH   5   7
ENDBRANCH   1   5
TORSDOF 3
ENDMDL
MODEL 8
REMARK VINA RESULT:      -2.8      2.767      2.804
REMARK  Name = *****
REMARK                            x       y       z     vdW  Elec       q    Type
REMARK                         _______ _______ _______ _____ _____    ______ ____
ROOT
ATOM      1  CA  GLY A  1       26.026 -13.320   3.048  0.00  0.00    +0.199 C 
ENDROOT
BRANCH   1   2
ATOM      2  N   GLY A  1       26.549 -14.264   2.024  0.00  0.00    -0.321 NA
ATOM      3  H1  GLY A  1       26.066 -14.063   1.141  0.00  0.00    +0.119 HD
ATOM      4  H2  GLY A  1       27.523 -14.005   1.837  0.00  0.00    +0.119 HD
ENDBRANCH   1   2
BRANCH   1   5
ATOM      5  C   GLY A  1       24.546 -13.606   3.290  0.00  0.00    +0.319 C 
ATOM      6  O   GLY A  1       24.109 -14.374   4.131  0.00  0.00    -0.250 OA
BRANCH   5   7
ATOM      7  OXT GLY A  1       23.763 -12.918   2.419  0.00  0.00    -0.480 OA
ATOM      8  HXT GLY A  1       23.049 -13.547   2.146  0.00  0.00    +0.295 HD
ENDBRANCH   5   7
ENDBRANCH   1   5
TORSDOF 3
ENDMDL
MODEL 9
REMARK VINA RESULT:      -2.8      2.847      3.112
REMARK  Name = *****
REMARK                            x       y       z     vdW  Elec       q    Type
REMARK                         _______ _______ _______ _____ _____    ______ ____
ROOT
ATOM      1  CA  GLY A  1       25.038 -12.634   2.245  0.00  0.00    +0.199 C 
ENDROOT
BRANCH   1   2
ATOM      2  N   GLY A  1       23.697 -13.083   2.708  0.00  0.00    -0.321 NA
ATOM      3  H1  GLY A  1       23.790 -13.377   3.687  0.00  0.00    +0.119 HD
ATOM      4  H2  GLY A  1       23.095 -12.256   2.755  0.00  0.00    +0.119 HD
ENDBRANCH   1   2
BRANCH   1   5
ATOM      5  C   GLY A  1       26.082 -13.679   2.631  0.00  0.00    +0.319 C 
ATOM      6  O   GLY A  1       26.781 -14.295   1.844  0.00  0.00    -0.250 OA
BRANCH   5   7
ATOM      7  OXT GLY A  1       26.116 -13.867   3.976  0.00  0.00    -0.480 OA
ATOM      8  HXT GLY A  1       27.068 -13.786   4.233  0.00  0.00    +0.295 HD
ENDBRANCH   5   7
ENDBRANCH   1   5
TORSDOF 3
ENDMDL
