MODEL 1
REMARK VINA RESULT:       4.0      0.000      0.000
REMARK  Name = *****
REMARK                            x       y       z     vdW  Elec       q    Type
REMARK                         _______ _______ _______ _____ _____    ______ ____
ROOT
ATOM      1  C   LIG    1       23.843 -16.190   3.820  0.00  0.00    -0.021 C 
ATOM      2  C   LIG    1       24.412 -14.968   3.757  0.00  0.00    -0.035 C 
ATOM      3  C   LIG    1       25.580 -14.645   2.829  0.00  0.00    +0.059 C 
ATOM      4  C   LIG    1       25.282 -13.479   1.812  0.00  0.00    +0.085 C 
ATOM      5  C   LIG    1       26.269 -12.338   1.846  0.00  0.00    -0.011 C 
ATOM      6  C   LIG    1       27.304 -12.267   2.739  0.00  0.00    +0.009 C 
ATOM      7  C   LIG    1       27.565 -13.316   3.696  0.00  0.00    +0.051 C 
ATOM      8  S   LIG    1       23.606 -12.704   1.944  0.00  0.00    -0.116 S 
ATOM      9  C   LIG    1       23.498 -12.663   3.726  0.00  0.00    +0.016 A 
ATOM     10  C   LIG    1       23.047 -11.509   4.372  0.00  0.00    +0.015 A 
ATOM     11  C   LIG    1       23.045 -11.447   5.766  0.00  0.00    +0.001 A 
ATOM     12  C   LIG    1       23.499 -12.534   6.514  0.00  0.00    +0.001 A 
ATOM     13  C   LIG    1       23.931 -13.696   5.873  0.00  0.00    +0.009 A 
ATOM     14  C   LIG    1       26.809 -14.441   3.698  0.00  0.00    -0.005 C 
ATOM     15  C   LIG    1       23.908 -13.778   4.476  0.00  0.00    -0.008 A 
ENDROOT
BRANCH   7  16
ATOM     16  C   LIG    1       28.674 -13.114   4.701  0.00  0.00    +0.417 C 
ATOM     17  F   LIG    1       29.475 -12.072   4.362  0.00  0.00    -0.166 F 
ATOM     18  F   LIG    1       29.475 -14.209   4.789  0.00  0.00    -0.166 F 
ATOM     19  F   LIG    1       28.219 -12.865   5.957  0.00  0.00    -0.166 F 
ENDBRANCH   7  16
BRANCH   1  20
ATOM     20  C   LIG    1       22.636 -16.603   4.625  0.00  0.00    +0.043 C 
BRANCH  20  21
ATOM     21  C   LIG    1       22.211 -18.052   4.310  0.00  0.00    +0.088 C 
BRANCH  21  25
ATOM     22  N   LIG    1       24.924 -21.110   5.569  0.00  0.00    -0.298 NA
ATOM     23  C   LIG    1       23.591 -21.123   6.184  0.00  0.00    +0.100 C 
ATOM     24  C   LIG    1       22.690 -19.904   5.873  0.00  0.00    +0.100 C 
ATOM     25  N   LIG    1       23.159 -19.073   4.758  0.00  0.00    -0.300 NA
ATOM     26  C   LIG    1       23.745 -19.852   3.662  0.00  0.00    +0.100 C 
ATOM     27  C   LIG    1       24.766 -20.932   4.117  0.00  0.00    +0.100 C 
BRANCH  22  28
ATOM     28  C   LIG    1       25.889 -20.181   6.191  0.00  0.00    +0.112 C 
BRANCH  28  29
ATOM     29  C   LIG    1       27.390 -20.518   6.387  0.00  0.00    +0.171 C 
BRANCH  29  30
ATOM     30  O   LIG    1       28.230 -20.220   5.273  0.00  0.00    -0.394 OA
ATOM     31  H   LIG    1       28.326 -21.031   4.744  0.00  0.00    +0.209 HD
ENDBRANCH  29  30
ENDBRANCH  28  29
ENDBRANCH  22  28
ENDBRANCH  21  25
ENDBRANCH  20  21
ENDBRANCH   1  20
TORSDOF 7
ENDMDL
