MODEL 1
REMARK VINA RESULT:      23.2      0.000      0.000
REMARK  Name = *****
REMARK                            x       y       z     vdW  Elec       q    Type
REMARK                         _______ _______ _______ _____ _____    ______ ____
ROOT
ATOM      1  C   LIG    1       22.993 -20.275   3.151  0.00  0.00    +0.185 C 
ATOM      2  O   LIG    1       23.661 -19.751   4.308  0.00  0.00    -0.334 OA
ATOM      3  C   LIG    1       22.685 -19.635   5.364  0.00  0.00    +0.217 C 
ATOM      4  O   LIG    1       21.497 -20.349   4.953  0.00  0.00    -0.341 OA
ATOM      5  C   LIG    1       21.752 -20.943   3.686  0.00  0.00    +0.198 C 
ENDROOT
BRANCH   3   6
ATOM      6  C   LIG    1       22.355 -18.146   5.547  0.00  0.00    +0.031 A 
ATOM      7  C   LIG    1       21.767 -17.336   4.553  0.00  0.00    +0.051 A 
ATOM      8 CL   LIG    1       21.464 -17.867   2.935  0.00  0.00    -0.083 Cl
ATOM      9  C   LIG    1       21.400 -16.007   4.819  0.00  0.00    +0.040 A 
ATOM     10  C   LIG    1       21.649 -15.448   6.065  0.00  0.00    +0.042 A 
ATOM     11 CL   LIG    1       21.196 -13.819   6.380  0.00  0.00    -0.084 Cl
ATOM     12  C   LIG    1       22.270 -16.199   7.051  0.00  0.00    +0.020 A 
ATOM     13  C   LIG    1       22.610 -17.531   6.797  0.00  0.00    +0.012 A 
ENDBRANCH   3   6
BRANCH   1  14
ATOM     14  C   LIG    1       23.922 -21.264   2.446  0.00  0.00    +0.263 C 
BRANCH  14  15
ATOM     15  O   LIG    1       25.311 -20.940   2.584  0.00  0.00    -0.489 OA
BRANCH  15  19
ATOM     16  C   LIG    1       25.888 -16.827   3.368  0.00  0.00    +0.030 A 
ATOM     17  C   LIG    1       24.834 -17.307   2.573  0.00  0.00    +0.027 A 
ATOM     18  C   LIG    1       24.663 -18.680   2.319  0.00  0.00    +0.047 A 
ATOM     19  C   LIG    1       25.539 -19.611   2.870  0.00  0.00    +0.121 A 
ATOM     20  C   LIG    1       26.602 -19.141   3.643  0.00  0.00    +0.047 A 
ATOM     21  C   LIG    1       26.766 -17.775   3.898  0.00  0.00    +0.027 A 
BRANCH  16  27
ATOM     22  C   LIG    1       29.078 -12.136   5.912  0.00  0.00    +0.109 C 
ATOM     23  C   LIG    1       28.689 -12.290   4.445  0.00  0.00    +0.213 C 
ATOM     24  N   LIG    1       27.536 -12.996   4.212  0.00  0.00    -0.299 N 
ATOM     25  C   LIG    1       27.098 -13.287   2.825  0.00  0.00    +0.126 C 
ATOM     26  C   LIG    1       26.950 -14.808   2.561  0.00  0.00    +0.124 C 
ATOM     27  N   LIG    1       26.125 -15.461   3.620  0.00  0.00    -0.327 N 
ATOM     28  C   LIG    1       26.586 -15.154   4.990  0.00  0.00    +0.124 C 
ATOM     29  C   LIG    1       26.685 -13.642   5.217  0.00  0.00    +0.126 C 
ATOM     30  O   LIG    1       29.372 -11.812   3.560  0.00  0.00    -0.276 OA
ENDBRANCH  16  27
ENDBRANCH  15  19
ENDBRANCH  14  15
ENDBRANCH   1  14
BRANCH   3  31
ATOM     31  C   LIG    1       23.265 -20.354   6.610  0.00  0.00    +0.193 C 
BRANCH  31  32
ATOM     32  N   LIG    1       24.703 -20.510   6.609  0.00  0.00    -0.331 N 
ATOM     33  C   LIG    1       25.397 -21.568   6.096  0.00  0.00    +0.199 A 
ATOM     34  N   LIG    1       26.690 -21.421   6.274  0.00  0.00    -0.244 NA
ATOM     35  C   LIG    1       26.835 -20.205   6.892  0.00  0.00    +0.130 A 
ATOM     36  C   LIG    1       25.614 -19.597   7.061  0.00  0.00    +0.107 A 
ENDBRANCH  31  32
ENDBRANCH   3  31
TORSDOF 7
ENDMDL
MODEL 2
REMARK VINA RESULT:      23.5      2.468      6.717
REMARK  Name = *****
REMARK                            x       y       z     vdW  Elec       q    Type
REMARK                         _______ _______ _______ _____ _____    ______ ____
ROOT
ATOM      1  C   LIG    1       27.285 -12.742   4.424  0.00  0.00    +0.185 C 
ATOM      2  O   LIG    1       26.286 -13.739   4.686  0.00  0.00    -0.334 OA
ATOM      3  C   LIG    1       25.190 -13.512   3.776  0.00  0.00    +0.217 C 
ATOM      4  O   LIG    1       25.630 -12.568   2.773  0.00  0.00    -0.341 OA
ATOM      5  C   LIG    1       26.996 -12.258   3.026  0.00  0.00    +0.198 C 
ENDROOT
BRANCH   3   6
ATOM      6  C   LIG    1       24.025 -12.908   4.576  0.00  0.00    +0.031 A 
ATOM      7  C   LIG    1       23.037 -12.065   4.026  0.00  0.00    +0.051 A 
ATOM      8 CL   LIG    1       23.075 -11.472   2.402  0.00  0.00    -0.083 Cl
ATOM      9  C   LIG    1       21.944 -11.628   4.791  0.00  0.00    +0.040 A 
ATOM     10  C   LIG    1       21.835 -11.988   6.127  0.00  0.00    +0.042 A 
ATOM     11 CL   LIG    1       20.492 -11.447   7.055  0.00  0.00    -0.084 Cl
ATOM     12  C   LIG    1       22.812 -12.776   6.715  0.00  0.00    +0.020 A 
ATOM     13  C   LIG    1       23.888 -13.235   5.947  0.00  0.00    +0.012 A 
ENDBRANCH   3   6
BRANCH   1  14
ATOM     14  C   LIG    1       28.669 -13.384   4.537  0.00  0.00    +0.263 C 
BRANCH  14  15
ATOM     15  O   LIG    1       28.931 -14.357   3.518  0.00  0.00    -0.489 OA
BRANCH  15  19
ATOM     16  C   LIG    1       26.930 -18.035   4.097  0.00  0.00    +0.030 A 
ATOM     17  C   LIG    1       26.537 -17.102   3.123  0.00  0.00    +0.027 A 
ATOM     18  C   LIG    1       27.212 -15.880   2.950  0.00  0.00    +0.047 A 
ATOM     19  C   LIG    1       28.313 -15.568   3.743  0.00  0.00    +0.121 A 
ATOM     20  C   LIG    1       28.698 -16.479   4.729  0.00  0.00    +0.047 A 
ATOM     21  C   LIG    1       28.026 -17.696   4.893  0.00  0.00    +0.027 A 
BRANCH  16  27
ATOM     22  C   LIG    1       22.725 -21.572   7.005  0.00  0.00    +0.109 C 
ATOM     23  C   LIG    1       22.904 -21.412   5.499  0.00  0.00    +0.213 C 
ATOM     24  N   LIG    1       24.179 -21.128   5.083  0.00  0.00    -0.299 N 
ATOM     25  C   LIG    1       24.466 -20.866   3.651  0.00  0.00    +0.126 C 
ATOM     26  C   LIG    1       25.103 -19.471   3.423  0.00  0.00    +0.124 C 
ATOM     27  N   LIG    1       26.264 -19.253   4.335  0.00  0.00    -0.327 N 
ATOM     28  C   LIG    1       25.949 -19.520   5.754  0.00  0.00    +0.124 C 
ATOM     29  C   LIG    1       25.354 -20.921   5.937  0.00  0.00    +0.126 C 
ATOM     30  O   LIG    1       21.963 -21.534   4.737  0.00  0.00    -0.276 OA
ENDBRANCH  16  27
ENDBRANCH  15  19
ENDBRANCH  14  15
ENDBRANCH   1  14
BRANCH   3  31
ATOM     31  C   LIG    1       24.892 -14.858   3.066  0.00  0.00    +0.193 C 
BRANCH  31  32
ATOM     32  N   LIG    1       23.875 -15.668   3.700  0.00  0.00    -0.331 N 
ATOM     33  C   LIG    1       22.639 -15.245   4.096  0.00  0.00    +0.199 A 
ATOM     34  N   LIG    1       21.961 -16.217   4.662  0.00  0.00    -0.244 NA
ATOM     35  C   LIG    1       22.777 -17.316   4.593  0.00  0.00    +0.130 A 
ATOM     36  C   LIG    1       23.952 -17.010   3.949  0.00  0.00    +0.107 A 
ENDBRANCH  31  32
ENDBRANCH   3  31
TORSDOF 7
ENDMDL
