MODEL 1
REMARK VINA RESULT:      -7.6      0.000      0.000
REMARK  Name = *****
REMARK                            x       y       z     vdW  Elec       q    Type
REMARK                         _______ _______ _______ _____ _____    ______ ____
ROOT
ATOM      1  C   LIG    1       24.400 -22.905   6.299  0.00  0.00    +0.201 C 
ATOM      2  C   LIG    1       24.081 -21.485   5.780  0.00  0.00    +0.042 C 
ATOM      3  C   LIG    1       25.038 -21.128   4.630  0.00  0.00    +0.025 C 
ATOM      4  C   LIG    1       22.648 -21.219   5.294  0.00  0.00    +0.025 C 
ATOM      5  S   LIG    1       24.395 -20.319   7.199  0.00  0.00    -0.127 S 
ATOM      6  C   LIG    1       25.217 -21.562   8.263  0.00  0.00    +0.165 C 
ATOM      7  C   LIG    1       26.769 -21.535   8.347  0.00  0.00    +0.190 C 
ATOM      8  C   LIG    1       26.676 -22.644   7.274  0.00  0.00    +0.240 C 
ATOM      9  O   LIG    1       27.423 -23.141   6.448  0.00  0.00    -0.273 OA
ATOM     10  N   LIG    1       25.330 -22.758   7.424  0.00  0.00    -0.271 N 
ENDROOT
BRANCH   7  11
ATOM     11  N   LIG    1       27.480 -20.286   7.940  0.00  0.00    -0.300 N 
ATOM     12  H   LIG    1       27.013 -19.587   7.366  0.00  0.00    +0.150 HD
ATOM     13  C   LIG    1       28.861 -20.186   7.956  0.00  0.00    +0.235 C 
ATOM     14  O   LIG    1       29.577 -21.116   8.324  0.00  0.00    -0.274 OA
BRANCH  13  15
ATOM     15  C   LIG    1       29.429 -18.798   7.560  0.00  0.00    +0.168 C 
BRANCH  15  16
ATOM     16  C   LIG    1       30.291 -18.165   8.640  0.00  0.00    -0.022 A 
ATOM     17  C   LIG    1       31.638 -17.833   8.423  0.00  0.00    +0.006 A 
ATOM     18  C   LIG    1       32.385 -17.190   9.418  0.00  0.00    +0.000 A 
ATOM     19  C   LIG    1       31.799 -16.870  10.642  0.00  0.00    +0.000 A 
ATOM     20  C   LIG    1       30.479 -17.233  10.890  0.00  0.00    +0.000 A 
ATOM     21  C   LIG    1       29.734 -17.883   9.901  0.00  0.00    +0.006 A 
ENDBRANCH  15  16
BRANCH  15  22
ATOM     22  N   LIG    1       30.134 -18.858   6.250  0.00  0.00    -0.316 NA
ATOM     23  H   LIG    1       29.808 -18.056   5.704  0.00  0.00    +0.119 HD
ATOM     24  H   LIG    1       29.775 -19.671   5.745  0.00  0.00    +0.119 HD
ENDBRANCH  15  22
ENDBRANCH  13  15
ENDBRANCH   7  11
BRANCH   1  25
ATOM     25  C   LIG    1       23.177 -23.740   6.697  0.00  0.00    +0.332 C 
ATOM     26  O   LIG    1       22.112 -23.257   7.060  0.00  0.00    -0.249 OA
BRANCH  25  27
ATOM     27  O   LIG    1       23.410 -25.066   6.518  0.00  0.00    -0.426 OA
BRANCH  27  28
ATOM     28  C   LIG    1       24.511 -25.384   5.675  0.00  0.00    +0.472 C 
BRANCH  28  29
ATOM     29  O   LIG    1       25.336 -26.362   6.308  0.00  0.00    -0.427 OA
BRANCH  29  30
ATOM     30  C   LIG    1       25.799 -27.381   5.540  0.00  0.00    +0.315 C 
ATOM     31  O   LIG    1       26.661 -27.268   4.679  0.00  0.00    -0.250 OA
BRANCH  30  33
ATOM     32  C   LIG    1       25.919 -29.900   5.327  0.00  0.00    +0.022 C 
ATOM     33  C   LIG    1       25.163 -28.715   5.952  0.00  0.00    +0.059 C 
ATOM     34  C   LIG    1       25.177 -28.846   7.479  0.00  0.00    +0.022 C 
ATOM     35  C   LIG    1       23.710 -28.730   5.452  0.00  0.00    +0.022 C 
ENDBRANCH  30  33
ENDBRANCH  29  30
ENDBRANCH  28  29
ENDBRANCH  27  28
ENDBRANCH  25  27
ENDBRANCH   1  25
TORSDOF 10
ENDMDL
MODEL 2
REMARK VINA RESULT:      -7.2      6.097      9.703
REMARK  Name = *****
REMARK                            x       y       z     vdW  Elec       q    Type
REMARK                         _______ _______ _______ _____ _____    ______ ____
ROOT
ATOM      1  C   LIG    1       25.096 -30.658  11.206  0.00  0.00    +0.201 C 
ATOM      2  C   LIG    1       26.295 -29.685  11.140  0.00  0.00    +0.042 C 
ATOM      3  C   LIG    1       25.784 -28.243  10.982  0.00  0.00    +0.025 C 
ATOM      4  C   LIG    1       27.281 -29.703  12.318  0.00  0.00    +0.025 C 
ATOM      5  S   LIG    1       27.265 -30.143   9.617  0.00  0.00    -0.127 S 
ATOM      6  C   LIG    1       25.998 -31.278   8.941  0.00  0.00    +0.165 C 
ATOM      7  C   LIG    1       25.094 -30.756   7.789  0.00  0.00    +0.190 C 
ATOM      8  C   LIG    1       24.096 -30.465   8.934  0.00  0.00    +0.240 C 
ATOM      9  O   LIG    1       23.109 -29.766   9.091  0.00  0.00    -0.273 OA
ATOM     10  N   LIG    1       24.850 -31.138   9.842  0.00  0.00    -0.271 N 
ENDROOT
BRANCH   7  11
ATOM     11  N   LIG    1       25.556 -29.572   7.005  0.00  0.00    -0.300 N 
ATOM     12  H   LIG    1       26.339 -29.007   7.331  0.00  0.00    +0.150 HD
ATOM     13  C   LIG    1       24.751 -28.949   6.066  0.00  0.00    +0.235 C 
ATOM     14  O   LIG    1       23.616 -29.349   5.814  0.00  0.00    -0.274 OA
BRANCH  13  15
ATOM     15  C   LIG    1       25.413 -27.773   5.302  0.00  0.00    +0.168 C 
BRANCH  15  16
ATOM     16  C   LIG    1       25.142 -26.414   5.927  0.00  0.00    -0.022 A 
ATOM     17  C   LIG    1       26.165 -25.626   6.476  0.00  0.00    +0.006 A 
ATOM     18  C   LIG    1       25.891 -24.350   6.984  0.00  0.00    +0.000 A 
ATOM     19  C   LIG    1       24.593 -23.845   6.952  0.00  0.00    +0.000 A 
ATOM     20  C   LIG    1       23.558 -24.631   6.454  0.00  0.00    +0.000 A 
ATOM     21  C   LIG    1       23.829 -25.908   5.954  0.00  0.00    +0.006 A 
ENDBRANCH  15  16
BRANCH  15  22
ATOM     22  N   LIG    1       26.869 -28.012   5.102  0.00  0.00    -0.316 NA
ATOM     23  H   LIG    1       26.956 -28.634   4.292  0.00  0.00    +0.119 HD
ATOM     24  H   LIG    1       27.199 -28.574   5.889  0.00  0.00    +0.119 HD
ENDBRANCH  15  22
ENDBRANCH  13  15
ENDBRANCH   7  11
BRANCH   1  25
ATOM     25  C   LIG    1       25.262 -31.828  12.183  0.00  0.00    +0.332 C 
ATOM     26  O   LIG    1       25.881 -32.852  11.921  0.00  0.00    -0.249 OA
BRANCH  25  27
ATOM     27  O   LIG    1       24.706 -31.541  13.389  0.00  0.00    -0.426 OA
BRANCH  27  28
ATOM     28  C   LIG    1       23.338 -31.149  13.352  0.00  0.00    +0.472 C 
BRANCH  28  29
ATOM     29  O   LIG    1       23.213 -29.797  13.792  0.00  0.00    -0.427 OA
BRANCH  29  30
ATOM     30  C   LIG    1       22.451 -28.964  13.040  0.00  0.00    +0.315 C 
ATOM     31  O   LIG    1       21.891 -29.281  12.000  0.00  0.00    -0.250 OA
BRANCH  30  33
ATOM     32  C   LIG    1       23.562 -26.733  13.477  0.00  0.00    +0.022 C 
ATOM     33  C   LIG    1       22.308 -27.592  13.712  0.00  0.00    +0.059 C 
ATOM     34  C   LIG    1       21.078 -26.867  13.156  0.00  0.00    +0.022 C 
ATOM     35  C   LIG    1       22.130 -27.813  15.223  0.00  0.00    +0.022 C 
ENDBRANCH  30  33
ENDBRANCH  29  30
ENDBRANCH  28  29
ENDBRANCH  27  28
ENDBRANCH  25  27
ENDBRANCH   1  25
TORSDOF 10
ENDMDL
MODEL 3
REMARK VINA RESULT:      -6.9      7.489     10.728
REMARK  Name = *****
REMARK                            x       y       z     vdW  Elec       q    Type
REMARK                         _______ _______ _______ _____ _____    ______ ____
ROOT
ATOM      1  C   LIG    1       25.602 -31.914   8.958  0.00  0.00    +0.201 C 
ATOM      2  C   LIG    1       25.690 -30.557   9.693  0.00  0.00    +0.042 C 
ATOM      3  C   LIG    1       26.040 -30.792  11.172  0.00  0.00    +0.025 C 
ATOM      4  C   LIG    1       26.680 -29.520   9.139  0.00  0.00    +0.025 C 
ATOM      5  S   LIG    1       23.995 -29.791   9.596  0.00  0.00    -0.127 S 
ATOM      6  C   LIG    1       23.164 -31.292   8.958  0.00  0.00    +0.165 C 
ATOM      7  C   LIG    1       22.344 -32.151   9.960  0.00  0.00    +0.190 C 
ATOM      8  C   LIG    1       23.634 -33.000  10.027  0.00  0.00    +0.240 C 
ATOM      9  O   LIG    1       24.113 -33.823  10.789  0.00  0.00    -0.273 OA
ATOM     10  N   LIG    1       24.197 -32.333   8.986  0.00  0.00    -0.271 N 
ENDROOT
BRANCH   7  11
ATOM     11  N   LIG    1       21.905 -31.521  11.241  0.00  0.00    -0.300 N 
ATOM     12  H   LIG    1       22.215 -31.895  12.137  0.00  0.00    +0.150 HD
ATOM     13  C   LIG    1       20.790 -30.704  11.317  0.00  0.00    +0.235 C 
ATOM     14  O   LIG    1       20.110 -30.437  10.327  0.00  0.00    -0.274 OA
BRANCH  13  15
ATOM     15  C   LIG    1       20.515 -30.086  12.713  0.00  0.00    +0.168 C 
BRANCH  15  16
ATOM     16  C   LIG    1       21.271 -28.791  12.963  0.00  0.00    -0.022 A 
ATOM     17  C   LIG    1       22.669 -28.753  13.080  0.00  0.00    +0.006 A 
ATOM     18  C   LIG    1       23.340 -27.534  13.244  0.00  0.00    +0.000 A 
ATOM     19  C   LIG    1       22.625 -26.340  13.295  0.00  0.00    +0.000 A 
ATOM     20  C   LIG    1       21.235 -26.364  13.227  0.00  0.00    +0.000 A 
ATOM     21  C   LIG    1       20.563 -27.580  13.072  0.00  0.00    +0.006 A 
ENDBRANCH  15  16
BRANCH  15  22
ATOM     22  N   LIG    1       19.053 -29.932  12.955  0.00  0.00    -0.316 NA
ATOM     23  H   LIG    1       18.652 -30.874  12.941  0.00  0.00    +0.119 HD
ATOM     24  H   LIG    1       18.653 -29.474  12.134  0.00  0.00    +0.119 HD
ENDBRANCH  15  22
ENDBRANCH  13  15
ENDBRANCH   7  11
BRANCH   1  25
ATOM     25  C   LIG    1       26.152 -31.913   7.526  0.00  0.00    +0.332 C 
ATOM     26  O   LIG    1       27.298 -32.233   7.236  0.00  0.00    -0.249 OA
BRANCH  25  27
ATOM     27  O   LIG    1       25.184 -31.590   6.630  0.00  0.00    -0.426 OA
BRANCH  27  28
ATOM     28  C   LIG    1       25.621 -30.840   5.502  0.00  0.00    +0.472 C 
BRANCH  28  29
ATOM     29  O   LIG    1       25.883 -29.492   5.893  0.00  0.00    -0.427 OA
BRANCH  29  30
ATOM     30  C   LIG    1       24.831 -28.635   5.924  0.00  0.00    +0.315 C 
ATOM     31  O   LIG    1       23.667 -28.968   6.099  0.00  0.00    -0.250 OA
BRANCH  30  33
ATOM     32  C   LIG    1       24.116 -26.241   5.525  0.00  0.00    +0.022 C 
ATOM     33  C   LIG    1       25.303 -27.181   5.800  0.00  0.00    +0.059 C 
ATOM     34  C   LIG    1       26.008 -26.751   7.091  0.00  0.00    +0.022 C 
ATOM     35  C   LIG    1       26.291 -27.094   4.626  0.00  0.00    +0.022 C 
ENDBRANCH  30  33
ENDBRANCH  29  30
ENDBRANCH  28  29
ENDBRANCH  27  28
ENDBRANCH  25  27
ENDBRANCH   1  25
TORSDOF 10
ENDMDL
MODEL 4
REMARK VINA RESULT:      -6.8      6.834      9.613
REMARK  Name = *****
REMARK                            x       y       z     vdW  Elec       q    Type
REMARK                         _______ _______ _______ _____ _____    ______ ____
ROOT
ATOM      1  C   LIG    1       25.612 -30.863   7.860  0.00  0.00    +0.201 C 
ATOM      2  C   LIG    1       24.457 -31.450   8.702  0.00  0.00    +0.042 C 
ATOM      3  C   LIG    1       23.448 -30.340   9.041  0.00  0.00    +0.025 C 
ATOM      4  C   LIG    1       23.672 -32.625   8.098  0.00  0.00    +0.025 C 
ATOM      5  S   LIG    1       25.217 -32.067  10.287  0.00  0.00    -0.127 S 
ATOM      6  C   LIG    1       26.851 -31.291  10.007  0.00  0.00    +0.165 C 
ATOM      7  C   LIG    1       27.171 -29.974  10.769  0.00  0.00    +0.190 C 
ATOM      8  C   LIG    1       26.724 -29.303   9.450  0.00  0.00    +0.240 C 
ATOM      9  O   LIG    1       26.353 -28.194   9.103  0.00  0.00    -0.273 OA
ATOM     10  N   LIG    1       26.683 -30.491   8.791  0.00  0.00    -0.271 N 
ENDROOT
BRANCH   7  11
ATOM     11  N   LIG    1       26.364 -29.641  11.981  0.00  0.00    -0.300 N 
ATOM     12  H   LIG    1       25.539 -30.189  12.221  0.00  0.00    +0.150 HD
ATOM     13  C   LIG    1       26.425 -28.399  12.589  0.00  0.00    +0.235 C 
ATOM     14  O   LIG    1       27.162 -27.506  12.174  0.00  0.00    -0.274 OA
BRANCH  13  15
ATOM     15  C   LIG    1       25.566 -28.246  13.871  0.00  0.00    +0.168 C 
BRANCH  15  16
ATOM     16  C   LIG    1       24.113 -27.899  13.591  0.00  0.00    -0.022 A 
ATOM     17  C   LIG    1       23.631 -26.583  13.662  0.00  0.00    +0.006 A 
ATOM     18  C   LIG    1       22.302 -26.289  13.333  0.00  0.00    +0.000 A 
ATOM     19  C   LIG    1       21.437 -27.304  12.930  0.00  0.00    +0.000 A 
ATOM     20  C   LIG    1       21.885 -28.621  12.898  0.00  0.00    +0.000 A 
ATOM     21  C   LIG    1       23.209 -28.917  13.235  0.00  0.00    +0.006 A 
ENDBRANCH  15  16
BRANCH  15  22
ATOM     22  N   LIG    1       25.693 -29.442  14.749  0.00  0.00    -0.316 NA
ATOM     23  H   LIG    1       26.687 -29.537  14.976  0.00  0.00    +0.119 HD
ATOM     24  H   LIG    1       25.483 -30.265  14.180  0.00  0.00    +0.119 HD
ENDBRANCH  15  22
ENDBRANCH  13  15
ENDBRANCH   7  11
BRANCH   1  25
ATOM     25  C   LIG    1       26.138 -31.782   6.750  0.00  0.00    +0.332 C 
ATOM     26  O   LIG    1       26.578 -32.908   6.949  0.00  0.00    -0.249 OA
BRANCH  25  27
ATOM     27  O   LIG    1       25.976 -31.215   5.527  0.00  0.00    -0.426 OA
BRANCH  27  28
ATOM     28  C   LIG    1       24.957 -30.225   5.443  0.00  0.00    +0.472 C 
BRANCH  28  29
ATOM     29  O   LIG    1       25.546 -28.945   5.215  0.00  0.00    -0.427 OA
BRANCH  29  30
ATOM     30  C   LIG    1       24.964 -27.874   5.811  0.00  0.00    +0.315 C 
ATOM     31  O   LIG    1       23.965 -27.926   6.514  0.00  0.00    -0.250 OA
BRANCH  30  33
ATOM     32  C   LIG    1       25.149 -25.760   4.432  0.00  0.00    +0.022 C 
ATOM     33  C   LIG    1       25.776 -26.597   5.560  0.00  0.00    +0.059 C 
ATOM     34  C   LIG    1       25.839 -25.761   6.844  0.00  0.00    +0.022 C 
ATOM     35  C   LIG    1       27.199 -27.004   5.146  0.00  0.00    +0.022 C 
ENDBRANCH  30  33
ENDBRANCH  29  30
ENDBRANCH  28  29
ENDBRANCH  27  28
ENDBRANCH  25  27
ENDBRANCH   1  25
TORSDOF 10
ENDMDL
MODEL 5
REMARK VINA RESULT:      -6.7      5.726      9.557
REMARK  Name = *****
REMARK                            x       y       z     vdW  Elec       q    Type
REMARK                         _______ _______ _______ _____ _____    ______ ____
ROOT
ATOM      1  C   LIG    1       24.965 -30.817  10.917  0.00  0.00    +0.201 C 
ATOM      2  C   LIG    1       26.167 -29.865  11.113  0.00  0.00    +0.042 C 
ATOM      3  C   LIG    1       25.672 -28.409  11.153  0.00  0.00    +0.025 C 
ATOM      4  C   LIG    1       27.048 -30.092  12.351  0.00  0.00    +0.025 C 
ATOM      5  S   LIG    1       27.262 -30.081   9.622  0.00  0.00    -0.127 S 
ATOM      6  C   LIG    1       26.056 -31.070   8.664  0.00  0.00    +0.165 C 
ATOM      7  C   LIG    1       25.253 -30.352   7.543  0.00  0.00    +0.190 C 
ATOM      8  C   LIG    1       24.163 -30.238   8.632  0.00  0.00    +0.240 C 
ATOM      9  O   LIG    1       23.166 -29.560   8.819  0.00  0.00    -0.273 OA
ATOM     10  N   LIG    1       24.836 -31.063   9.477  0.00  0.00    -0.271 N 
ENDROOT
BRANCH   7  11
ATOM     11  N   LIG    1       25.783 -29.063   7.007  0.00  0.00    -0.300 N 
ATOM     12  H   LIG    1       26.447 -28.510   7.546  0.00  0.00    +0.150 HD
ATOM     13  C   LIG    1       25.139 -28.364   5.999  0.00  0.00    +0.235 C 
ATOM     14  O   LIG    1       24.104 -28.778   5.479  0.00  0.00    -0.274 OA
BRANCH  13  15
ATOM     15  C   LIG    1       25.859 -27.076   5.522  0.00  0.00    +0.168 C 
BRANCH  15  16
ATOM     16  C   LIG    1       25.232 -25.797   6.053  0.00  0.00    -0.022 A 
ATOM     17  C   LIG    1       23.844 -25.592   6.058  0.00  0.00    +0.006 A 
ATOM     18  C   LIG    1       23.295 -24.430   6.616  0.00  0.00    +0.000 A 
ATOM     19  C   LIG    1       24.123 -23.459   7.174  0.00  0.00    +0.000 A 
ATOM     20  C   LIG    1       25.505 -23.625   7.136  0.00  0.00    +0.000 A 
ATOM     21  C   LIG    1       26.055 -24.780   6.572  0.00  0.00    +0.006 A 
ENDBRANCH  15  16
BRANCH  15  22
ATOM     22  N   LIG    1       27.320 -27.139   5.807  0.00  0.00    -0.316 NA
ATOM     23  H   LIG    1       27.520 -26.396   6.483  0.00  0.00    +0.119 HD
ATOM     24  H   LIG    1       27.811 -26.850   4.959  0.00  0.00    +0.119 HD
ENDBRANCH  15  22
ENDBRANCH  13  15
ENDBRANCH   7  11
BRANCH   1  25
ATOM     25  C   LIG    1       25.046 -32.134  11.699  0.00  0.00    +0.332 C 
ATOM     26  O   LIG    1       25.907 -32.985  11.513  0.00  0.00    -0.249 OA
BRANCH  25  27
ATOM     27  O   LIG    1       24.093 -32.190  12.665  0.00  0.00    -0.426 OA
BRANCH  27  28
ATOM     28  C   LIG    1       24.369 -31.433  13.838  0.00  0.00    +0.472 C 
BRANCH  28  29
ATOM     29  O   LIG    1       23.270 -30.567  14.122  0.00  0.00    -0.427 OA
BRANCH  29  30
ATOM     30  C   LIG    1       23.526 -29.237  14.199  0.00  0.00    +0.315 C 
ATOM     31  O   LIG    1       24.539 -28.749  14.683  0.00  0.00    -0.250 OA
BRANCH  30  33
ATOM     32  C   LIG    1       21.169 -28.341  14.412  0.00  0.00    +0.022 C 
ATOM     33  C   LIG    1       22.419 -28.423  13.518  0.00  0.00    +0.059 C 
ATOM     34  C   LIG    1       22.925 -27.008  13.215  0.00  0.00    +0.022 C 
ATOM     35  C   LIG    1       22.045 -29.124  12.202  0.00  0.00    +0.022 C 
ENDBRANCH  30  33
ENDBRANCH  29  30
ENDBRANCH  28  29
ENDBRANCH  27  28
ENDBRANCH  25  27
ENDBRANCH   1  25
TORSDOF 10
ENDMDL
MODEL 6
REMARK VINA RESULT:      -6.4      7.228      9.852
REMARK  Name = *****
REMARK                            x       y       z     vdW  Elec       q    Type
REMARK                         _______ _______ _______ _____ _____    ______ ____
ROOT
ATOM      1  C   LIG    1       24.401 -32.663   8.255  0.00  0.00    +0.201 C 
ATOM      2  C   LIG    1       25.733 -32.285   8.942  0.00  0.00    +0.042 C 
ATOM      3  C   LIG    1       25.870 -33.059  10.265  0.00  0.00    +0.025 C 
ATOM      4  C   LIG    1       27.026 -32.503   8.139  0.00  0.00    +0.025 C 
ATOM      5  S   LIG    1       25.635 -30.465   9.325  0.00  0.00    -0.127 S 
ATOM      6  C   LIG    1       23.853 -30.304   8.937  0.00  0.00    +0.165 C 
ATOM      7  C   LIG    1       22.851 -30.259  10.125  0.00  0.00    +0.190 C 
ATOM      8  C   LIG    1       22.690 -31.767   9.826  0.00  0.00    +0.240 C 
ATOM      9  O   LIG    1       22.275 -32.747  10.420  0.00  0.00    -0.273 OA
ATOM     10  N   LIG    1       23.402 -31.674   8.671  0.00  0.00    -0.271 N 
ENDROOT
BRANCH   7  11
ATOM     11  N   LIG    1       23.373 -29.910  11.480  0.00  0.00    -0.300 N 
ATOM     12  H   LIG    1       24.152 -30.427  11.884  0.00  0.00    +0.150 HD
ATOM     13  C   LIG    1       22.623 -29.192  12.396  0.00  0.00    +0.235 C 
ATOM     14  O   LIG    1       21.491 -28.787  12.136  0.00  0.00    -0.274 OA
BRANCH  13  15
ATOM     15  C   LIG    1       23.342 -28.868  13.731  0.00  0.00    +0.168 C 
BRANCH  15  16
ATOM     16  C   LIG    1       24.289 -27.682  13.638  0.00  0.00    -0.022 A 
ATOM     17  C   LIG    1       25.648 -27.834  13.322  0.00  0.00    +0.006 A 
ATOM     18  C   LIG    1       26.478 -26.715  13.178  0.00  0.00    +0.000 A 
ATOM     19  C   LIG    1       25.964 -25.431  13.348  0.00  0.00    +0.000 A 
ATOM     20  C   LIG    1       24.629 -25.264  13.707  0.00  0.00    +0.000 A 
ATOM     21  C   LIG    1       23.801 -26.381  13.859  0.00  0.00    +0.006 A 
ENDBRANCH  15  16
BRANCH  15  22
ATOM     22  N   LIG    1       22.366 -28.713  14.845  0.00  0.00    -0.316 NA
ATOM     23  H   LIG    1       21.499 -29.165  14.541  0.00  0.00    +0.119 HD
ATOM     24  H   LIG    1       22.126 -27.722  14.908  0.00  0.00    +0.119 HD
ENDBRANCH  15  22
ENDBRANCH  13  15
ENDBRANCH   7  11
BRANCH   1  25
ATOM     25  C   LIG    1       24.468 -32.773   6.727  0.00  0.00    +0.332 C 
ATOM     26  O   LIG    1       24.691 -33.819   6.128  0.00  0.00    -0.249 OA
BRANCH  25  27
ATOM     27  O   LIG    1       24.173 -31.586   6.136  0.00  0.00    -0.426 OA
BRANCH  27  28
ATOM     28  C   LIG    1       25.219 -31.014   5.360  0.00  0.00    +0.472 C 
BRANCH  28  29
ATOM     29  O   LIG    1       25.557 -29.729   5.881  0.00  0.00    -0.427 OA
BRANCH  29  30
ATOM     30  C   LIG    1       24.648 -28.733   5.727  0.00  0.00    +0.315 C 
ATOM     31  O   LIG    1       23.453 -28.905   5.530  0.00  0.00    -0.250 OA
BRANCH  30  33
ATOM     32  C   LIG    1       25.983 -27.265   7.298  0.00  0.00    +0.022 C 
ATOM     33  C   LIG    1       25.300 -27.358   5.922  0.00  0.00    +0.059 C 
ATOM     34  C   LIG    1       26.335 -27.113   4.819  0.00  0.00    +0.022 C 
ATOM     35  C   LIG    1       24.201 -26.288   5.837  0.00  0.00    +0.022 C 
ENDBRANCH  30  33
ENDBRANCH  29  30
ENDBRANCH  28  29
ENDBRANCH  27  28
ENDBRANCH  25  27
ENDBRANCH   1  25
TORSDOF 10
ENDMDL
MODEL 7
REMARK VINA RESULT:      -6.3      5.732      9.512
REMARK  Name = *****
REMARK                            x       y       z     vdW  Elec       q    Type
REMARK                         _______ _______ _______ _____ _____    ______ ____
ROOT
ATOM      1  C   LIG    1       24.983 -30.779  10.929  0.00  0.00    +0.201 C 
ATOM      2  C   LIG    1       26.176 -29.821  11.142  0.00  0.00    +0.042 C 
ATOM      3  C   LIG    1       25.670 -28.369  11.199  0.00  0.00    +0.025 C 
ATOM      4  C   LIG    1       27.056 -30.056  12.380  0.00  0.00    +0.025 C 
ATOM      5  S   LIG    1       27.279 -30.008   9.652  0.00  0.00    -0.127 S 
ATOM      6  C   LIG    1       26.083 -30.994   8.677  0.00  0.00    +0.165 C 
ATOM      7  C   LIG    1       25.278 -30.267   7.563  0.00  0.00    +0.190 C 
ATOM      8  C   LIG    1       24.183 -30.176   8.650  0.00  0.00    +0.240 C 
ATOM      9  O   LIG    1       23.181 -29.508   8.843  0.00  0.00    -0.273 OA
ATOM     10  N   LIG    1       24.860 -31.007   9.486  0.00  0.00    -0.271 N 
ENDROOT
BRANCH   7  11
ATOM     11  N   LIG    1       25.799 -28.967   7.045  0.00  0.00    -0.300 N 
ATOM     12  H   LIG    1       26.331 -28.343   7.650  0.00  0.00    +0.150 HD
ATOM     13  C   LIG    1       25.278 -28.362   5.914  0.00  0.00    +0.235 C 
ATOM     14  O   LIG    1       24.369 -28.874   5.262  0.00  0.00    -0.274 OA
BRANCH  13  15
ATOM     15  C   LIG    1       25.977 -27.047   5.484  0.00  0.00    +0.168 C 
BRANCH  15  16
ATOM     16  C   LIG    1       25.297 -25.796   6.016  0.00  0.00    -0.022 A 
ATOM     17  C   LIG    1       23.901 -25.645   6.012  0.00  0.00    +0.006 A 
ATOM     18  C   LIG    1       23.304 -24.508   6.571  0.00  0.00    +0.000 A 
ATOM     19  C   LIG    1       24.090 -23.507   7.139  0.00  0.00    +0.000 A 
ATOM     20  C   LIG    1       25.477 -23.620   7.110  0.00  0.00    +0.000 A 
ATOM     21  C   LIG    1       26.075 -24.750   6.545  0.00  0.00    +0.006 A 
ENDBRANCH  15  16
BRANCH  15  22
ATOM     22  N   LIG    1       27.429 -27.075   5.817  0.00  0.00    -0.316 NA
ATOM     23  H   LIG    1       27.765 -26.110   5.747  0.00  0.00    +0.119 HD
ATOM     24  H   LIG    1       27.908 -27.566   5.061  0.00  0.00    +0.119 HD
ENDBRANCH  15  22
ENDBRANCH  13  15
ENDBRANCH   7  11
BRANCH   1  25
ATOM     25  C   LIG    1       25.072 -32.105  11.694  0.00  0.00    +0.332 C 
ATOM     26  O   LIG    1       25.705 -33.077  11.300  0.00  0.00    -0.249 OA
BRANCH  25  27
ATOM     27  O   LIG    1       24.428 -32.027  12.887  0.00  0.00    -0.426 OA
BRANCH  27  28
ATOM     28  C   LIG    1       23.044 -31.701  12.814  0.00  0.00    +0.472 C 
BRANCH  28  29
ATOM     29  O   LIG    1       22.342 -32.734  12.123  0.00  0.00    -0.427 OA
BRANCH  29  30
ATOM     30  C   LIG    1       20.990 -32.639  12.065  0.00  0.00    +0.315 C 
ATOM     31  O   LIG    1       20.243 -32.727  13.030  0.00  0.00    -0.250 OA
BRANCH  30  33
ATOM     32  C   LIG    1       20.207 -30.818  10.492  0.00  0.00    +0.022 C 
ATOM     33  C   LIG    1       20.522 -32.317  10.640  0.00  0.00    +0.059 C 
ATOM     34  C   LIG    1       21.608 -32.714   9.634  0.00  0.00    +0.022 C 
ATOM     35  C   LIG    1       19.245 -33.125  10.358  0.00  0.00    +0.022 C 
ENDBRANCH  30  33
ENDBRANCH  29  30
ENDBRANCH  28  29
ENDBRANCH  27  28
ENDBRANCH  25  27
ENDBRANCH   1  25
TORSDOF 10
ENDMDL
MODEL 8
REMARK VINA RESULT:      -6.1      7.522     12.260
REMARK  Name = *****
REMARK                            x       y       z     vdW  Elec       q    Type
REMARK                         _______ _______ _______ _____ _____    ______ ____
ROOT
ATOM      1  C   LIG    1       23.779 -32.193  10.325  0.00  0.00    +0.201 C 
ATOM      2  C   LIG    1       24.333 -31.308  11.464  0.00  0.00    +0.042 C 
ATOM      3  C   LIG    1       24.169 -32.034  12.810  0.00  0.00    +0.025 C 
ATOM      4  C   LIG    1       25.798 -30.856  11.355  0.00  0.00    +0.025 C 
ATOM      5  S   LIG    1       23.291 -29.764  11.490  0.00  0.00    -0.127 S 
ATOM      6  C   LIG    1       22.018 -30.397  10.338  0.00  0.00    +0.165 C 
ATOM      7  C   LIG    1       20.676 -30.900  10.941  0.00  0.00    +0.190 C 
ATOM      8  C   LIG    1       21.343 -32.290  10.830  0.00  0.00    +0.240 C 
ATOM      9  O   LIG    1       21.173 -33.394  11.318  0.00  0.00    -0.273 OA
ATOM     10  N   LIG    1       22.384 -31.798  10.107  0.00  0.00    -0.271 N 
ENDROOT
BRANCH   7  11
ATOM     11  N   LIG    1       20.308 -30.457  12.319  0.00  0.00    -0.300 N 
ATOM     12  H   LIG    1       21.026 -30.153  12.976  0.00  0.00    +0.150 HD
ATOM     13  C   LIG    1       19.102 -30.801  12.907  0.00  0.00    +0.235 C 
ATOM     14  O   LIG    1       18.259 -31.475  12.317  0.00  0.00    -0.274 OA
BRANCH  13  15
ATOM     15  C   LIG    1       18.860 -30.205  14.318  0.00  0.00    +0.168 C 
BRANCH  15  16
ATOM     16  C   LIG    1       18.112 -28.882  14.299  0.00  0.00    -0.022 A 
ATOM     17  C   LIG    1       16.710 -28.815  14.278  0.00  0.00    +0.006 A 
ATOM     18  C   LIG    1       16.053 -27.580  14.327  0.00  0.00    +0.000 A 
ATOM     19  C   LIG    1       16.784 -26.396  14.397  0.00  0.00    +0.000 A 
ATOM     20  C   LIG    1       18.175 -26.441  14.373  0.00  0.00    +0.000 A 
ATOM     21  C   LIG    1       18.833 -27.674  14.314  0.00  0.00    +0.006 A 
ENDBRANCH  15  16
BRANCH  15  22
ATOM     22  N   LIG    1       18.208 -31.199  15.217  0.00  0.00    -0.316 NA
ATOM     23  H   LIG    1       17.817 -30.672  16.003  0.00  0.00    +0.119 HD
ATOM     24  H   LIG    1       18.948 -31.766  15.635  0.00  0.00    +0.119 HD
ENDBRANCH  15  22
ENDBRANCH  13  15
ENDBRANCH   7  11
BRANCH   1  25
ATOM     25  C   LIG    1       24.579 -32.145   9.018  0.00  0.00    +0.332 C 
ATOM     26  O   LIG    1       25.369 -33.014   8.670  0.00  0.00    -0.249 OA
BRANCH  25  27
ATOM     27  O   LIG    1       24.237 -31.062   8.273  0.00  0.00    -0.426 OA
BRANCH  27  28
ATOM     28  C   LIG    1       25.313 -30.418   7.602  0.00  0.00    +0.472 C 
BRANCH  28  29
ATOM     29  O   LIG    1       25.074 -29.012   7.546  0.00  0.00    -0.427 OA
BRANCH  29  30
ATOM     30  C   LIG    1       24.586 -28.507   6.385  0.00  0.00    +0.315 C 
ATOM     31  O   LIG    1       23.728 -29.044   5.698  0.00  0.00    -0.250 OA
BRANCH  30  33
ATOM     32  C   LIG    1       24.084 -26.060   5.978  0.00  0.00    +0.022 C 
ATOM     33  C   LIG    1       25.188 -27.127   6.090  0.00  0.00    +0.059 C 
ATOM     34  C   LIG    1       26.167 -26.738   7.203  0.00  0.00    +0.022 C 
ATOM     35  C   LIG    1       25.941 -27.206   4.752  0.00  0.00    +0.022 C 
ENDBRANCH  30  33
ENDBRANCH  29  30
ENDBRANCH  28  29
ENDBRANCH  27  28
ENDBRANCH  25  27
ENDBRANCH   1  25
TORSDOF 10
ENDMDL
MODEL 9
REMARK VINA RESULT:      -6.1      6.823     10.596
REMARK  Name = *****
REMARK                            x       y       z     vdW  Elec       q    Type
REMARK                         _______ _______ _______ _____ _____    ______ ____
ROOT
ATOM      1  C   LIG    1       24.643 -31.948  12.484  0.00  0.00    +0.201 C 
ATOM      2  C   LIG    1       23.709 -30.724  12.626  0.00  0.00    +0.042 C 
ATOM      3  C   LIG    1       22.406 -30.975  11.848  0.00  0.00    +0.025 C 
ATOM      4  C   LIG    1       23.326 -30.292  14.050  0.00  0.00    +0.025 C 
ATOM      5  S   LIG    1       24.601 -29.286  11.846  0.00  0.00    -0.127 S 
ATOM      6  C   LIG    1       25.925 -30.295  11.086  0.00  0.00    +0.165 C 
ATOM      7  C   LIG    1       25.819 -30.610   9.568  0.00  0.00    +0.190 C 
ATOM      8  C   LIG    1       25.207 -31.941  10.059  0.00  0.00    +0.240 C 
ATOM      9  O   LIG    1       24.521 -32.830   9.582  0.00  0.00    -0.273 OA
ATOM     10  N   LIG    1       25.537 -31.684  11.352  0.00  0.00    -0.271 N 
ENDROOT
BRANCH   7  11
ATOM     11  N   LIG    1       24.934 -29.752   8.725  0.00  0.00    -0.300 N 
ATOM     12  H   LIG    1       24.128 -29.280   9.133  0.00  0.00    +0.150 HD
ATOM     13  C   LIG    1       24.896 -29.862   7.345  0.00  0.00    +0.235 C 
ATOM     14  O   LIG    1       25.605 -30.662   6.737  0.00  0.00    -0.274 OA
BRANCH  13  15
ATOM     15  C   LIG    1       23.965 -28.852   6.625  0.00  0.00    +0.168 C 
BRANCH  15  16
ATOM     16  C   LIG    1       24.616 -27.504   6.367  0.00  0.00    -0.022 A 
ATOM     17  C   LIG    1       24.047 -26.550   5.510  0.00  0.00    +0.006 A 
ATOM     18  C   LIG    1       24.639 -25.291   5.346  0.00  0.00    +0.000 A 
ATOM     19  C   LIG    1       25.807 -24.969   6.034  0.00  0.00    +0.000 A 
ATOM     20  C   LIG    1       26.411 -25.919   6.853  0.00  0.00    +0.000 A 
ATOM     21  C   LIG    1       25.825 -27.179   7.010  0.00  0.00    +0.006 A 
ENDBRANCH  15  16
BRANCH  15  22
ATOM     22  N   LIG    1       23.391 -29.440   5.383  0.00  0.00    -0.316 NA
ATOM     23  H   LIG    1       23.837 -28.957   4.597  0.00  0.00    +0.119 HD
ATOM     24  H   LIG    1       22.411 -29.156   5.333  0.00  0.00    +0.119 HD
ENDBRANCH  15  22
ENDBRANCH  13  15
ENDBRANCH   7  11
BRANCH   1  25
ATOM     25  C   LIG    1       25.437 -32.307  13.746  0.00  0.00    +0.332 C 
ATOM     26  O   LIG    1       24.986 -32.978  14.666  0.00  0.00    -0.249 OA
BRANCH  25  27
ATOM     27  O   LIG    1       26.714 -31.853  13.667  0.00  0.00    -0.426 OA
BRANCH  27  28
ATOM     28  C   LIG    1       27.169 -31.111  14.793  0.00  0.00    +0.472 C 
BRANCH  28  29
ATOM     29  O   LIG    1       26.742 -29.754  14.680  0.00  0.00    -0.427 OA
BRANCH  29  30
ATOM     30  C   LIG    1       27.607 -28.871  14.120  0.00  0.00    +0.315 C 
ATOM     31  O   LIG    1       28.585 -29.182  13.454  0.00  0.00    -0.250 OA
BRANCH  30  33
ATOM     32  C   LIG    1       28.183 -26.651  15.189  0.00  0.00    +0.022 C 
ATOM     33  C   LIG    1       27.148 -27.426  14.354  0.00  0.00    +0.059 C 
ATOM     34  C   LIG    1       26.943 -26.722  13.009  0.00  0.00    +0.022 C 
ATOM     35  C   LIG    1       25.816 -27.463  15.120  0.00  0.00    +0.022 C 
ENDBRANCH  30  33
ENDBRANCH  29  30
ENDBRANCH  28  29
ENDBRANCH  27  28
ENDBRANCH  25  27
ENDBRANCH   1  25
TORSDOF 10
ENDMDL
