MODEL 1
REMARK VINA RESULT:       2.8      0.000      0.000
REMARK  Name = *****
REMARK                            x       y       z     vdW  Elec       q    Type
REMARK                         _______ _______ _______ _____ _____    ______ ____
ROOT
ATOM      1  C   LIG    1       20.602 -30.480  14.016  0.00  0.00    +0.210 C 
ATOM      2  C   LIG    1       20.910 -28.913  13.809  0.00  0.00    +0.126 C 
ATOM      3  C   LIG    1       19.982 -28.422  12.691  0.00  0.00    +0.048 C 
ATOM      4  C   LIG    1       22.506 -28.755  13.645  0.00  0.00    +0.158 C 
ATOM      5  C   LIG    1       23.490 -27.643  13.157  0.00  0.00    +0.065 C 
ATOM      6  C   LIG    1       22.843 -26.283  13.005  0.00  0.00    +0.016 C 
ATOM      7  C   LIG    1       24.875 -27.718  13.866  0.00  0.00    +0.066 C 
ATOM      8  N   LIG    1       25.322 -26.971  14.833  0.00  0.00    -0.091 NA
ATOM      9  C   LIG    1       25.889 -28.927  13.592  0.00  0.00    +0.037 C 
ATOM     10  C   LIG    1       27.352 -28.499  13.639  0.00  0.00    +0.014 C 
ATOM     11  C   LIG    1       25.743 -30.125  12.638  0.00  0.00    +0.046 C 
ATOM     12  C   LIG    1       26.105 -30.263  11.125  0.00  0.00    +0.090 C 
ATOM     13  C   LIG    1       27.570 -30.032  10.836  0.00  0.00    +0.044 C 
ATOM     14  C   LIG    1       25.120 -29.647  10.028  0.00  0.00    +0.158 C 
ATOM     15  C   LIG    1       23.574 -30.380  10.322  0.00  0.00    +0.047 C 
ATOM     16  C   LIG    1       22.245 -29.609  10.121  0.00  0.00    +0.013 C 
ATOM     17  C   LIG    1       23.375 -32.083  10.303  0.00  0.00    +0.140 C 
ATOM     18  C   LIG    1       22.323 -32.546  11.443  0.00  0.00    +0.124 C 
ATOM     19  C   LIG    1       22.706 -33.823  12.233  0.00  0.00    +0.022 C 
ATOM     20  C   LIG    1       22.108 -31.675  12.623  0.00  0.00    +0.313 C 
ATOM     21  O   LIG    1       23.034 -31.518  13.580  0.00  0.00    -0.250 OA
ATOM     22  O   LIG    1       20.887 -31.187  12.776  0.00  0.00    -0.458 OA
ENDROOT
BRANCH   1  24
ATOM     23  C   LIG    1       18.517 -31.957  13.582  0.00  0.00    +0.007 C 
ATOM     24  C   LIG    1       19.168 -30.870  14.451  0.00  0.00    +0.044 C 
ENDBRANCH   1  24
BRANCH  12  25
ATOM     25  O   LIG    1       26.075 -31.696  10.956  0.00  0.00    -0.386 OA
ATOM     26  H   LIG    1       25.154 -31.959  11.131  0.00  0.00    +0.210 HD
ENDBRANCH  12  25
BRANCH   4  27
ATOM     27  O   LIG    1       23.037 -29.257  14.889  0.00  0.00    -0.388 OA
ATOM     28  H   LIG    1       24.014 -29.234  14.785  0.00  0.00    +0.210 HD
ENDBRANCH   4  27
BRANCH   2  29
ATOM     29  O   LIG    1       20.501 -28.207  14.993  0.00  0.00    -0.383 OA
ATOM     30  H   LIG    1       19.955 -27.460  14.681  0.00  0.00    +0.210 HD
ENDBRANCH   2  29
BRANCH  14  31
ATOM     31  O   LIG    1       25.224 -28.120   9.987  0.00  0.00    -0.342 OA
BRANCH  31  32
ATOM     32  C   LIG    1       26.134 -27.370   8.955  0.00  0.00    +0.281 C 
ATOM     33  C   LIG    1       26.311 -28.098   7.508  0.00  0.00    +0.187 C 
ATOM     34  C   LIG    1       25.606 -27.402   6.121  0.00  0.00    +0.092 C 
ATOM     35  C   LIG    1       25.926 -25.865   6.166  0.00  0.00    +0.053 C 
ATOM     36  C   LIG    1       26.376 -25.298   7.554  0.00  0.00    +0.120 C 
ATOM     37  C   LIG    1       25.979 -23.778   7.612  0.00  0.00    +0.038 C 
ATOM     38  O   LIG    1       25.728 -26.012   8.651  0.00  0.00    -0.346 OA
BRANCH  34  39
ATOM     39  N   LIG    1       24.230 -27.791   5.510  0.00  0.00    -0.303 NA
ATOM     40  C   LIG    1       23.431 -26.762   4.845  0.00  0.00    +0.105 C 
ATOM     41  C   LIG    1       23.916 -29.187   5.057  0.00  0.00    +0.105 C 
ENDBRANCH  34  39
BRANCH  33  42
ATOM     42  O   LIG    1       27.777 -27.983   7.250  0.00  0.00    -0.385 OA
ATOM     43  H   LIG    1       28.186 -28.866   7.308  0.00  0.00    +0.210 HD
ENDBRANCH  33  42
ENDBRANCH  31  32
ENDBRANCH  14  31
BRANCH  17  44
ATOM     44  O   LIG    1       23.229 -32.673   8.930  0.00  0.00    -0.347 OA
BRANCH  44  45
ATOM     45  C   LIG    1       23.329 -31.781   7.732  0.00  0.00    +0.254 C 
ATOM     46  O   LIG    1       23.095 -32.341   6.433  0.00  0.00    -0.346 OA
ATOM     47  C   LIG    1       24.082 -33.265   5.977  0.00  0.00    +0.150 C 
ATOM     48  C   LIG    1       23.951 -33.580   4.480  0.00  0.00    +0.040 C 
ATOM     49  C   LIG    1       25.568 -33.026   6.356  0.00  0.00    +0.175 C 
ATOM     50  C   LIG    1       25.905 -31.540   6.595  0.00  0.00    +0.099 C 
ATOM     51  C   LIG    1       26.281 -30.948   5.149  0.00  0.00    +0.044 C 
ATOM     52  C   LIG    1       24.685 -30.906   7.537  0.00  0.00    +0.098 C 
BRANCH  50  53
ATOM     53  O   LIG    1       27.140 -31.460   7.410  0.00  0.00    -0.374 OA
ATOM     54  C   LIG    1       27.385 -32.512   8.360  0.00  0.00    +0.195 C 
ENDBRANCH  50  53
BRANCH  49  55
ATOM     55  O   LIG    1       25.947 -33.824   7.494  0.00  0.00    -0.386 OA
ATOM     56  H   LIG    1       25.178 -33.798   8.103  0.00  0.00    +0.210 HD
ENDBRANCH  49  55
ENDBRANCH  44  45
ENDBRANCH  17  44
BRANCH   8  57
ATOM     57  O   LIG    1       24.571 -25.940  15.375  0.00  0.00    -0.365 OA
BRANCH  57  58
ATOM     58  C   LIG    1       25.379 -24.722  15.432  0.00  0.00    +0.426 C 
BRANCH  58  59
ATOM     59  O   LIG    1       26.007 -24.205  14.243  0.00  0.00    -0.340 OA
BRANCH  59  60
ATOM     60  C   LIG    1       27.356 -24.635  13.989  0.00  0.00    +0.192 C 
BRANCH  60  61
ATOM     61  C   LIG    1       28.383 -24.553  15.141  0.00  0.00    +0.187 C 
BRANCH  61  62
ATOM     62  O   LIG    1       29.456 -25.511  15.008  0.00  0.00    -0.381 OA
ATOM     63  C   LIG    1       29.152 -26.826  15.499  0.00  0.00    +0.194 C 
ENDBRANCH  61  62
ENDBRANCH  60  61
ENDBRANCH  59  60
ENDBRANCH  58  59
ENDBRANCH  57  58
ENDBRANCH   8  57
TORSDOF 18
ENDMDL
MODEL 2
REMARK VINA RESULT:       3.3      2.187      9.220
REMARK  Name = *****
REMARK                            x       y       z     vdW  Elec       q    Type
REMARK                         _______ _______ _______ _____ _____    ______ ____
ROOT
ATOM      1  C   LIG    1       25.927 -27.716   6.904  0.00  0.00    +0.210 C 
ATOM      2  C   LIG    1       25.135 -29.034   6.423  0.00  0.00    +0.126 C 
ATOM      3  C   LIG    1       23.647 -28.661   6.369  0.00  0.00    +0.048 C 
ATOM      4  C   LIG    1       25.615 -30.252   7.363  0.00  0.00    +0.158 C 
ATOM      5  C   LIG    1       25.121 -31.701   7.680  0.00  0.00    +0.065 C 
ATOM      6  C   LIG    1       24.064 -32.206   6.723  0.00  0.00    +0.016 C 
ATOM      7  C   LIG    1       26.289 -32.662   8.052  0.00  0.00    +0.066 C 
ATOM      8  N   LIG    1       26.850 -33.568   7.305  0.00  0.00    -0.091 NA
ATOM      9  C   LIG    1       27.107 -32.494   9.419  0.00  0.00    +0.037 C 
ATOM     10  C   LIG    1       27.559 -33.825  10.009  0.00  0.00    +0.014 C 
ATOM     11  C   LIG    1       26.906 -31.479  10.556  0.00  0.00    +0.046 C 
ATOM     12  C   LIG    1       25.979 -31.536  11.812  0.00  0.00    +0.090 C 
ATOM     13  C   LIG    1       26.272 -32.708  12.720  0.00  0.00    +0.044 C 
ATOM     14  C   LIG    1       24.422 -31.215  11.648  0.00  0.00    +0.158 C 
ATOM     15  C   LIG    1       24.342 -29.631  10.943  0.00  0.00    +0.047 C 
ATOM     16  C   LIG    1       23.244 -29.236   9.924  0.00  0.00    +0.013 C 
ATOM     17  C   LIG    1       25.076 -28.279  11.701  0.00  0.00    +0.140 C 
ATOM     18  C   LIG    1       25.719 -27.286  10.595  0.00  0.00    +0.124 C 
ATOM     19  C   LIG    1       27.108 -26.697  10.947  0.00  0.00    +0.022 C 
ATOM     20  C   LIG    1       26.098 -27.831   9.269  0.00  0.00    +0.313 C 
ATOM     21  O   LIG    1       27.144 -28.651   9.100  0.00  0.00    -0.250 OA
ATOM     22  O   LIG    1       25.452 -27.333   8.226  0.00  0.00    -0.458 OA
ENDROOT
BRANCH   1  24
ATOM     23  C   LIG    1       25.879 -25.129   6.760  0.00  0.00    +0.007 C 
ATOM     24  C   LIG    1       25.835 -26.463   5.999  0.00  0.00    +0.044 C 
ENDBRANCH   1  24
BRANCH  12  25
ATOM     25  O   LIG    1       26.539 -30.485  12.627  0.00  0.00    -0.386 OA
ATOM     26  H   LIG    1       26.926 -29.850  12.000  0.00  0.00    +0.210 HD
ENDBRANCH  12  25
BRANCH   4  27
ATOM     27  O   LIG    1       27.033 -30.346   7.115  0.00  0.00    -0.388 OA
ATOM     28  H   LIG    1       27.329 -31.157   7.585  0.00  0.00    +0.210 HD
ENDBRANCH   4  27
BRANCH   2  29
ATOM     29  O   LIG    1       25.514 -29.325   5.067  0.00  0.00    -0.383 OA
ATOM     30  H   LIG    1       25.089 -28.637   4.520  0.00  0.00    +0.210 HD
ENDBRANCH   2  29
BRANCH  14  31
ATOM     31  O   LIG    1       23.688 -32.372  10.964  0.00  0.00    -0.342 OA
BRANCH  31  32
ATOM     32  C   LIG    1       22.184 -32.700  11.256  0.00  0.00    +0.281 C 
ATOM     33  C   LIG    1       21.726 -32.589  12.816  0.00  0.00    +0.187 C 
ATOM     34  C   LIG    1       20.676 -31.337  13.299  0.00  0.00    +0.092 C 
ATOM     35  C   LIG    1       19.524 -31.267  12.234  0.00  0.00    +0.053 C 
ATOM     36  C   LIG    1       19.810 -31.974  10.868  0.00  0.00    +0.120 C 
ATOM     37  C   LIG    1       18.959 -31.255   9.758  0.00  0.00    +0.038 C 
ATOM     38  O   LIG    1       21.226 -31.899  10.520  0.00  0.00    -0.346 OA
BRANCH  34  39
ATOM     39  N   LIG    1       21.108 -29.978  13.922  0.00  0.00    -0.303 NA
ATOM     40  C   LIG    1       20.775 -28.737  13.222  0.00  0.00    +0.105 C 
ATOM     41  C   LIG    1       21.327 -29.801  15.396  0.00  0.00    +0.105 C 
ENDBRANCH  34  39
BRANCH  33  42
ATOM     42  O   LIG    1       20.914 -33.825  13.018  0.00  0.00    -0.385 OA
ATOM     43  H   LIG    1       21.503 -34.564  13.256  0.00  0.00    +0.210 HD
ENDBRANCH  33  42
ENDBRANCH  31  32
ENDBRANCH  14  31
BRANCH  17  44
ATOM     44  O   LIG    1       24.260 -27.669  12.802  0.00  0.00    -0.347 OA
BRANCH  44  45
ATOM     45  C   LIG    1       24.858 -27.523  14.168  0.00  0.00    +0.254 C 
ATOM     46  O   LIG    1       24.799 -26.245  14.814  0.00  0.00    -0.346 OA
ATOM     47  C   LIG    1       25.599 -25.221  14.222  0.00  0.00    +0.150 C 
ATOM     48  C   LIG    1       25.745 -23.989  15.125  0.00  0.00    +0.040 C 
ATOM     49  C   LIG    1       26.966 -25.603  13.596  0.00  0.00    +0.175 C 
ATOM     50  C   LIG    1       27.603 -26.854  14.237  0.00  0.00    +0.099 C 
ATOM     51  C   LIG    1       28.442 -26.310  15.495  0.00  0.00    +0.044 C 
ATOM     52  C   LIG    1       26.398 -27.996  14.385  0.00  0.00    +0.098 C 
BRANCH  50  53
ATOM     53  O   LIG    1       28.592 -27.419  13.290  0.00  0.00    -0.374 OA
ATOM     54  C   LIG    1       28.614 -28.846  13.114  0.00  0.00    +0.195 C 
ENDBRANCH  50  53
BRANCH  49  55
ATOM     55  O   LIG    1       26.855 -25.763  12.169  0.00  0.00    -0.386 OA
ATOM     56  H   LIG    1       26.326 -24.997  11.857  0.00  0.00    +0.210 HD
ENDBRANCH  49  55
ENDBRANCH  44  45
ENDBRANCH  17  44
BRANCH   8  57
ATOM     57  O   LIG    1       26.436 -33.811   6.005  0.00  0.00    -0.365 OA
BRANCH  57  58
ATOM     58  C   LIG    1       27.428 -33.284   5.068  0.00  0.00    +0.426 C 
BRANCH  58  59
ATOM     59  O   LIG    1       27.387 -33.655   3.676  0.00  0.00    -0.340 OA
BRANCH  59  60
ATOM     60  C   LIG    1       26.688 -32.760   2.792  0.00  0.00    +0.192 C 
BRANCH  60  61
ATOM     61  C   LIG    1       25.165 -32.581   2.982  0.00  0.00    +0.187 C 
BRANCH  61  62
ATOM     62  O   LIG    1       24.483 -33.824   3.262  0.00  0.00    -0.381 OA
ATOM     63  C   LIG    1       23.511 -33.752   4.317  0.00  0.00    +0.194 C 
ENDBRANCH  61  62
ENDBRANCH  60  61
ENDBRANCH  59  60
ENDBRANCH  58  59
ENDBRANCH  57  58
ENDBRANCH   8  57
TORSDOF 18
ENDMDL
MODEL 3
REMARK VINA RESULT:       3.5      2.414      6.887
REMARK  Name = *****
REMARK                            x       y       z     vdW  Elec       q    Type
REMARK                         _______ _______ _______ _____ _____    ______ ____
ROOT
ATOM      1  C   LIG    1       22.520 -33.179   8.431  0.00  0.00    +0.210 C 
ATOM      2  C   LIG    1       21.629 -32.591   9.638  0.00  0.00    +0.126 C 
ATOM      3  C   LIG    1       20.917 -31.344   9.098  0.00  0.00    +0.048 C 
ATOM      4  C   LIG    1       22.591 -32.462  10.926  0.00  0.00    +0.158 C 
ATOM      5  C   LIG    1       22.534 -31.749  12.315  0.00  0.00    +0.065 C 
ATOM      6  C   LIG    1       21.160 -31.225  12.674  0.00  0.00    +0.016 C 
ATOM      7  C   LIG    1       23.334 -32.513  13.412  0.00  0.00    +0.066 C 
ATOM      8  N   LIG    1       22.868 -33.275  14.358  0.00  0.00    -0.091 NA
ATOM      9  C   LIG    1       24.932 -32.604  13.370  0.00  0.00    +0.037 C 
ATOM     10  C   LIG    1       25.564 -32.603  14.757  0.00  0.00    +0.014 C 
ATOM     11  C   LIG    1       25.918 -31.983  12.366  0.00  0.00    +0.046 C 
ATOM     12  C   LIG    1       26.590 -30.574  12.347  0.00  0.00    +0.090 C 
ATOM     13  C   LIG    1       27.440 -30.299  13.565  0.00  0.00    +0.044 C 
ATOM     14  C   LIG    1       25.745 -29.313  11.846  0.00  0.00    +0.158 C 
ATOM     15  C   LIG    1       25.204 -29.716  10.247  0.00  0.00    +0.047 C 
ATOM     16  C   LIG    1       23.824 -29.267   9.706  0.00  0.00    +0.013 C 
ATOM     17  C   LIG    1       26.314 -30.126   9.005  0.00  0.00    +0.140 C 
ATOM     18  C   LIG    1       25.711 -31.299   8.067  0.00  0.00    +0.124 C 
ATOM     19  C   LIG    1       26.711 -32.407   7.648  0.00  0.00    +0.022 C 
ATOM     20  C   LIG    1       24.677 -32.207   8.620  0.00  0.00    +0.313 C 
ATOM     21  O   LIG    1       24.954 -33.131   9.551  0.00  0.00    -0.250 OA
ATOM     22  O   LIG    1       23.493 -32.175   8.028  0.00  0.00    -0.458 OA
ENDROOT
BRANCH   1  24
ATOM     23  C   LIG    1       22.628 -33.619   5.880  0.00  0.00    +0.007 C 
ATOM     24  C   LIG    1       21.771 -33.636   7.155  0.00  0.00    +0.044 C 
ENDBRANCH   1  24
BRANCH  12  25
ATOM     25  O   LIG    1       27.647 -30.776  11.386  0.00  0.00    -0.386 OA
ATOM     26  H   LIG    1       27.201 -31.034  10.560  0.00  0.00    +0.210 HD
ENDBRANCH  12  25
BRANCH   4  27
ATOM     27  O   LIG    1       23.025 -33.815  11.175  0.00  0.00    -0.388 OA
ATOM     28  H   LIG    1       22.201 -34.345  11.250  0.00  0.00    +0.210 HD
ENDBRANCH   4  27
BRANCH   2  29
ATOM     29  O   LIG    1       20.588 -33.536   9.940  0.00  0.00    -0.383 OA
ATOM     30  H   LIG    1       20.652 -33.702  10.900  0.00  0.00    +0.210 HD
ENDBRANCH   2  29
BRANCH  14  31
ATOM     31  O   LIG    1       24.714 -28.886  12.895  0.00  0.00    -0.342 OA
BRANCH  31  32
ATOM     32  C   LIG    1       24.595 -27.408  13.399  0.00  0.00    +0.281 C 
ATOM     33  C   LIG    1       25.087 -27.140  14.930  0.00  0.00    +0.187 C 
ATOM     34  C   LIG    1       26.503 -26.235  15.214  0.00  0.00    +0.092 C 
ATOM     35  C   LIG    1       26.440 -24.977  14.278  0.00  0.00    +0.053 C 
ATOM     36  C   LIG    1       25.427 -25.057  13.088  0.00  0.00    +0.120 C 
ATOM     37  C   LIG    1       25.957 -24.134  11.931  0.00  0.00    +0.038 C 
ATOM     38  O   LIG    1       25.297 -26.426  12.596  0.00  0.00    -0.346 OA
BRANCH  34  39
ATOM     39  N   LIG    1       27.921 -26.825  15.465  0.00  0.00    -0.303 NA
ATOM     40  C   LIG    1       28.100 -28.277  15.448  0.00  0.00    +0.105 C 
ATOM     41  C   LIG    1       29.176 -26.057  15.170  0.00  0.00    +0.105 C 
ENDBRANCH  34  39
BRANCH  33  42
ATOM     42  O   LIG    1       24.003 -26.277  15.486  0.00  0.00    -0.385 OA
ATOM     43  H   LIG    1       23.916 -26.444  16.443  0.00  0.00    +0.210 HD
ENDBRANCH  33  42
ENDBRANCH  31  32
ENDBRANCH  14  31
BRANCH  17  44
ATOM     44  O   LIG    1       26.952 -28.946   8.332  0.00  0.00    -0.347 OA
BRANCH  44  45
ATOM     45  C   LIG    1       26.090 -27.820   7.850  0.00  0.00    +0.254 C 
ATOM     46  O   LIG    1       24.751 -28.108   7.426  0.00  0.00    -0.346 OA
ATOM     47  C   LIG    1       24.640 -28.869   6.223  0.00  0.00    +0.150 C 
ATOM     48  C   LIG    1       23.214 -28.871   5.655  0.00  0.00    +0.040 C 
ATOM     49  C   LIG    1       25.677 -28.642   5.091  0.00  0.00    +0.175 C 
ATOM     50  C   LIG    1       26.283 -27.223   5.094  0.00  0.00    +0.099 C 
ATOM     51  C   LIG    1       25.278 -26.326   4.218  0.00  0.00    +0.044 C 
ATOM     52  C   LIG    1       26.670 -26.859   6.674  0.00  0.00    +0.098 C 
BRANCH  50  53
ATOM     53  O   LIG    1       27.565 -27.255   4.352  0.00  0.00    -0.374 OA
ATOM     54  C   LIG    1       28.755 -26.850   5.051  0.00  0.00    +0.195 C 
ENDBRANCH  50  53
BRANCH  49  55
ATOM     55  O   LIG    1       26.715 -29.640   5.133  0.00  0.00    -0.386 OA
ATOM     56  H   LIG    1       26.457 -30.319   4.474  0.00  0.00    +0.210 HD
ENDBRANCH  49  55
ENDBRANCH  44  45
ENDBRANCH  17  44
BRANCH   8  57
ATOM     57  O   LIG    1       21.511 -33.501  14.522  0.00  0.00    -0.365 OA
BRANCH  57  58
ATOM     58  C   LIG    1       20.875 -33.641  13.212  0.00  0.00    +0.426 C 
BRANCH  58  59
ATOM     59  O   LIG    1       19.441 -33.740  13.102  0.00  0.00    -0.340 OA
BRANCH  59  60
ATOM     60  C   LIG    1       18.670 -32.909  13.986  0.00  0.00    +0.192 C 
BRANCH  60  61
ATOM     61  C   LIG    1       17.602 -31.975  13.372  0.00  0.00    +0.187 C 
BRANCH  61  62
ATOM     62  O   LIG    1       17.919 -31.570  12.022  0.00  0.00    -0.381 OA
ATOM     63  C   LIG    1       17.870 -32.626  11.050  0.00  0.00    +0.194 C 
ENDBRANCH  61  62
ENDBRANCH  60  61
ENDBRANCH  59  60
ENDBRANCH  58  59
ENDBRANCH  57  58
ENDBRANCH   8  57
TORSDOF 18
ENDMDL
MODEL 4
REMARK VINA RESULT:       4.4      2.626      8.290
REMARK  Name = *****
REMARK                            x       y       z     vdW  Elec       q    Type
REMARK                         _______ _______ _______ _____ _____    ______ ____
ROOT
ATOM      1  C   LIG    1       25.627 -31.807   5.102  0.00  0.00    +0.210 C 
ATOM      2  C   LIG    1       24.820 -32.404   6.361  0.00  0.00    +0.126 C 
ATOM      3  C   LIG    1       23.327 -32.222   6.058  0.00  0.00    +0.048 C 
ATOM      4  C   LIG    1       25.448 -31.744   7.691  0.00  0.00    +0.158 C 
ATOM      5  C   LIG    1       25.039 -31.617   9.194  0.00  0.00    +0.065 C 
ATOM      6  C   LIG    1       23.887 -32.514   9.588  0.00  0.00    +0.016 C 
ATOM      7  C   LIG    1       26.271 -31.549  10.144  0.00  0.00    +0.066 C 
ATOM      8  N   LIG    1       26.761 -32.497  10.889  0.00  0.00    -0.091 NA
ATOM      9  C   LIG    1       27.247 -30.279  10.159  0.00  0.00    +0.037 C 
ATOM     10  C   LIG    1       27.806 -29.975  11.545  0.00  0.00    +0.014 C 
ATOM     11  C   LIG    1       27.158 -28.972   9.353  0.00  0.00    +0.046 C 
ATOM     12  C   LIG    1       26.395 -27.644   9.658  0.00  0.00    +0.090 C 
ATOM     13  C   LIG    1       26.832 -26.985  10.945  0.00  0.00    +0.044 C 
ATOM     14  C   LIG    1       24.821 -27.569   9.391  0.00  0.00    +0.158 C 
ATOM     15  C   LIG    1       24.609 -27.986   7.719  0.00  0.00    +0.047 C 
ATOM     16  C   LIG    1       23.383 -28.790   7.220  0.00  0.00    +0.013 C 
ATOM     17  C   LIG    1       25.392 -27.105   6.474  0.00  0.00    +0.140 C 
ATOM     18  C   LIG    1       25.864 -28.098   5.285  0.00  0.00    +0.124 C 
ATOM     19  C   LIG    1       27.269 -27.818   4.693  0.00  0.00    +0.022 C 
ATOM     20  C   LIG    1       26.092 -29.531   5.589  0.00  0.00    +0.313 C 
ATOM     21  O   LIG    1       27.133 -29.955   6.319  0.00  0.00    -0.250 OA
ATOM     22  O   LIG    1       25.308 -30.394   4.961  0.00  0.00    -0.458 OA
ENDROOT
BRANCH   1  24
ATOM     23  C   LIG    1       26.590 -33.267   3.189  0.00  0.00    +0.007 C 
ATOM     24  C   LIG    1       25.388 -32.474   3.724  0.00  0.00    +0.044 C 
ENDBRANCH   1  24
BRANCH  12  25
ATOM     25  O   LIG    1       27.021 -26.737   8.727  0.00  0.00    -0.386 OA
ATOM     26  H   LIG    1       26.382 -26.013   8.601  0.00  0.00    +0.210 HD
ENDBRANCH  12  25
BRANCH   4  27
ATOM     27  O   LIG    1       26.827 -32.168   7.674  0.00  0.00    -0.388 OA
ATOM     28  H   LIG    1       26.975 -32.614   8.537  0.00  0.00    +0.210 HD
ENDBRANCH   4  27
BRANCH   2  29
ATOM     29  O   LIG    1       25.038 -33.825   6.411  0.00  0.00    -0.383 OA
ATOM     30  H   LIG    1       25.602 -33.979   7.193  0.00  0.00    +0.210 HD
ENDBRANCH   2  29
BRANCH  14  31
ATOM     31  O   LIG    1       24.042 -28.346  10.457  0.00  0.00    -0.342 OA
BRANCH  31  32
ATOM     32  C   LIG    1       24.295 -28.148  11.990  0.00  0.00    +0.281 C 
ATOM     33  C   LIG    1       23.489 -26.915  12.687  0.00  0.00    +0.187 C 
ATOM     34  C   LIG    1       22.234 -27.247  13.792  0.00  0.00    +0.092 C 
ATOM     35  C   LIG    1       22.759 -28.365  14.761  0.00  0.00    +0.053 C 
ATOM     36  C   LIG    1       24.009 -29.168  14.268  0.00  0.00    +0.120 C 
ATOM     37  C   LIG    1       23.964 -30.594  14.929  0.00  0.00    +0.038 C 
ATOM     38  O   LIG    1       24.009 -29.306  12.815  0.00  0.00    -0.346 OA
BRANCH  34  39
ATOM     39  N   LIG    1       20.716 -27.299  13.453  0.00  0.00    -0.303 NA
ATOM     40  C   LIG    1       20.102 -28.590  13.144  0.00  0.00    +0.105 C 
ATOM     41  C   LIG    1       19.745 -26.270  13.952  0.00  0.00    +0.105 C 
ENDBRANCH  34  39
BRANCH  33  42
ATOM     42  O   LIG    1       24.534 -26.262  13.530  0.00  0.00    -0.385 OA
ATOM     43  H   LIG    1       24.556 -25.307  13.335  0.00  0.00    +0.210 HD
ENDBRANCH  33  42
ENDBRANCH  31  32
ENDBRANCH  14  31
BRANCH  17  44
ATOM     44  O   LIG    1       24.700 -25.829   6.091  0.00  0.00    -0.347 OA
BRANCH  44  45
ATOM     45  C   LIG    1       25.517 -24.650   5.660  0.00  0.00    +0.254 C 
ATOM     46  O   LIG    1       26.230 -23.904   6.655  0.00  0.00    -0.346 OA
ATOM     47  C   LIG    1       25.417 -23.160   7.563  0.00  0.00    +0.150 C 
ATOM     48  C   LIG    1       26.224 -22.147   8.385  0.00  0.00    +0.040 C 
ATOM     49  C   LIG    1       24.103 -22.519   7.044  0.00  0.00    +0.175 C 
ATOM     50  C   LIG    1       24.141 -22.185   5.538  0.00  0.00    +0.099 C 
ATOM     51  C   LIG    1       24.781 -20.715   5.441  0.00  0.00    +0.044 C 
ATOM     52  C   LIG    1       24.796 -23.505   4.759  0.00  0.00    +0.098 C 
BRANCH  50  53
ATOM     53  O   LIG    1       22.749 -22.065   5.045  0.00  0.00    -0.374 OA
ATOM     54  C   LIG    1       22.129 -20.768   5.096  0.00  0.00    +0.195 C 
ENDBRANCH  50  53
BRANCH  49  55
ATOM     55  O   LIG    1       22.965 -23.346   7.353  0.00  0.00    -0.386 OA
ATOM     56  H   LIG    1       22.557 -22.947   8.151  0.00  0.00    +0.210 HD
ENDBRANCH  49  55
ENDBRANCH  44  45
ENDBRANCH  17  44
BRANCH   8  57
ATOM     57  O   LIG    1       26.198 -33.762  10.938  0.00  0.00    -0.365 OA
BRANCH  57  58
ATOM     58  C   LIG    1       25.225 -33.824  12.029  0.00  0.00    +0.426 C 
BRANCH  58  59
ATOM     59  O   LIG    1       25.655 -33.704  13.399  0.00  0.00    -0.340 OA
BRANCH  59  60
ATOM     60  C   LIG    1       25.910 -32.371  13.878  0.00  0.00    +0.192 C 
BRANCH  60  61
ATOM     61  C   LIG    1       26.833 -32.196  15.106  0.00  0.00    +0.187 C 
BRANCH  61  62
ATOM     62  O   LIG    1       28.147 -31.706  14.755  0.00  0.00    -0.381 OA
ATOM     63  C   LIG    1       28.446 -30.389  15.244  0.00  0.00    +0.194 C 
ENDBRANCH  61  62
ENDBRANCH  60  61
ENDBRANCH  59  60
ENDBRANCH  58  59
ENDBRANCH  57  58
ENDBRANCH   8  57
TORSDOF 18
ENDMDL
MODEL 5
REMARK VINA RESULT:       4.5      2.298      7.332
REMARK  Name = *****
REMARK                            x       y       z     vdW  Elec       q    Type
REMARK                         _______ _______ _______ _____ _____    ______ ____
ROOT
ATOM      1  C   LIG    1       23.152 -32.950   7.203  0.00  0.00    +0.210 C 
ATOM      2  C   LIG    1       22.459 -32.612   8.618  0.00  0.00    +0.126 C 
ATOM      3  C   LIG    1       21.263 -31.699   8.319  0.00  0.00    +0.048 C 
ATOM      4  C   LIG    1       23.621 -32.101   9.612  0.00  0.00    +0.158 C 
ATOM      5  C   LIG    1       23.691 -31.364  10.988  0.00  0.00    +0.065 C 
ATOM      6  C   LIG    1       22.362 -31.294  11.708  0.00  0.00    +0.016 C 
ATOM      7  C   LIG    1       24.950 -31.761  11.814  0.00  0.00    +0.066 C 
ATOM      8  N   LIG    1       25.020 -32.575  12.827  0.00  0.00    -0.091 NA
ATOM      9  C   LIG    1       26.423 -31.330  11.353  0.00  0.00    +0.037 C 
ATOM     10  C   LIG    1       27.353 -31.042  12.526  0.00  0.00    +0.014 C 
ATOM     11  C   LIG    1       26.857 -30.484  10.144  0.00  0.00    +0.046 C 
ATOM     12  C   LIG    1       26.999 -28.936   9.991  0.00  0.00    +0.090 C 
ATOM     13  C   LIG    1       27.995 -28.329  10.951  0.00  0.00    +0.044 C 
ATOM     14  C   LIG    1       25.689 -28.050   9.766  0.00  0.00    +0.158 C 
ATOM     15  C   LIG    1       24.919 -28.702   8.353  0.00  0.00    +0.047 C 
ATOM     16  C   LIG    1       23.378 -28.758   8.206  0.00  0.00    +0.013 C 
ATOM     17  C   LIG    1       25.745 -28.802   6.853  0.00  0.00    +0.140 C 
ATOM     18  C   LIG    1       25.341 -30.161   6.071  0.00  0.00    +0.124 C 
ATOM     19  C   LIG    1       26.507 -30.907   5.373  0.00  0.00    +0.022 C 
ATOM     20  C   LIG    1       24.842 -31.321   6.849  0.00  0.00    +0.313 C 
ATOM     21  O   LIG    1       25.636 -32.048   7.647  0.00  0.00    -0.250 OA
ATOM     22  O   LIG    1       23.603 -31.710   6.589  0.00  0.00    -0.458 OA
ENDROOT
BRANCH   1  24
ATOM     23  C   LIG    1       22.903 -33.728   4.744  0.00  0.00    +0.007 C 
ATOM     24  C   LIG    1       22.294 -33.701   6.154  0.00  0.00    +0.044 C 
ENDBRANCH   1  24
BRANCH  12  25
ATOM     25  O   LIG    1       27.781 -28.842   8.781  0.00  0.00    -0.386 OA
ATOM     26  H   LIG    1       28.241 -27.986   8.836  0.00  0.00    +0.210 HD
ENDBRANCH  12  25
BRANCH   4  27
ATOM     27  O   LIG    1       24.524 -33.223   9.699  0.00  0.00    -0.388 OA
ATOM     28  H   LIG    1       25.414 -32.832   9.846  0.00  0.00    +0.210 HD
ENDBRANCH   4  27
BRANCH   2  29
ATOM     29  O   LIG    1       21.900 -33.824   9.154  0.00  0.00    -0.383 OA
ATOM     30  H   LIG    1       22.246 -33.894  10.065  0.00  0.00    +0.210 HD
ENDBRANCH   2  29
BRANCH  14  31
ATOM     31  O   LIG    1       24.881 -27.919  11.060  0.00  0.00    -0.342 OA
BRANCH  31  32
ATOM     32  C   LIG    1       25.440 -27.186  12.326  0.00  0.00    +0.281 C 
ATOM     33  C   LIG    1       24.390 -26.208  13.100  0.00  0.00    +0.187 C 
ATOM     34  C   LIG    1       23.812 -26.644  14.643  0.00  0.00    +0.092 C 
ATOM     35  C   LIG    1       25.052 -27.126  15.478  0.00  0.00    +0.053 C 
ATOM     36  C   LIG    1       26.331 -27.497  14.656  0.00  0.00    +0.120 C 
ATOM     37  C   LIG    1       27.148 -28.559  15.477  0.00  0.00    +0.038 C 
ATOM     38  O   LIG    1       25.978 -28.057  13.354  0.00  0.00    -0.346 OA
BRANCH  34  39
ATOM     39  N   LIG    1       22.470 -27.373  14.937  0.00  0.00    -0.303 NA
ATOM     40  C   LIG    1       21.221 -26.782  14.457  0.00  0.00    +0.105 C 
ATOM     41  C   LIG    1       22.391 -28.855  15.161  0.00  0.00    +0.105 C 
ENDBRANCH  34  39
BRANCH  33  42
ATOM     42  O   LIG    1       25.201 -24.983  13.363  0.00  0.00    -0.385 OA
ATOM     43  H   LIG    1       24.808 -24.488  14.105  0.00  0.00    +0.210 HD
ENDBRANCH  33  42
ENDBRANCH  31  32
ENDBRANCH  14  31
BRANCH  17  44
ATOM     44  O   LIG    1       25.763 -27.521   6.071  0.00  0.00    -0.347 OA
BRANCH  44  45
ATOM     45  C   LIG    1       24.501 -26.727   5.929  0.00  0.00    +0.254 C 
ATOM     46  O   LIG    1       24.274 -26.004   4.713  0.00  0.00    -0.346 OA
ATOM     47  C   LIG    1       25.141 -24.891   4.491  0.00  0.00    +0.150 C 
ATOM     48  C   LIG    1       24.653 -23.979   3.357  0.00  0.00    +0.040 C 
ATOM     49  C   LIG    1       25.608 -24.048   5.706  0.00  0.00    +0.175 C 
ATOM     50  C   LIG    1       24.611 -24.070   6.884  0.00  0.00    +0.099 C 
ATOM     51  C   LIG    1       23.570 -22.883   6.586  0.00  0.00    +0.044 C 
ATOM     52  C   LIG    1       24.136 -25.653   7.094  0.00  0.00    +0.098 C 
BRANCH  50  53
ATOM     53  O   LIG    1       25.333 -23.689   8.121  0.00  0.00    -0.374 OA
ATOM     54  C   LIG    1       25.695 -22.307   8.287  0.00  0.00    +0.195 C 
ENDBRANCH  50  53
BRANCH  49  55
ATOM     55  O   LIG    1       26.921 -24.451   6.143  0.00  0.00    -0.386 OA
ATOM     56  H   LIG    1       27.274 -25.021   5.427  0.00  0.00    +0.210 HD
ENDBRANCH  49  55
ENDBRANCH  44  45
ENDBRANCH  17  44
BRANCH   8  57
ATOM     57  O   LIG    1       23.903 -33.219  13.333  0.00  0.00    -0.365 OA
BRANCH  57  58
ATOM     58  C   LIG    1       23.784 -32.944  14.765  0.00  0.00    +0.426 C 
BRANCH  58  59
ATOM     59  O   LIG    1       22.598 -33.330  15.487  0.00  0.00    -0.340 OA
BRANCH  59  60
ATOM     60  C   LIG    1       21.346 -33.186  14.792  0.00  0.00    +0.192 C 
BRANCH  60  61
ATOM     61  C   LIG    1       20.382 -32.064  15.241  0.00  0.00    +0.187 C 
BRANCH  61  62
ATOM     62  O   LIG    1       19.814 -31.333  14.131  0.00  0.00    -0.381 OA
ATOM     63  C   LIG    1       18.939 -30.257  14.504  0.00  0.00    +0.194 C 
ENDBRANCH  61  62
ENDBRANCH  60  61
ENDBRANCH  59  60
ENDBRANCH  58  59
ENDBRANCH  57  58
ENDBRANCH   8  57
TORSDOF 18
ENDMDL
