MODEL 1
REMARK VINA RESULT:      -2.1      0.000      0.000
REMARK  Name = *****
REMARK                            x       y       z     vdW  Elec       q    Type
REMARK                         _______ _______ _______ _____ _____    ______ ____
ROOT
ATOM      1  N   LIG    1       25.827 -13.054   3.108  0.00  0.00    +0.249 N 
ATOM      2  C   LIG    1       26.618 -11.839   2.572  0.00  0.00    +0.193 C 
ATOM      3  C   LIG    1       25.564 -12.928   4.634  0.00  0.00    +0.102 C 
ATOM      4  C   LIG    1       24.585 -11.769   4.762  0.00  0.00    +0.201 C 
ATOM      5  C   LIG    1       23.786 -11.759   3.482  0.00  0.00    +0.201 C 
ATOM      6  O   LIG    1       23.188 -12.040   4.744  0.00  0.00    -0.357 OA
ATOM      7  C   LIG    1       24.952 -14.255   5.135  0.00  0.00    +0.102 C 
ATOM      8  C   LIG    1       23.689 -14.710   4.360  0.00  0.00    +0.187 C 
ATOM      9  C   LIG    1       23.602 -14.197   2.902  0.00  0.00    +0.102 C 
ATOM     10  C   LIG    1       24.346 -12.894   2.640  0.00  0.00    +0.102 C 
ENDROOT
BRANCH   1  11
ATOM     11  C   LIG    1       26.538 -14.330   2.627  0.00  0.00    +0.133 C 
BRANCH  11  12
ATOM     12  C   LIG    1       27.652 -14.782   3.582  0.00  0.00    +0.051 C 
BRANCH  12  14
ATOM     13  C   LIG    1       26.403 -16.980   3.252  0.00  0.00    +0.004 C 
ATOM     14  C   LIG    1       27.522 -16.255   3.986  0.00  0.00    +0.002 C 
ENDBRANCH  12  14
ENDBRANCH  11  12
ENDBRANCH   1  11
BRANCH   8  15
ATOM     15  O   LIG    1       23.641 -16.158   4.340  0.00  0.00    -0.461 OA
BRANCH  15  16
ATOM     16  C   LIG    1       22.419 -16.690   4.659  0.00  0.00    +0.317 C 
ATOM     17  O   LIG    1       21.624 -16.162   5.426  0.00  0.00    -0.250 OA
BRANCH  16  18
ATOM     18  C   LIG    1       22.162 -17.987   3.921  0.00  0.00    +0.153 C 
BRANCH  18  19
ATOM     19  C   LIG    1       23.017 -19.144   4.410  0.00  0.00    -0.032 A 
ATOM     20  C   LIG    1       24.148 -19.604   3.719  0.00  0.00    +0.004 A 
ATOM     21  C   LIG    1       24.903 -20.674   4.207  0.00  0.00    +0.000 A 
ATOM     22  C   LIG    1       24.551 -21.287   5.408  0.00  0.00    +0.000 A 
ATOM     23  C   LIG    1       23.432 -20.847   6.103  0.00  0.00    +0.000 A 
ATOM     24  C   LIG    1       22.661 -19.802   5.601  0.00  0.00    +0.004 A 
ENDBRANCH  18  19
BRANCH  18  25
ATOM     25  C   LIG    1       20.645 -18.248   4.032  0.00  0.00    +0.175 C 
BRANCH  25  26
ATOM     26  O   LIG    1       19.996 -18.292   2.764  0.00  0.00    -0.394 OA
ATOM     27  H   LIG    1       20.273 -19.128   2.340  0.00  0.00    +0.209 HD
ENDBRANCH  25  26
ENDBRANCH  18  25
ENDBRANCH  16  18
ENDBRANCH  15  16
ENDBRANCH   8  15
TORSDOF 9
ENDMDL
MODEL 2
REMARK VINA RESULT:      -2.0      2.809      4.728
REMARK  Name = *****
REMARK                            x       y       z     vdW  Elec       q    Type
REMARK                         _______ _______ _______ _____ _____    ______ ____
ROOT
ATOM      1  N   LIG    1       25.317 -13.920   4.254  0.00  0.00    +0.249 N 
ATOM      2  C   LIG    1       24.660 -12.521   4.282  0.00  0.00    +0.193 C 
ATOM      3  C   LIG    1       25.761 -14.307   2.816  0.00  0.00    +0.102 C 
ATOM      4  C   LIG    1       26.908 -13.358   2.499  0.00  0.00    +0.201 C 
ATOM      5  C   LIG    1       27.555 -13.033   3.823  0.00  0.00    +0.201 C 
ATOM      6  O   LIG    1       28.239 -13.757   2.805  0.00  0.00    -0.357 OA
ATOM      7  C   LIG    1       26.221 -15.782   2.828  0.00  0.00    +0.102 C 
ATOM      8  C   LIG    1       27.311 -16.103   3.883  0.00  0.00    +0.187 C 
ATOM      9  C   LIG    1       27.313 -15.172   5.119  0.00  0.00    +0.102 C 
ATOM     10  C   LIG    1       26.745 -13.781   4.870  0.00  0.00    +0.102 C 
ENDROOT
BRANCH   1  11
ATOM     11  C   LIG    1       24.377 -14.898   4.979  0.00  0.00    +0.133 C 
BRANCH  11  12
ATOM     12  C   LIG    1       23.117 -15.221   4.164  0.00  0.00    +0.051 C 
BRANCH  12  14
ATOM     13  C   LIG    1       22.366 -17.637   4.481  0.00  0.00    +0.004 C 
ATOM     14  C   LIG    1       22.174 -16.185   4.892  0.00  0.00    +0.002 C 
ENDBRANCH  12  14
ENDBRANCH  11  12
ENDBRANCH   1  11
BRANCH   8  15
ATOM     15  O   LIG    1       27.142 -17.468   4.338  0.00  0.00    -0.461 OA
BRANCH  15  16
ATOM     16  C   LIG    1       28.270 -18.031   4.878  0.00  0.00    +0.317 C 
ATOM     17  O   LIG    1       29.403 -17.607   4.686  0.00  0.00    -0.250 OA
BRANCH  16  18
ATOM     18  C   LIG    1       27.938 -19.213   5.763  0.00  0.00    +0.153 C 
BRANCH  18  19
ATOM     19  C   LIG    1       26.596 -19.850   5.448  0.00  0.00    -0.032 A 
ATOM     20  C   LIG    1       26.020 -19.827   4.169  0.00  0.00    +0.004 A 
ATOM     21  C   LIG    1       24.781 -20.426   3.927  0.00  0.00    +0.000 A 
ATOM     22  C   LIG    1       24.107 -21.079   4.958  0.00  0.00    +0.000 A 
ATOM     23  C   LIG    1       24.660 -21.107   6.231  0.00  0.00    +0.000 A 
ATOM     24  C   LIG    1       25.880 -20.482   6.480  0.00  0.00    +0.004 A 
ENDBRANCH  18  19
BRANCH  18  25
ATOM     25  C   LIG    1       29.131 -20.185   5.639  0.00  0.00    +0.175 C 
BRANCH  25  26
ATOM     26  O   LIG    1       29.210 -21.105   6.726  0.00  0.00    -0.394 OA
ATOM     27  H   LIG    1       28.408 -21.661   6.677  0.00  0.00    +0.209 HD
ENDBRANCH  25  26
ENDBRANCH  18  25
ENDBRANCH  16  18
ENDBRANCH  15  16
ENDBRANCH   8  15
TORSDOF 9
ENDMDL
MODEL 3
REMARK VINA RESULT:      -1.6      1.116      1.716
REMARK  Name = *****
REMARK                            x       y       z     vdW  Elec       q    Type
REMARK                         _______ _______ _______ _____ _____    ______ ____
ROOT
ATOM      1  N   LIG    1       26.611 -13.616   4.007  0.00  0.00    +0.249 N 
ATOM      2  C   LIG    1       27.650 -12.492   3.787  0.00  0.00    +0.193 C 
ATOM      3  C   LIG    1       25.250 -13.041   4.488  0.00  0.00    +0.102 C 
ATOM      4  C   LIG    1       24.711 -12.274   3.288  0.00  0.00    +0.201 C 
ATOM      5  C   LIG    1       25.267 -12.968   2.069  0.00  0.00    +0.201 C 
ATOM      6  O   LIG    1       23.872 -12.950   2.358  0.00  0.00    -0.357 OA
ATOM      7  C   LIG    1       24.332 -14.220   4.877  0.00  0.00    +0.102 C 
ATOM      8  C   LIG    1       24.156 -15.287   3.766  0.00  0.00    +0.187 C 
ATOM      9  C   LIG    1       25.332 -15.382   2.765  0.00  0.00    +0.102 C 
ATOM     10  C   LIG    1       26.135 -14.098   2.601  0.00  0.00    +0.102 C 
ENDROOT
BRANCH   1  11
ATOM     11  C   LIG    1       27.262 -14.694   4.890  0.00  0.00    +0.133 C 
BRANCH  11  12
ATOM     12  C   LIG    1       28.109 -15.688   4.082  0.00  0.00    +0.051 C 
BRANCH  12  14
ATOM     13  C   LIG    1       28.899 -17.898   5.079  0.00  0.00    +0.004 C 
ATOM     14  C   LIG    1       27.765 -17.148   4.396  0.00  0.00    +0.002 C 
ENDBRANCH  12  14
ENDBRANCH  11  12
ENDBRANCH   1  11
BRANCH   8  15
ATOM     15  O   LIG    1       23.971 -16.586   4.381  0.00  0.00    -0.461 OA
BRANCH  15  16
ATOM     16  C   LIG    1       22.671 -17.019   4.416  0.00  0.00    +0.317 C 
ATOM     17  O   LIG    1       21.730 -16.322   4.776  0.00  0.00    -0.250 OA
BRANCH  16  18
ATOM     18  C   LIG    1       22.541 -18.444   3.926  0.00  0.00    +0.153 C 
BRANCH  18  19
ATOM     19  C   LIG    1       23.404 -19.432   4.693  0.00  0.00    -0.032 A 
ATOM     20  C   LIG    1       22.971 -20.080   5.859  0.00  0.00    +0.004 A 
ATOM     21  C   LIG    1       23.801 -20.980   6.532  0.00  0.00    +0.000 A 
ATOM     22  C   LIG    1       25.073 -21.264   6.035  0.00  0.00    +0.000 A 
ATOM     23  C   LIG    1       25.519 -20.628   4.884  0.00  0.00    +0.000 A 
ATOM     24  C   LIG    1       24.704 -19.706   4.231  0.00  0.00    +0.004 A 
ENDBRANCH  18  19
BRANCH  18  25
ATOM     25  C   LIG    1       21.033 -18.774   3.970  0.00  0.00    +0.175 C 
BRANCH  25  26
ATOM     26  O   LIG    1       20.291 -18.109   2.951  0.00  0.00    -0.394 OA
ATOM     27  H   LIG    1       20.783 -18.243   2.118  0.00  0.00    +0.209 HD
ENDBRANCH  25  26
ENDBRANCH  18  25
ENDBRANCH  16  18
ENDBRANCH  15  16
ENDBRANCH   8  15
TORSDOF 9
ENDMDL
MODEL 4
REMARK VINA RESULT:      -1.5      2.521      7.160
REMARK  Name = *****
REMARK                            x       y       z     vdW  Elec       q    Type
REMARK                         _______ _______ _______ _____ _____    ______ ____
ROOT
ATOM      1  N   LIG    1       24.157 -20.588   6.000  0.00  0.00    +0.249 N 
ATOM      2  C   LIG    1       23.613 -21.571   7.061  0.00  0.00    +0.193 C 
ATOM      3  C   LIG    1       24.306 -21.277   4.614  0.00  0.00    +0.102 C 
ATOM      4  C   LIG    1       22.878 -21.548   4.164  0.00  0.00    +0.201 C 
ATOM      5  C   LIG    1       22.033 -20.468   4.793  0.00  0.00    +0.201 C 
ATOM      6  O   LIG    1       22.203 -20.568   3.383  0.00  0.00    -0.357 OA
ATOM      7  C   LIG    1       25.036 -20.304   3.661  0.00  0.00    +0.102 C 
ATOM      8  C   LIG    1       24.378 -18.905   3.551  0.00  0.00    +0.187 C 
ATOM      9  C   LIG    1       23.559 -18.471   4.790  0.00  0.00    +0.102 C 
ATOM     10  C   LIG    1       22.993 -19.622   5.613  0.00  0.00    +0.102 C 
ENDROOT
BRANCH   1  11
ATOM     11  C   LIG    1       25.411 -19.913   6.580  0.00  0.00    +0.133 C 
BRANCH  11  12
ATOM     12  C   LIG    1       26.477 -20.926   7.024  0.00  0.00    +0.051 C 
BRANCH  12  14
ATOM     13  C   LIG    1       28.116 -19.509   5.681  0.00  0.00    +0.004 C 
ATOM     14  C   LIG    1       27.901 -20.370   6.917  0.00  0.00    +0.002 C 
ENDBRANCH  12  14
ENDBRANCH  11  12
ENDBRANCH   1  11
BRANCH   8  15
ATOM     15  O   LIG    1       25.408 -17.914   3.313  0.00  0.00    -0.461 OA
BRANCH  15  16
ATOM     16  C   LIG    1       25.015 -16.620   3.539  0.00  0.00    +0.317 C 
ATOM     17  O   LIG    1       23.979 -16.312   4.114  0.00  0.00    -0.250 OA
BRANCH  16  18
ATOM     18  C   LIG    1       26.033 -15.627   3.020  0.00  0.00    +0.153 C 
BRANCH  18  19
ATOM     19  C   LIG    1       25.497 -14.210   2.905  0.00  0.00    -0.032 A 
ATOM     20  C   LIG    1       26.146 -13.204   2.174  0.00  0.00    +0.004 A 
ATOM     21  C   LIG    1       25.615 -11.914   2.098  0.00  0.00    +0.000 A 
ATOM     22  C   LIG    1       24.412 -11.614   2.735  0.00  0.00    +0.000 A 
ATOM     23  C   LIG    1       23.758 -12.597   3.467  0.00  0.00    +0.000 A 
ATOM     24  C   LIG    1       24.304 -13.875   3.570  0.00  0.00    +0.004 A 
ENDBRANCH  18  19
BRANCH  18  25
ATOM     25  C   LIG    1       27.260 -15.751   3.949  0.00  0.00    +0.175 C 
BRANCH  25  26
ATOM     26  O   LIG    1       27.938 -16.998   3.807  0.00  0.00    -0.394 OA
ATOM     27  H   LIG    1       27.889 -17.233   2.860  0.00  0.00    +0.209 HD
ENDBRANCH  25  26
ENDBRANCH  18  25
ENDBRANCH  16  18
ENDBRANCH  15  16
ENDBRANCH   8  15
TORSDOF 9
ENDMDL
MODEL 5
REMARK VINA RESULT:      -1.4      2.675      7.068
REMARK  Name = *****
REMARK                            x       y       z     vdW  Elec       q    Type
REMARK                         _______ _______ _______ _____ _____    ______ ____
ROOT
ATOM      1  N   LIG    1       24.570 -20.428   5.885  0.00  0.00    +0.249 N 
ATOM      2  C   LIG    1       24.502 -21.572   6.924  0.00  0.00    +0.193 C 
ATOM      3  C   LIG    1       24.578 -20.983   4.434  0.00  0.00    +0.102 C 
ATOM      4  C   LIG    1       23.187 -21.571   4.239  0.00  0.00    +0.201 C 
ATOM      5  C   LIG    1       22.270 -20.768   5.127  0.00  0.00    +0.201 C 
ATOM      6  O   LIG    1       22.157 -20.746   3.708  0.00  0.00    -0.357 OA
ATOM      7  C   LIG    1       24.848 -19.811   3.464  0.00  0.00    +0.102 C 
ATOM      8  C   LIG    1       23.879 -18.612   3.627  0.00  0.00    +0.187 C 
ATOM      9  C   LIG    1       23.263 -18.461   5.038  0.00  0.00    +0.102 C 
ATOM     10  C   LIG    1       23.162 -19.757   5.831  0.00  0.00    +0.102 C 
ENDROOT
BRANCH   1  11
ATOM     11  C   LIG    1       25.731 -19.500   6.282  0.00  0.00    +0.133 C 
BRANCH  11  12
ATOM     12  C   LIG    1       26.927 -20.264   6.867  0.00  0.00    +0.051 C 
BRANCH  12  14
ATOM     13  C   LIG    1       29.304 -19.356   7.021  0.00  0.00    +0.004 C 
ATOM     14  C   LIG    1       28.236 -19.968   6.127  0.00  0.00    +0.002 C 
ENDBRANCH  12  14
ENDBRANCH  11  12
ENDBRANCH   1  11
BRANCH   8  15
ATOM     15  O   LIG    1       24.582 -17.387   3.301  0.00  0.00    -0.461 OA
BRANCH  15  16
ATOM     16  C   LIG    1       25.944 -17.460   3.435  0.00  0.00    +0.317 C 
ATOM     17  O   LIG    1       26.548 -18.489   3.711  0.00  0.00    -0.250 OA
BRANCH  16  18
ATOM     18  C   LIG    1       26.606 -16.126   3.167  0.00  0.00    +0.153 C 
BRANCH  18  19
ATOM     19  C   LIG    1       25.645 -14.950   3.215  0.00  0.00    -0.032 A 
ATOM     20  C   LIG    1       24.692 -14.783   4.231  0.00  0.00    +0.004 A 
ATOM     21  C   LIG    1       23.828 -13.685   4.233  0.00  0.00    +0.000 A 
ATOM     22  C   LIG    1       23.918 -12.723   3.228  0.00  0.00    +0.000 A 
ATOM     23  C   LIG    1       24.853 -12.875   2.212  0.00  0.00    +0.000 A 
ATOM     24  C   LIG    1       25.693 -13.986   2.193  0.00  0.00    +0.004 A 
ENDBRANCH  18  19
BRANCH  18  25
ATOM     25  C   LIG    1       27.769 -16.018   4.176  0.00  0.00    +0.175 C 
BRANCH  25  26
ATOM     26  O   LIG    1       28.358 -14.719   4.206  0.00  0.00    -0.394 OA
ATOM     27  H   LIG    1       28.514 -14.465   3.276  0.00  0.00    +0.209 HD
ENDBRANCH  25  26
ENDBRANCH  18  25
ENDBRANCH  16  18
ENDBRANCH  15  16
ENDBRANCH   8  15
TORSDOF 9
ENDMDL
MODEL 6
REMARK VINA RESULT:      -1.2      2.373      6.484
REMARK  Name = *****
REMARK                            x       y       z     vdW  Elec       q    Type
REMARK                         _______ _______ _______ _____ _____    ______ ____
ROOT
ATOM      1  N   LIG    1       25.285 -20.101   5.047  0.00  0.00    +0.249 N 
ATOM      2  C   LIG    1       25.447 -21.572   5.495  0.00  0.00    +0.193 C 
ATOM      3  C   LIG    1       25.367 -19.969   3.500  0.00  0.00    +0.102 C 
ATOM      4  C   LIG    1       24.104 -20.648   2.989  0.00  0.00    +0.201 C 
ATOM      5  C   LIG    1       23.071 -20.475   4.076  0.00  0.00    +0.201 C 
ATOM      6  O   LIG    1       22.930 -19.866   2.796  0.00  0.00    -0.357 OA
ATOM      7  C   LIG    1       25.400 -18.467   3.139  0.00  0.00    +0.102 C 
ATOM      8  C   LIG    1       24.231 -17.641   3.736  0.00  0.00    +0.187 C 
ATOM      9  C   LIG    1       23.624 -18.219   5.037  0.00  0.00    +0.102 C 
ATOM     10  C   LIG    1       23.777 -19.726   5.196  0.00  0.00    +0.102 C 
ENDROOT
BRANCH   1  11
ATOM     11  C   LIG    1       26.263 -19.247   5.871  0.00  0.00    +0.133 C 
BRANCH  11  12
ATOM     12  C   LIG    1       27.354 -20.086   6.552  0.00  0.00    +0.051 C 
BRANCH  12  14
ATOM     13  C   LIG    1       29.093 -18.538   5.514  0.00  0.00    +0.004 C 
ATOM     14  C   LIG    1       28.711 -19.972   5.850  0.00  0.00    +0.002 C 
ENDBRANCH  12  14
ENDBRANCH  11  12
ENDBRANCH   1  11
BRANCH   8  15
ATOM     15  O   LIG    1       24.692 -16.294   4.004  0.00  0.00    -0.461 OA
BRANCH  15  16
ATOM     16  C   LIG    1       23.693 -15.396   4.280  0.00  0.00    +0.317 C 
ATOM     17  O   LIG    1       22.576 -15.716   4.665  0.00  0.00    -0.250 OA
BRANCH  16  18
ATOM     18  C   LIG    1       24.153 -13.968   4.081  0.00  0.00    +0.153 C 
BRANCH  18  19
ATOM     19  C   LIG    1       25.663 -13.821   4.003  0.00  0.00    -0.032 A 
ATOM     20  C   LIG    1       26.400 -14.106   2.844  0.00  0.00    +0.004 A 
ATOM     21  C   LIG    1       27.789 -13.957   2.820  0.00  0.00    +0.000 A 
ATOM     22  C   LIG    1       28.463 -13.498   3.951  0.00  0.00    +0.000 A 
ATOM     23  C   LIG    1       27.749 -13.215   5.109  0.00  0.00    +0.000 A 
ATOM     24  C   LIG    1       26.368 -13.394   5.143  0.00  0.00    +0.004 A 
ENDBRANCH  18  19
BRANCH  18  25
ATOM     25  C   LIG    1       23.415 -13.453   2.827  0.00  0.00    +0.175 C 
BRANCH  25  26
ATOM     26  O   LIG    1       23.766 -12.113   2.488  0.00  0.00    -0.394 OA
ATOM     27  H   LIG    1       23.204 -11.533   3.037  0.00  0.00    +0.209 HD
ENDBRANCH  25  26
ENDBRANCH  18  25
ENDBRANCH  16  18
ENDBRANCH  15  16
ENDBRANCH   8  15
TORSDOF 9
ENDMDL
MODEL 7
REMARK VINA RESULT:      -1.1      2.087      3.528
REMARK  Name = *****
REMARK                            x       y       z     vdW  Elec       q    Type
REMARK                         _______ _______ _______ _____ _____    ______ ____
ROOT
ATOM      1  N   LIG    1       25.653 -13.205   4.474  0.00  0.00    +0.249 N 
ATOM      2  C   LIG    1       25.369 -11.735   4.858  0.00  0.00    +0.193 C 
ATOM      3  C   LIG    1       24.349 -14.050   4.469  0.00  0.00    +0.102 C 
ATOM      4  C   LIG    1       23.547 -13.513   3.291  0.00  0.00    +0.201 C 
ATOM      5  C   LIG    1       24.562 -13.012   2.294  0.00  0.00    +0.201 C 
ATOM      6  O   LIG    1       23.710 -14.118   2.013  0.00  0.00    -0.357 OA
ATOM      7  C   LIG    1       24.729 -15.535   4.277  0.00  0.00    +0.102 C 
ATOM      8  C   LIG    1       25.611 -15.813   3.032  0.00  0.00    +0.187 C 
ATOM      9  C   LIG    1       26.477 -14.617   2.569  0.00  0.00    +0.102 C 
ATOM     10  C   LIG    1       25.920 -13.247   2.937  0.00  0.00    +0.102 C 
ENDROOT
BRANCH   1  11
ATOM     11  C   LIG    1       26.806 -13.710   5.359  0.00  0.00    +0.133 C 
BRANCH  11  12
ATOM     12  C   LIG    1       27.712 -12.574   5.856  0.00  0.00    +0.051 C 
BRANCH  12  14
ATOM     13  C   LIG    1       29.087 -13.265   3.824  0.00  0.00    +0.004 C 
ATOM     14  C   LIG    1       28.763 -12.162   4.820  0.00  0.00    +0.002 C 
ENDBRANCH  12  14
ENDBRANCH  11  12
ENDBRANCH   1  11
BRANCH   8  15
ATOM     15  O   LIG    1       26.488 -16.932   3.313  0.00  0.00    -0.461 OA
BRANCH  15  16
ATOM     16  C   LIG    1       25.885 -18.161   3.231  0.00  0.00    +0.317 C 
ATOM     17  O   LIG    1       25.529 -18.677   2.179  0.00  0.00    -0.250 OA
BRANCH  16  18
ATOM     18  C   LIG    1       25.747 -18.808   4.592  0.00  0.00    +0.153 C 
BRANCH  18  19
ATOM     19  C   LIG    1       24.447 -19.572   4.773  0.00  0.00    -0.032 A 
ATOM     20  C   LIG    1       23.206 -19.080   4.341  0.00  0.00    +0.004 A 
ATOM     21  C   LIG    1       22.034 -19.818   4.531  0.00  0.00    +0.000 A 
ATOM     22  C   LIG    1       22.088 -21.072   5.138  0.00  0.00    +0.000 A 
ATOM     23  C   LIG    1       23.308 -21.572   5.576  0.00  0.00    +0.000 A 
ATOM     24  C   LIG    1       24.472 -20.822   5.415  0.00  0.00    +0.004 A 
ENDBRANCH  18  19
BRANCH  18  25
ATOM     25  C   LIG    1       27.008 -19.679   4.778  0.00  0.00    +0.175 C 
BRANCH  25  26
ATOM     26  O   LIG    1       28.209 -18.912   4.830  0.00  0.00    -0.394 OA
ATOM     27  H   LIG    1       28.703 -19.116   4.013  0.00  0.00    +0.209 HD
ENDBRANCH  25  26
ENDBRANCH  18  25
ENDBRANCH  16  18
ENDBRANCH  15  16
ENDBRANCH   8  15
TORSDOF 9
ENDMDL
MODEL 8
REMARK VINA RESULT:      -0.8      2.658      7.210
REMARK  Name = *****
REMARK                            x       y       z     vdW  Elec       q    Type
REMARK                         _______ _______ _______ _____ _____    ______ ____
ROOT
ATOM      1  N   LIG    1       22.966 -19.764   4.201  0.00  0.00    +0.249 N 
ATOM      2  C   LIG    1       21.856 -20.783   4.548  0.00  0.00    +0.193 C 
ATOM      3  C   LIG    1       23.999 -19.639   5.356  0.00  0.00    +0.102 C 
ATOM      4  C   LIG    1       24.724 -20.978   5.370  0.00  0.00    +0.201 C 
ATOM      5  C   LIG    1       24.686 -21.485   3.950  0.00  0.00    +0.201 C 
ATOM      6  O   LIG    1       25.906 -21.131   4.594  0.00  0.00    -0.357 OA
ATOM      7  C   LIG    1       24.956 -18.471   5.030  0.00  0.00    +0.102 C 
ATOM      8  C   LIG    1       25.639 -18.572   3.643  0.00  0.00    +0.187 C 
ATOM      9  C   LIG    1       24.849 -19.380   2.586  0.00  0.00    +0.102 C 
ATOM     10  C   LIG    1       23.915 -20.438   3.161  0.00  0.00    +0.102 C 
ENDROOT
BRANCH   1  11
ATOM     11  C   LIG    1       22.286 -18.467   3.732  0.00  0.00    +0.133 C 
BRANCH  11  12
ATOM     12  C   LIG    1       21.746 -17.627   4.899  0.00  0.00    +0.051 C 
BRANCH  12  14
ATOM     13  C   LIG    1       21.915 -15.404   6.135  0.00  0.00    +0.004 C 
ATOM     14  C   LIG    1       22.266 -16.186   4.878  0.00  0.00    +0.002 C 
ENDBRANCH  12  14
ENDBRANCH  11  12
ENDBRANCH   1  11
BRANCH   8  15
ATOM     15  O   LIG    1       25.862 -17.237   3.125  0.00  0.00    -0.461 OA
BRANCH  15  16
ATOM     16  C   LIG    1       26.969 -16.607   3.634  0.00  0.00    +0.317 C 
ATOM     17  O   LIG    1       27.744 -17.126   4.427  0.00  0.00    -0.250 OA
BRANCH  16  18
ATOM     18  C   LIG    1       27.130 -15.213   3.069  0.00  0.00    +0.153 C 
BRANCH  18  19
ATOM     19  C   LIG    1       25.901 -14.338   3.249  0.00  0.00    -0.032 A 
ATOM     20  C   LIG    1       25.298 -14.114   4.496  0.00  0.00    +0.004 A 
ATOM     21  C   LIG    1       24.168 -13.302   4.614  0.00  0.00    +0.000 A 
ATOM     22  C   LIG    1       23.632 -12.682   3.485  0.00  0.00    +0.000 A 
ATOM     23  C   LIG    1       24.213 -12.897   2.242  0.00  0.00    +0.000 A 
ATOM     24  C   LIG    1       25.321 -13.732   2.120  0.00  0.00    +0.004 A 
ENDBRANCH  18  19
BRANCH  18  25
ATOM     25  C   LIG    1       28.404 -14.633   3.720  0.00  0.00    +0.175 C 
BRANCH  25  26
ATOM     26  O   LIG    1       28.617 -13.261   3.396  0.00  0.00    -0.394 OA
ATOM     27  H   LIG    1       29.385 -12.969   3.924  0.00  0.00    +0.209 HD
ENDBRANCH  25  26
ENDBRANCH  18  25
ENDBRANCH  16  18
ENDBRANCH  15  16
ENDBRANCH   8  15
TORSDOF 9
ENDMDL
MODEL 9
REMARK VINA RESULT:      -0.8      2.158      3.883
REMARK  Name = *****
REMARK                            x       y       z     vdW  Elec       q    Type
REMARK                         _______ _______ _______ _____ _____    ______ ____
ROOT
ATOM      1  N   LIG    1       25.275 -13.092   3.939  0.00  0.00    +0.249 N 
ATOM      2  C   LIG    1       24.882 -11.671   4.403  0.00  0.00    +0.193 C 
ATOM      3  C   LIG    1       26.271 -13.042   2.747  0.00  0.00    +0.102 C 
ATOM      4  C   LIG    1       27.556 -12.485   3.343  0.00  0.00    +0.201 C 
ATOM      5  C   LIG    1       27.560 -12.910   4.791  0.00  0.00    +0.201 C 
ATOM      6  O   LIG    1       28.526 -13.389   3.860  0.00  0.00    -0.357 OA
ATOM      7  C   LIG    1       26.462 -14.478   2.210  0.00  0.00    +0.102 C 
ATOM      8  C   LIG    1       26.886 -15.511   3.285  0.00  0.00    +0.187 C 
ATOM      9  C   LIG    1       26.450 -15.164   4.728  0.00  0.00    +0.102 C 
ATOM     10  C   LIG    1       26.263 -13.677   4.996  0.00  0.00    +0.102 C 
ENDROOT
BRANCH   1  11
ATOM     11  C   LIG    1       23.979 -13.894   3.730  0.00  0.00    +0.133 C 
BRANCH  11  12
ATOM     12  C   LIG    1       23.034 -13.818   4.938  0.00  0.00    +0.051 C 
BRANCH  12  14
ATOM     13  C   LIG    1       21.714 -15.142   6.671  0.00  0.00    +0.004 C 
ATOM     14  C   LIG    1       22.696 -15.199   5.510  0.00  0.00    +0.002 C 
ENDBRANCH  12  14
ENDBRANCH  11  12
ENDBRANCH   1  11
BRANCH   8  15
ATOM     15  O   LIG    1       26.337 -16.807   2.939  0.00  0.00    -0.461 OA
BRANCH  15  16
ATOM     16  C   LIG    1       26.849 -17.853   3.664  0.00  0.00    +0.317 C 
ATOM     17  O   LIG    1       27.829 -17.762   4.393  0.00  0.00    -0.250 OA
BRANCH  16  18
ATOM     18  C   LIG    1       26.036 -19.116   3.477  0.00  0.00    +0.153 C 
BRANCH  18  19
ATOM     19  C   LIG    1       25.962 -19.981   4.723  0.00  0.00    -0.032 A 
ATOM     20  C   LIG    1       24.838 -20.755   5.050  0.00  0.00    +0.004 A 
ATOM     21  C   LIG    1       24.814 -21.536   6.208  0.00  0.00    +0.000 A 
ATOM     22  C   LIG    1       25.926 -21.572   7.049  0.00  0.00    +0.000 A 
ATOM     23  C   LIG    1       27.045 -20.808   6.743  0.00  0.00    +0.000 A 
ATOM     24  C   LIG    1       27.056 -20.005   5.605  0.00  0.00    +0.004 A 
ENDBRANCH  18  19
BRANCH  18  25
ATOM     25  C   LIG    1       24.656 -18.660   2.955  0.00  0.00    +0.175 C 
BRANCH  25  26
ATOM     26  O   LIG    1       23.937 -17.875   3.903  0.00  0.00    -0.394 OA
ATOM     27  H   LIG    1       24.324 -18.074   4.778  0.00  0.00    +0.209 HD
ENDBRANCH  25  26
ENDBRANCH  18  25
ENDBRANCH  16  18
ENDBRANCH  15  16
ENDBRANCH   8  15
TORSDOF 9
ENDMDL
