MODEL 1
REMARK VINA RESULT:      -0.9      0.000      0.000
REMARK  Name = *****
REMARK                            x       y       z     vdW  Elec       q    Type
REMARK                         _______ _______ _______ _____ _____    ______ ____
ROOT
ATOM      1  N   LIG    1       25.061 -19.047   4.067  0.00  0.00    -0.346 NA
ATOM      2  C   LIG    1       24.713 -17.678   3.992  0.00  0.00    +0.053 C 
ATOM      3  C   LIG    1       23.368 -17.294   4.157  0.00  0.00    +0.046 C 
ATOM      4  C   LIG    1       22.974 -15.954   4.092  0.00  0.00    +0.014 C 
ATOM      5  C   LIG    1       23.925 -14.958   3.873  0.00  0.00    +0.009 C 
ATOM      6  C   LIG    1       25.281 -15.275   3.700  0.00  0.00    -0.016 C 
ATOM      7  C   LIG    1       22.333 -18.326   4.409  0.00  0.00    +0.203 C 
ATOM      8  O   LIG    1       21.145 -18.036   4.537  0.00  0.00    -0.286 OA
ATOM      9  C   LIG    1       22.761 -19.734   4.512  0.00  0.00    +0.122 C 
ATOM     10  C   LIG    1       25.641 -16.644   3.757  0.00  0.00    +0.035 C 
ATOM     11  C   LIG    1       24.068 -19.980   4.342  0.00  0.00    +0.105 C 
ENDROOT
BRANCH   6  12
ATOM     12  C   LIG    1       26.303 -14.221   3.467  0.00  0.00    -0.015 C 
ATOM     13  C   LIG    1       27.615 -14.340   3.950  0.00  0.00    +0.028 C 
ATOM     14  C   LIG    1       28.531 -13.325   3.709  0.00  0.00    +0.111 C 
ATOM     15  N   LIG    1       28.241 -12.196   3.034  0.00  0.00    -0.263 NA
ATOM     16  C   LIG    1       26.982 -12.083   2.572  0.00  0.00    +0.111 C 
ATOM     17  C   LIG    1       26.002 -13.050   2.753  0.00  0.00    +0.028 C 
ENDBRANCH   6  12
BRANCH   1  19
ATOM     18  C   LIG    1       27.046 -20.007   5.186  0.00  0.00    +0.027 C 
ATOM     19  C   LIG    1       26.459 -19.482   3.884  0.00  0.00    +0.118 C 
ENDBRANCH   1  19
BRANCH   9  20
ATOM     20  C   LIG    1       21.837 -20.853   4.778  0.00  0.00    +0.342 C 
ATOM     21  O   LIG    1       20.877 -21.117   4.062  0.00  0.00    -0.245 OA
BRANCH  20  22
ATOM     22  O   LIG    1       22.124 -21.572   5.885  0.00  0.00    -0.477 OA
ATOM     23  H   LIG    1       21.673 -21.245   6.701  0.00  0.00    +0.295 HD
ENDBRANCH  20  22
ENDBRANCH   9  20
TORSDOF 4
ENDMDL
MODEL 2
REMARK VINA RESULT:      -0.8      1.288      2.667
REMARK  Name = *****
REMARK                            x       y       z     vdW  Elec       q    Type
REMARK                         _______ _______ _______ _____ _____    ______ ____
ROOT
ATOM      1  N   LIG    1       22.642 -17.096   4.573  0.00  0.00    -0.346 NA
ATOM      2  C   LIG    1       23.988 -17.030   4.143  0.00  0.00    +0.053 C 
ATOM      3  C   LIG    1       24.691 -18.221   3.878  0.00  0.00    +0.046 C 
ATOM      4  C   LIG    1       26.022 -18.207   3.451  0.00  0.00    +0.014 C 
ATOM      5  C   LIG    1       26.682 -16.993   3.264  0.00  0.00    +0.009 C 
ATOM      6  C   LIG    1       26.037 -15.771   3.512  0.00  0.00    -0.016 C 
ATOM      7  C   LIG    1       24.014 -19.529   4.049  0.00  0.00    +0.203 C 
ATOM      8  O   LIG    1       24.598 -20.593   3.850  0.00  0.00    -0.286 OA
ATOM      9  C   LIG    1       22.598 -19.534   4.465  0.00  0.00    +0.122 C 
ATOM     10  C   LIG    1       24.693 -15.825   3.958  0.00  0.00    +0.035 C 
ATOM     11  C   LIG    1       22.031 -18.340   4.685  0.00  0.00    +0.105 C 
ENDROOT
BRANCH   6  12
ATOM     12  C   LIG    1       26.731 -14.472   3.314  0.00  0.00    -0.015 C 
ATOM     13  C   LIG    1       28.003 -14.223   3.851  0.00  0.00    +0.028 C 
ATOM     14  C   LIG    1       28.607 -12.990   3.641  0.00  0.00    +0.111 C 
ATOM     15  N   LIG    1       28.041 -11.984   2.948  0.00  0.00    -0.263 NA
ATOM     16  C   LIG    1       26.821 -12.224   2.435  0.00  0.00    +0.111 C 
ATOM     17  C   LIG    1       26.144 -13.428   2.582  0.00  0.00    +0.028 C 
ENDBRANCH   6  12
BRANCH   1  19
ATOM     18  C   LIG    1       22.006 -15.490   6.343  0.00  0.00    +0.027 C 
ATOM     19  C   LIG    1       21.883 -15.867   4.873  0.00  0.00    +0.118 C 
ENDBRANCH   1  19
BRANCH   9  20
ATOM     20  C   LIG    1       21.805 -20.764   4.653  0.00  0.00    +0.342 C 
ATOM     21  O   LIG    1       20.823 -21.041   3.974  0.00  0.00    -0.245 OA
BRANCH  20  22
ATOM     22  O   LIG    1       22.241 -21.571   5.645  0.00  0.00    -0.477 OA
ATOM     23  H   LIG    1       21.514 -22.002   6.157  0.00  0.00    +0.295 HD
ENDBRANCH  20  22
ENDBRANCH   9  20
TORSDOF 4
ENDMDL
MODEL 3
REMARK VINA RESULT:      -0.4      3.527      7.058
REMARK  Name = *****
REMARK                            x       y       z     vdW  Elec       q    Type
REMARK                         _______ _______ _______ _____ _____    ______ ____
ROOT
ATOM      1  N   LIG    1       26.787 -16.311   3.763  0.00  0.00    -0.346 NA
ATOM      2  C   LIG    1       25.386 -16.288   3.955  0.00  0.00    +0.053 C 
ATOM      3  C   LIG    1       24.721 -15.052   4.064  0.00  0.00    +0.046 C 
ATOM      4  C   LIG    1       23.337 -14.977   4.254  0.00  0.00    +0.014 C 
ATOM      5  C   LIG    1       22.580 -16.146   4.326  0.00  0.00    +0.009 C 
ATOM      6  C   LIG    1       23.183 -17.409   4.225  0.00  0.00    -0.016 C 
ATOM      7  C   LIG    1       25.493 -13.789   3.974  0.00  0.00    +0.203 C 
ATOM      8  O   LIG    1       24.955 -12.689   4.087  0.00  0.00    -0.286 OA
ATOM      9  C   LIG    1       26.948 -13.875   3.738  0.00  0.00    +0.122 C 
ATOM     10  C   LIG    1       24.588 -17.445   4.048  0.00  0.00    +0.035 C 
ATOM     11  C   LIG    1       27.471 -15.106   3.647  0.00  0.00    +0.105 C 
ENDROOT
BRANCH   6  12
ATOM     12  C   LIG    1       22.384 -18.660   4.299  0.00  0.00    -0.015 C 
ATOM     13  C   LIG    1       21.080 -18.737   3.789  0.00  0.00    +0.028 C 
ATOM     14  C   LIG    1       20.373 -19.929   3.887  0.00  0.00    +0.111 C 
ATOM     15  N   LIG    1       20.860 -21.045   4.460  0.00  0.00    -0.263 NA
ATOM     16  C   LIG    1       22.111 -20.969   4.950  0.00  0.00    +0.111 C 
ATOM     17  C   LIG    1       22.897 -19.827   4.887  0.00  0.00    +0.028 C 
ENDBRANCH   6  12
BRANCH   1  19
ATOM     18  C   LIG    1       28.503 -17.755   4.807  0.00  0.00    +0.027 C 
ATOM     19  C   LIG    1       27.515 -17.590   3.660  0.00  0.00    +0.118 C 
ENDBRANCH   1  19
BRANCH   9  20
ATOM     20  C   LIG    1       27.827 -12.697   3.610  0.00  0.00    +0.342 C 
ATOM     21  O   LIG    1       28.793 -12.498   4.339  0.00  0.00    -0.245 OA
BRANCH  20  22
ATOM     22  O   LIG    1       27.484 -11.841   2.624  0.00  0.00    -0.477 OA
ATOM     23  H   LIG    1       27.715 -12.162   1.719  0.00  0.00    +0.295 HD
ENDBRANCH  20  22
ENDBRANCH   9  20
TORSDOF 4
ENDMDL
MODEL 4
REMARK VINA RESULT:       0.2      3.776      7.575
REMARK  Name = *****
REMARK                            x       y       z     vdW  Elec       q    Type
REMARK                         _______ _______ _______ _____ _____    ______ ____
ROOT
ATOM      1  N   LIG    1       24.949 -14.068   4.183  0.00  0.00    -0.346 NA
ATOM      2  C   LIG    1       25.014 -15.473   4.040  0.00  0.00    +0.053 C 
ATOM      3  C   LIG    1       26.266 -16.096   3.876  0.00  0.00    +0.046 C 
ATOM      4  C   LIG    1       26.383 -17.482   3.730  0.00  0.00    +0.014 C 
ATOM      5  C   LIG    1       25.242 -18.284   3.759  0.00  0.00    +0.009 C 
ATOM      6  C   LIG    1       23.965 -17.724   3.919  0.00  0.00    -0.016 C 
ATOM      7  C   LIG    1       27.501 -15.275   3.858  0.00  0.00    +0.203 C 
ATOM      8  O   LIG    1       28.612 -15.777   3.695  0.00  0.00    -0.286 OA
ATOM      9  C   LIG    1       27.373 -13.817   4.049  0.00  0.00    +0.122 C 
ATOM     10  C   LIG    1       23.885 -16.316   4.049  0.00  0.00    +0.035 C 
ATOM     11  C   LIG    1       26.131 -13.336   4.199  0.00  0.00    +0.105 C 
ENDROOT
BRANCH   6  12
ATOM     12  C   LIG    1       22.744 -18.571   3.953  0.00  0.00    -0.015 C 
ATOM     13  C   LIG    1       21.510 -18.111   3.468  0.00  0.00    +0.028 C 
ATOM     14  C   LIG    1       20.398 -18.940   3.526  0.00  0.00    +0.111 C 
ATOM     15  N   LIG    1       20.415 -20.186   4.036  0.00  0.00    -0.263 NA
ATOM     16  C   LIG    1       21.599 -20.625   4.501  0.00  0.00    +0.111 C 
ATOM     17  C   LIG    1       22.766 -19.874   4.474  0.00  0.00    +0.028 C 
ENDBRANCH   6  12
BRANCH   1  19
ATOM     18  C   LIG    1       23.804 -11.875   4.205  0.00  0.00    +0.027 C 
ATOM     19  C   LIG    1       23.651 -13.383   4.342  0.00  0.00    +0.118 C 
ENDBRANCH   1  19
BRANCH   9  20
ATOM     20  C   LIG    1       28.521 -12.891   4.070  0.00  0.00    +0.342 C 
ATOM     21  O   LIG    1       28.674 -12.029   4.930  0.00  0.00    -0.245 OA
BRANCH  20  22
ATOM     22  O   LIG    1       29.401 -13.058   3.060  0.00  0.00    -0.477 OA
ATOM     23  H   LIG    1       30.277 -12.630   3.218  0.00  0.00    +0.295 HD
ENDBRANCH  20  22
ENDBRANCH   9  20
TORSDOF 4
ENDMDL
MODEL 5
REMARK VINA RESULT:       1.5      3.862      7.628
REMARK  Name = *****
REMARK                            x       y       z     vdW  Elec       q    Type
REMARK                         _______ _______ _______ _____ _____    ______ ____
ROOT
ATOM      1  N   LIG    1       25.245 -14.179   3.723  0.00  0.00    -0.346 NA
ATOM      2  C   LIG    1       25.612 -15.544   3.790  0.00  0.00    +0.053 C 
ATOM      3  C   LIG    1       26.973 -15.892   3.884  0.00  0.00    +0.046 C 
ATOM      4  C   LIG    1       27.386 -17.227   3.952  0.00  0.00    +0.014 C 
ATOM      5  C   LIG    1       26.439 -18.251   3.941  0.00  0.00    +0.009 C 
ATOM      6  C   LIG    1       25.067 -17.969   3.847  0.00  0.00    -0.016 C 
ATOM      7  C   LIG    1       28.006 -14.829   3.917  0.00  0.00    +0.203 C 
ATOM      8  O   LIG    1       29.206 -15.090   3.977  0.00  0.00    -0.286 OA
ATOM      9  C   LIG    1       27.561 -13.422   3.881  0.00  0.00    +0.122 C 
ATOM     10  C   LIG    1       24.688 -16.607   3.765  0.00  0.00    +0.035 C 
ATOM     11  C   LIG    1       26.239 -13.211   3.794  0.00  0.00    +0.105 C 
ENDROOT
BRANCH   6  12
ATOM     12  C   LIG    1       24.050 -19.053   3.836  0.00  0.00    -0.015 C 
ATOM     13  C   LIG    1       24.348 -20.344   3.373  0.00  0.00    +0.028 C 
ATOM     14  C   LIG    1       23.361 -21.320   3.379  0.00  0.00    +0.111 C 
ATOM     15  N   LIG    1       22.099 -21.111   3.801  0.00  0.00    -0.263 NA
ATOM     16  C   LIG    1       21.815 -19.872   4.244  0.00  0.00    +0.111 C 
ATOM     17  C   LIG    1       22.738 -18.836   4.287  0.00  0.00    +0.028 C 
ENDBRANCH   6  12
BRANCH   1  19
ATOM     18  C   LIG    1       23.695 -12.279   3.408  0.00  0.00    +0.027 C 
ATOM     19  C   LIG    1       23.829 -13.782   3.608  0.00  0.00    +0.118 C 
ENDBRANCH   1  19
BRANCH   9  20
ATOM     20  C   LIG    1       28.482 -12.271   3.926  0.00  0.00    +0.342 C 
ATOM     21  O   LIG    1       29.044 -11.899   4.951  0.00  0.00    -0.245 OA
BRANCH  20  22
ATOM     22  O   LIG    1       28.661 -11.644   2.743  0.00  0.00    -0.477 OA
ATOM     23  H   LIG    1       28.629 -12.249   1.962  0.00  0.00    +0.295 HD
ENDBRANCH  20  22
ENDBRANCH   9  20
TORSDOF 4
ENDMDL
MODEL 6
REMARK VINA RESULT:       1.7      3.037      4.405
REMARK  Name = *****
REMARK                            x       y       z     vdW  Elec       q    Type
REMARK                         _______ _______ _______ _____ _____    ______ ____
ROOT
ATOM      1  N   LIG    1       25.709 -18.657   4.318  0.00  0.00    -0.346 NA
ATOM      2  C   LIG    1       26.322 -17.385   4.237  0.00  0.00    +0.053 C 
ATOM      3  C   LIG    1       27.626 -17.210   4.738  0.00  0.00    +0.046 C 
ATOM      4  C   LIG    1       28.275 -15.972   4.681  0.00  0.00    +0.014 C 
ATOM      5  C   LIG    1       27.634 -14.876   4.105  0.00  0.00    +0.009 C 
ATOM      6  C   LIG    1       26.333 -14.985   3.589  0.00  0.00    -0.016 C 
ATOM      7  C   LIG    1       28.344 -18.359   5.341  0.00  0.00    +0.203 C 
ATOM      8  O   LIG    1       29.475 -18.245   5.810  0.00  0.00    -0.286 OA
ATOM      9  C   LIG    1       27.667 -19.671   5.365  0.00  0.00    +0.122 C 
ATOM     10  C   LIG    1       25.703 -16.250   3.677  0.00  0.00    +0.035 C 
ATOM     11  C   LIG    1       26.428 -19.718   4.855  0.00  0.00    +0.105 C 
ENDROOT
BRANCH   6  12
ATOM     12  C   LIG    1       25.643 -13.822   2.971  0.00  0.00    -0.015 C 
ATOM     13  C   LIG    1       26.353 -12.765   2.382  0.00  0.00    +0.028 C 
ATOM     14  C   LIG    1       25.661 -11.700   1.823  0.00  0.00    +0.111 C 
ATOM     15  N   LIG    1       24.318 -11.599   1.812  0.00  0.00    -0.263 NA
ATOM     16  C   LIG    1       23.638 -12.613   2.378  0.00  0.00    +0.111 C 
ATOM     17  C   LIG    1       24.242 -13.724   2.951  0.00  0.00    +0.028 C 
ENDBRANCH   6  12
BRANCH   1  19
ATOM     18  C   LIG    1       23.820 -20.249   4.195  0.00  0.00    +0.027 C 
ATOM     19  C   LIG    1       24.338 -18.869   3.815  0.00  0.00    +0.118 C 
ENDBRANCH   1  19
BRANCH   9  20
ATOM     20  C   LIG    1       28.275 -20.896   5.918  0.00  0.00    +0.342 C 
ATOM     21  O   LIG    1       27.779 -21.537   6.838  0.00  0.00    -0.245 OA
BRANCH  20  22
ATOM     22  O   LIG    1       29.437 -21.262   5.335  0.00  0.00    -0.477 OA
ATOM     23  H   LIG    1       29.326 -21.912   4.598  0.00  0.00    +0.295 HD
ENDBRANCH  20  22
ENDBRANCH   9  20
TORSDOF 4
ENDMDL
