MODEL 1
REMARK VINA RESULT:      -7.8      0.000      0.000
REMARK  Name = *****
REMARK                            x       y       z     vdW  Elec       q    Type
REMARK                         _______ _______ _______ _____ _____    ______ ____
ROOT
ATOM      1  C   LIG    1       25.373 -30.140   8.589  0.00  0.00    +0.165 C 
ATOM      2  C   LIG    1       25.431 -30.756  10.059  0.00  0.00    +0.012 C 
ATOM      3  C   LIG    1       23.949 -31.041  10.479  0.00  0.00    +0.007 C 
ATOM      4  C   LIG    1       23.222 -30.048  11.436  0.00  0.00    +0.037 C 
ATOM      5  C   LIG    1       24.102 -29.512  12.584  0.00  0.00    +0.153 C 
ATOM      6  C   LIG    1       25.389 -28.914  11.955  0.00  0.00    +0.154 C 
ATOM      7  F   LIG    1       24.507 -30.623  13.302  0.00  0.00    -0.238 F 
ATOM      8  C   LIG    1       23.303 -28.578  13.619  0.00  0.00    +0.047 C 
ATOM      9  C   LIG    1       21.909 -29.168  13.990  0.00  0.00    -0.020 C 
ATOM     10  C   LIG    1       21.112 -28.477  14.842  0.00  0.00    +0.054 C 
ATOM     11  C   LIG    1       20.892 -27.058  14.371  0.00  0.00    +0.179 C 
ATOM     12  C   LIG    1       21.924 -26.464  13.470  0.00  0.00    +0.047 C 
ATOM     13  O   LIG    1       19.952 -26.396  14.792  0.00  0.00    -0.288 OA
ATOM     14  C   LIG    1       21.153 -29.849  12.872  0.00  0.00    +0.194 C 
ATOM     15  F   LIG    1       20.627 -28.919  12.023  0.00  0.00    -0.241 F 
ATOM     16  C   LIG    1       24.133 -28.442  14.929  0.00  0.00    +0.023 C 
ATOM     17  C   LIG    1       23.036 -27.149  13.135  0.00  0.00    -0.009 C 
ATOM     18  C   LIG    1       22.004 -30.782  12.043  0.00  0.00    +0.048 C 
ATOM     19  C   LIG    1       23.208 -31.128   9.141  0.00  0.00    +0.039 C 
ATOM     20  C   LIG    1       26.171 -32.125   9.969  0.00  0.00    +0.015 C 
ATOM     21  C   LIG    1       26.180 -29.954  11.148  0.00  0.00    +0.044 C 
ATOM     22  C   LIG    1       23.880 -30.081   8.257  0.00  0.00    +0.162 C 
ATOM     23  O   LIG    1       23.748 -30.433   6.886  0.00  0.00    -0.343 OA
ATOM     24  C   LIG    1       24.934 -31.142   6.537  0.00  0.00    +0.166 C 
ATOM     25  C   LIG    1       24.617 -32.615   6.293  0.00  0.00    +0.073 C 
ATOM     26  C   LIG    1       25.510 -30.543   5.262  0.00  0.00    +0.073 C 
ATOM     27  O   LIG    1       25.889 -31.042   7.598  0.00  0.00    -0.332 OA
ENDROOT
BRANCH   1  28
ATOM     28  C   LIG    1       26.030 -28.758   8.431  0.00  0.00    +0.205 C 
ATOM     29  O   LIG    1       27.066 -28.492   9.056  0.00  0.00    -0.291 OA
BRANCH  28  30
ATOM     30  C   LIG    1       25.459 -27.697   7.454  0.00  0.00    +0.309 C 
BRANCH  30  31
ATOM     31  O   LIG    1       26.180 -26.582   6.938  0.00  0.00    -0.457 OA
BRANCH  31  33
ATOM     32  C   LIG    1       25.164 -25.476   5.102  0.00  0.00    +0.136 C 
ATOM     33  C   LIG    1       26.190 -26.458   5.582  0.00  0.00    +0.304 C 
ATOM     34  O   LIG    1       26.919 -27.084   4.808  0.00  0.00    -0.251 OA
ENDBRANCH  31  33
ENDBRANCH  30  31
ENDBRANCH  28  30
ENDBRANCH   1  28
BRANCH   6  35
ATOM     35  O   LIG    1       26.294 -28.411  12.940  0.00  0.00    -0.389 OA
ATOM     36  H   LIG    1       27.163 -28.829  12.787  0.00  0.00    +0.210 HD
ENDBRANCH   6  35
TORSDOF 5
ENDMDL
MODEL 2
REMARK VINA RESULT:      -7.8      2.339      3.412
REMARK  Name = *****
REMARK                            x       y       z     vdW  Elec       q    Type
REMARK                         _______ _______ _______ _____ _____    ______ ____
ROOT
ATOM      1  C   LIG    1       24.420 -31.312  10.600  0.00  0.00    +0.165 C 
ATOM      2  C   LIG    1       24.523 -31.246  12.190  0.00  0.00    +0.012 C 
ATOM      3  C   LIG    1       23.467 -30.187  12.659  0.00  0.00    +0.007 C 
ATOM      4  C   LIG    1       23.942 -28.752  13.041  0.00  0.00    +0.037 C 
ATOM      5  C   LIG    1       25.262 -28.711  13.840  0.00  0.00    +0.153 C 
ATOM      6  C   LIG    1       26.326 -29.508  13.037  0.00  0.00    +0.154 C 
ATOM      7  F   LIG    1       25.029 -29.437  14.994  0.00  0.00    -0.238 F 
ATOM      8  C   LIG    1       25.674 -27.233  14.317  0.00  0.00    +0.047 C 
ATOM      9  C   LIG    1       24.460 -26.436  14.882  0.00  0.00    -0.020 C 
ATOM     10  C   LIG    1       24.655 -25.164  15.307  0.00  0.00    +0.054 C 
ATOM     11  C   LIG    1       25.296 -24.311  14.236  0.00  0.00    +0.179 C 
ATOM     12  C   LIG    1       26.098 -25.011  13.188  0.00  0.00    +0.047 C 
ATOM     13  O   LIG    1       25.237 -23.089  14.287  0.00  0.00    -0.288 OA
ATOM     14  C   LIG    1       23.139 -26.645  14.179  0.00  0.00    +0.194 C 
ATOM     15  F   LIG    1       23.128 -25.980  12.987  0.00  0.00    -0.241 F 
ATOM     16  C   LIG    1       26.746 -27.341  15.441  0.00  0.00    +0.023 C 
ATOM     17  C   LIG    1       26.287 -26.345  13.229  0.00  0.00    -0.009 C 
ATOM     18  C   LIG    1       22.828 -28.094  13.886  0.00  0.00    +0.048 C 
ATOM     19  C   LIG    1       22.479 -30.125  11.490  0.00  0.00    +0.039 C 
ATOM     20  C   LIG    1       24.085 -32.633  12.751  0.00  0.00    +0.015 C 
ATOM     21  C   LIG    1       25.911 -30.969  12.812  0.00  0.00    +0.044 C 
ATOM     22  C   LIG    1       23.344 -30.285  10.242  0.00  0.00    +0.162 C 
ATOM     23  O   LIG    1       22.581 -30.839   9.179  0.00  0.00    -0.343 OA
ATOM     24  C   LIG    1       22.798 -32.247   9.220  0.00  0.00    +0.166 C 
ATOM     25  C   LIG    1       21.529 -32.966   9.665  0.00  0.00    +0.073 C 
ATOM     26  C   LIG    1       23.175 -32.728   7.825  0.00  0.00    +0.073 C 
ATOM     27  O   LIG    1       23.851 -32.548  10.141  0.00  0.00    -0.332 OA
ENDROOT
BRANCH   1  28
ATOM     28  C   LIG    1       25.730 -31.027   9.845  0.00  0.00    +0.205 C 
ATOM     29  O   LIG    1       26.740 -31.704  10.085  0.00  0.00    -0.291 OA
BRANCH  28  30
ATOM     30  C   LIG    1       25.807 -29.945   8.738  0.00  0.00    +0.309 C 
BRANCH  30  31
ATOM     31  O   LIG    1       25.543 -30.164   7.355  0.00  0.00    -0.457 OA
BRANCH  31  33
ATOM     32  C   LIG    1       25.218 -27.867   6.862  0.00  0.00    +0.136 C 
ATOM     33  C   LIG    1       24.703 -29.271   6.762  0.00  0.00    +0.304 C 
ATOM     34  O   LIG    1       23.627 -29.544   6.224  0.00  0.00    -0.251 OA
ENDBRANCH  31  33
ENDBRANCH  30  31
ENDBRANCH  28  30
ENDBRANCH   1  28
BRANCH   6  35
ATOM     35  O   LIG    1       27.588 -29.558  13.707  0.00  0.00    -0.389 OA
ATOM     36  H   LIG    1       28.234 -29.070  13.161  0.00  0.00    +0.210 HD
ENDBRANCH   6  35
TORSDOF 5
ENDMDL
MODEL 3
REMARK VINA RESULT:      -7.5      2.763      7.375
REMARK  Name = *****
REMARK                            x       y       z     vdW  Elec       q    Type
REMARK                         _______ _______ _______ _____ _____    ______ ____
ROOT
ATOM      1  C   LIG    1       25.365 -26.513  14.308  0.00  0.00    +0.165 C 
ATOM      2  C   LIG    1       25.977 -27.986  14.296  0.00  0.00    +0.012 C 
ATOM      3  C   LIG    1       26.818 -28.105  12.980  0.00  0.00    +0.007 C 
ATOM      4  C   LIG    1       26.216 -28.856  11.754  0.00  0.00    +0.037 C 
ATOM      5  C   LIG    1       25.437 -30.139  12.113  0.00  0.00    +0.153 C 
ATOM      6  C   LIG    1       24.371 -29.763  13.177  0.00  0.00    +0.154 C 
ATOM      7  F   LIG    1       26.344 -30.965  12.754  0.00  0.00    -0.238 F 
ATOM      8  C   LIG    1       24.920 -30.953  10.829  0.00  0.00    +0.047 C 
ATOM      9  C   LIG    1       26.008 -31.054   9.717  0.00  0.00    -0.020 C 
ATOM     10  C   LIG    1       25.706 -31.699   8.564  0.00  0.00    +0.054 C 
ATOM     11  C   LIG    1       24.455 -31.141   7.924  0.00  0.00    +0.179 C 
ATOM     12  C   LIG    1       23.477 -30.448   8.815  0.00  0.00    +0.047 C 
ATOM     13  O   LIG    1       24.215 -31.336   6.739  0.00  0.00    -0.288 OA
ATOM     14  C   LIG    1       26.874 -29.832   9.518  0.00  0.00    +0.194 C 
ATOM     15  F   LIG    1       26.175 -28.859   8.864  0.00  0.00    -0.241 F 
ATOM     16  C   LIG    1       24.538 -32.399  11.262  0.00  0.00    +0.023 C 
ATOM     17  C   LIG    1       23.678 -30.372  10.146  0.00  0.00    -0.009 C 
ATOM     18  C   LIG    1       27.380 -29.228  10.808  0.00  0.00    +0.048 C 
ATOM     19  C   LIG    1       27.120 -26.648  12.614  0.00  0.00    +0.039 C 
ATOM     20  C   LIG    1       26.961 -28.099  15.500  0.00  0.00    +0.015 C 
ATOM     21  C   LIG    1       25.000 -29.174  14.449  0.00  0.00    +0.044 C 
ATOM     22  C   LIG    1       25.860 -25.882  13.005  0.00  0.00    +0.162 C 
ATOM     23  O   LIG    1       26.175 -24.527  13.296  0.00  0.00    -0.343 OA
ATOM     24  C   LIG    1       26.369 -24.453  14.706  0.00  0.00    +0.166 C 
ATOM     25  C   LIG    1       27.840 -24.204  15.026  0.00  0.00    +0.073 C 
ATOM     26  C   LIG    1       25.542 -23.301  15.259  0.00  0.00    +0.073 C 
ATOM     27  O   LIG    1       25.962 -25.682  15.316  0.00  0.00    -0.332 OA
ENDROOT
BRANCH   1  28
ATOM     28  C   LIG    1       23.832 -26.440  14.412  0.00  0.00    +0.205 C 
ATOM     29  O   LIG    1       23.298 -26.183  15.500  0.00  0.00    -0.291 OA
BRANCH  28  30
ATOM     30  C   LIG    1       22.927 -26.623  13.166  0.00  0.00    +0.309 C 
BRANCH  30  31
ATOM     31  O   LIG    1       21.538 -26.312  13.106  0.00  0.00    -0.457 OA
BRANCH  31  33
ATOM     32  C   LIG    1       21.034 -28.563  12.552  0.00  0.00    +0.136 C 
ATOM     33  C   LIG    1       20.687 -27.346  13.355  0.00  0.00    +0.304 C 
ATOM     34  O   LIG    1       19.720 -27.311  14.121  0.00  0.00    -0.251 OA
ENDBRANCH  31  33
ENDBRANCH  30  31
ENDBRANCH  28  30
ENDBRANCH   1  28
BRANCH   6  35
ATOM     35  O   LIG    1       23.607 -30.893  13.606  0.00  0.00    -0.389 OA
ATOM     36  H   LIG    1       23.624 -31.553  12.886  0.00  0.00    +0.210 HD
ENDBRANCH   6  35
TORSDOF 5
ENDMDL
MODEL 4
REMARK VINA RESULT:      -6.6      2.743      8.021
REMARK  Name = *****
REMARK                            x       y       z     vdW  Elec       q    Type
REMARK                         _______ _______ _______ _____ _____    ______ ____
ROOT
ATOM      1  C   LIG    1       21.166 -29.288  13.592  0.00  0.00    +0.165 C 
ATOM      2  C   LIG    1       22.521 -30.091  13.842  0.00  0.00    +0.012 C 
ATOM      3  C   LIG    1       23.639 -29.332  13.048  0.00  0.00    +0.007 C 
ATOM      4  C   LIG    1       24.115 -29.894  11.674  0.00  0.00    +0.037 C 
ATOM      5  C   LIG    1       24.253 -31.430  11.628  0.00  0.00    +0.153 C 
ATOM      6  C   LIG    1       22.904 -32.040  12.098  0.00  0.00    +0.154 C 
ATOM      7  F   LIG    1       25.181 -31.757  12.601  0.00  0.00    -0.238 F 
ATOM      8  C   LIG    1       24.849 -31.976  10.240  0.00  0.00    +0.047 C 
ATOM      9  C   LIG    1       26.056 -31.126   9.741  0.00  0.00    -0.020 C 
ATOM     10  C   LIG    1       26.650 -31.459   8.569  0.00  0.00    +0.054 C 
ATOM     11  C   LIG    1       25.650 -31.532   7.438  0.00  0.00    +0.179 C 
ATOM     12  C   LIG    1       24.224 -31.796   7.796  0.00  0.00    +0.047 C 
ATOM     13  O   LIG    1       26.016 -31.472   6.271  0.00  0.00    -0.288 OA
ATOM     14  C   LIG    1       25.961 -29.635   9.969  0.00  0.00    +0.194 C 
ATOM     15  F   LIG    1       25.090 -29.075   9.080  0.00  0.00    -0.241 F 
ATOM     16  C   LIG    1       25.340 -33.441  10.437  0.00  0.00    +0.023 C 
ATOM     17  C   LIG    1       23.855 -32.015   9.074  0.00  0.00    -0.009 C 
ATOM     18  C   LIG    1       25.488 -29.261  11.355  0.00  0.00    +0.048 C 
ATOM     19  C   LIG    1       23.062 -27.924  12.875  0.00  0.00    +0.039 C 
ATOM     20  C   LIG    1       22.861 -29.984  15.359  0.00  0.00    +0.015 C 
ATOM     21  C   LIG    1       22.533 -31.603  13.522  0.00  0.00    +0.044 C 
ATOM     22  C   LIG    1       21.567 -28.141  12.661  0.00  0.00    +0.162 C 
ATOM     23  O   LIG    1       20.835 -26.996  13.078  0.00  0.00    -0.343 OA
ATOM     24  C   LIG    1       20.436 -27.243  14.423  0.00  0.00    +0.166 C 
ATOM     25  C   LIG    1       21.194 -26.325  15.378  0.00  0.00    +0.073 C 
ATOM     26  C   LIG    1       18.944 -26.966  14.554  0.00  0.00    +0.073 C 
ATOM     27  O   LIG    1       20.712 -28.603  14.769  0.00  0.00    -0.332 OA
ENDROOT
BRANCH   1  28
ATOM     28  C   LIG    1       20.016 -30.113  12.990  0.00  0.00    +0.205 C 
ATOM     29  O   LIG    1       19.938 -30.259  11.761  0.00  0.00    -0.291 OA
BRANCH  28  30
ATOM     30  C   LIG    1       18.974 -30.827  13.889  0.00  0.00    +0.309 C 
BRANCH  30  31
ATOM     31  O   LIG    1       17.806 -30.219  14.434  0.00  0.00    -0.457 OA
BRANCH  31  33
ATOM     32  C   LIG    1       15.813 -29.008  14.000  0.00  0.00    +0.136 C 
ATOM     33  C   LIG    1       16.745 -30.107  13.588  0.00  0.00    +0.304 C 
ATOM     34  O   LIG    1       16.530 -30.825  12.607  0.00  0.00    -0.251 OA
ENDBRANCH  31  33
ENDBRANCH  30  31
ENDBRANCH  28  30
ENDBRANCH   1  28
BRANCH   6  35
ATOM     35  O   LIG    1       22.932 -33.469  12.121  0.00  0.00    -0.389 OA
ATOM     36  H   LIG    1       23.833 -33.753  11.872  0.00  0.00    +0.210 HD
ENDBRANCH   6  35
TORSDOF 5
ENDMDL
MODEL 5
REMARK VINA RESULT:      -6.6      2.473      3.496
REMARK  Name = *****
REMARK                            x       y       z     vdW  Elec       q    Type
REMARK                         _______ _______ _______ _____ _____    ______ ____
ROOT
ATOM      1  C   LIG    1       25.098 -31.358   6.671  0.00  0.00    +0.165 C 
ATOM      2  C   LIG    1       25.416 -31.464   8.231  0.00  0.00    +0.012 C 
ATOM      3  C   LIG    1       24.642 -32.722   8.756  0.00  0.00    +0.007 C 
ATOM      4  C   LIG    1       23.300 -32.526   9.525  0.00  0.00    +0.037 C 
ATOM      5  C   LIG    1       23.300 -31.338  10.510  0.00  0.00    +0.153 C 
ATOM      6  C   LIG    1       23.738 -30.072   9.725  0.00  0.00    +0.154 C 
ATOM      7  F   LIG    1       24.312 -31.597  11.417  0.00  0.00    -0.238 F 
ATOM      8  C   LIG    1       21.948 -31.222  11.370  0.00  0.00    +0.047 C 
ATOM      9  C   LIG    1       21.469 -32.606  11.905  0.00  0.00    -0.020 C 
ATOM     10  C   LIG    1       20.327 -32.666  12.633  0.00  0.00    +0.054 C 
ATOM     11  C   LIG    1       19.165 -32.036  11.900  0.00  0.00    +0.179 C 
ATOM     12  C   LIG    1       19.480 -31.012  10.860  0.00  0.00    +0.047 C 
ATOM     13  O   LIG    1       18.010 -32.291  12.218  0.00  0.00    -0.288 OA
ATOM     14  C   LIG    1       21.655 -33.781  10.973  0.00  0.00    +0.194 C 
ATOM     15  F   LIG    1       20.721 -33.747   9.978  0.00  0.00    -0.241 F 
ATOM     16  C   LIG    1       22.200 -30.294  12.595  0.00  0.00    +0.023 C 
ATOM     17  C   LIG    1       20.750 -30.625  10.624  0.00  0.00    -0.009 C 
ATOM     18  C   LIG    1       23.012 -33.825  10.312  0.00  0.00    +0.048 C 
ATOM     19  C   LIG    1       24.412 -33.555   7.491  0.00  0.00    +0.039 C 
ATOM     20  C   LIG    1       26.941 -31.748   8.384  0.00  0.00    +0.015 C 
ATOM     21  C   LIG    1       25.137 -30.224   9.110  0.00  0.00    +0.044 C 
ATOM     22  C   LIG    1       24.152 -32.528   6.393  0.00  0.00    +0.162 C 
ATOM     23  O   LIG    1       24.513 -33.058   5.124  0.00  0.00    -0.343 OA
ATOM     24  C   LIG    1       25.850 -32.631   4.876  0.00  0.00    +0.166 C 
ATOM     25  C   LIG    1       26.806 -33.819   4.940  0.00  0.00    +0.073 C 
ATOM     26  C   LIG    1       25.922 -32.014   3.486  0.00  0.00    +0.073 C 
ATOM     27  O   LIG    1       26.241 -31.667   5.859  0.00  0.00    -0.332 OA
ENDROOT
BRANCH   1  28
ATOM     28  C   LIG    1       24.479 -30.025   6.218  0.00  0.00    +0.205 C 
ATOM     29  O   LIG    1       23.275 -29.971   5.928  0.00  0.00    -0.291 OA
BRANCH  28  30
ATOM     30  C   LIG    1       25.313 -28.719   6.170  0.00  0.00    +0.309 C 
BRANCH  30  31
ATOM     31  O   LIG    1       24.776 -27.404   6.061  0.00  0.00    -0.457 OA
BRANCH  31  33
ATOM     32  C   LIG    1       25.625 -25.245   6.556  0.00  0.00    +0.136 C 
ATOM     33  C   LIG    1       25.646 -26.440   5.651  0.00  0.00    +0.304 C 
ATOM     34  O   LIG    1       26.358 -26.496   4.645  0.00  0.00    -0.251 OA
ENDBRANCH  31  33
ENDBRANCH  30  31
ENDBRANCH  28  30
ENDBRANCH   1  28
BRANCH   6  35
ATOM     35  O   LIG    1       23.800 -28.910  10.556  0.00  0.00    -0.389 OA
ATOM     36  H   LIG    1       24.664 -28.482  10.404  0.00  0.00    +0.210 HD
ENDBRANCH   6  35
TORSDOF 5
ENDMDL
MODEL 6
REMARK VINA RESULT:      -6.5      2.682      4.950
REMARK  Name = *****
REMARK                            x       y       z     vdW  Elec       q    Type
REMARK                         _______ _______ _______ _____ _____    ______ ____
ROOT
ATOM      1  C   LIG    1       21.674 -31.916  11.504  0.00  0.00    +0.165 C 
ATOM      2  C   LIG    1       22.313 -31.816  12.962  0.00  0.00    +0.012 C 
ATOM      3  C   LIG    1       22.043 -30.356  13.464  0.00  0.00    +0.007 C 
ATOM      4  C   LIG    1       23.192 -29.304  13.405  0.00  0.00    +0.037 C 
ATOM      5  C   LIG    1       24.579 -29.853  13.802  0.00  0.00    +0.153 C 
ATOM      6  C   LIG    1       24.859 -31.107  12.930  0.00  0.00    +0.154 C 
ATOM      7  F   LIG    1       24.447 -30.312  15.101  0.00  0.00    -0.238 F 
ATOM      8  C   LIG    1       25.725 -28.728  13.840  0.00  0.00    +0.047 C 
ATOM      9  C   LIG    1       25.241 -27.417  14.529  0.00  0.00    -0.020 C 
ATOM     10  C   LIG    1       26.098 -26.370  14.617  0.00  0.00    +0.054 C 
ATOM     11  C   LIG    1       26.655 -25.991  13.263  0.00  0.00    +0.179 C 
ATOM     12  C   LIG    1       26.678 -27.048  12.209  0.00  0.00    +0.047 C 
ATOM     13  O   LIG    1       27.154 -24.889  13.076  0.00  0.00    -0.288 OA
ATOM     14  C   LIG    1       23.812 -27.008  14.257  0.00  0.00    +0.194 C 
ATOM     15  F   LIG    1       23.701 -26.488  12.999  0.00  0.00    -0.241 F 
ATOM     16  C   LIG    1       26.946 -29.271  14.639  0.00  0.00    +0.023 C 
ATOM     17  C   LIG    1       26.268 -28.305  12.471  0.00  0.00    -0.009 C 
ATOM     18  C   LIG    1       22.823 -28.146  14.360  0.00  0.00    +0.048 C 
ATOM     19  C   LIG    1       20.858 -29.896  12.610  0.00  0.00    +0.039 C 
ATOM     20  C   LIG    1       21.525 -32.789  13.891  0.00  0.00    +0.015 C 
ATOM     21  C   LIG    1       23.800 -32.201  13.127  0.00  0.00    +0.044 C 
ATOM     22  C   LIG    1       21.103 -30.521  11.239  0.00  0.00    +0.162 C 
ATOM     23  O   LIG    1       19.872 -30.703  10.551  0.00  0.00    -0.343 OA
ATOM     24  C   LIG    1       19.455 -32.038  10.821  0.00  0.00    +0.166 C 
ATOM     25  C   LIG    1       18.224 -32.036  11.723  0.00  0.00    +0.073 C 
ATOM     26  C   LIG    1       19.102 -32.721   9.507  0.00  0.00    +0.073 C 
ATOM     27  O   LIG    1       20.508 -32.753  11.475  0.00  0.00    -0.332 OA
ENDROOT
BRANCH   1  28
ATOM     28  C   LIG    1       22.648 -32.336  10.390  0.00  0.00    +0.205 C 
ATOM     29  O   LIG    1       22.724 -33.526  10.052  0.00  0.00    -0.291 OA
BRANCH  28  30
ATOM     30  C   LIG    1       23.503 -31.292   9.626  0.00  0.00    +0.309 C 
BRANCH  30  31
ATOM     31  O   LIG    1       23.225 -30.799   8.318  0.00  0.00    -0.457 OA
BRANCH  31  33
ATOM     32  C   LIG    1       25.237 -29.631   8.780  0.00  0.00    +0.136 C 
ATOM     33  C   LIG    1       24.113 -29.893   7.824  0.00  0.00    +0.304 C 
ATOM     34  O   LIG    1       24.020 -29.315   6.737  0.00  0.00    -0.251 OA
ENDBRANCH  31  33
ENDBRANCH  30  31
ENDBRANCH  28  30
ENDBRANCH   1  28
BRANCH   6  35
ATOM     35  O   LIG    1       26.115 -31.716  13.239  0.00  0.00    -0.389 OA
ATOM     36  H   LIG    1       26.751 -31.454  12.546  0.00  0.00    +0.210 HD
ENDBRANCH   6  35
TORSDOF 5
ENDMDL
MODEL 7
REMARK VINA RESULT:      -6.5      2.214      2.846
REMARK  Name = *****
REMARK                            x       y       z     vdW  Elec       q    Type
REMARK                         _______ _______ _______ _____ _____    ______ ____
ROOT
ATOM      1  C   LIG    1       25.032 -31.509   9.299  0.00  0.00    +0.165 C 
ATOM      2  C   LIG    1       24.584 -32.091  10.715  0.00  0.00    +0.012 C 
ATOM      3  C   LIG    1       23.017 -32.059  10.731  0.00  0.00    +0.007 C 
ATOM      4  C   LIG    1       22.286 -30.917  11.502  0.00  0.00    +0.037 C 
ATOM      5  C   LIG    1       22.931 -30.548  12.854  0.00  0.00    +0.153 C 
ATOM      6  C   LIG    1       24.430 -30.239  12.595  0.00  0.00    +0.154 C 
ATOM      7  F   LIG    1       22.903 -31.703  13.615  0.00  0.00    -0.238 F 
ATOM      8  C   LIG    1       22.099 -29.448  13.679  0.00  0.00    +0.047 C 
ATOM      9  C   LIG    1       20.567 -29.733  13.662  0.00  0.00    -0.020 C 
ATOM     10  C   LIG    1       19.735 -28.875  14.303  0.00  0.00    +0.054 C 
ATOM     11  C   LIG    1       19.937 -27.451  13.837  0.00  0.00    +0.179 C 
ATOM     12  C   LIG    1       21.265 -27.101  13.250  0.00  0.00    +0.047 C 
ATOM     13  O   LIG    1       19.075 -26.602  14.024  0.00  0.00    -0.288 OA
ATOM     14  C   LIG    1       20.002 -30.268  12.366  0.00  0.00    +0.194 C 
ATOM     15  F   LIG    1       19.913 -29.268  11.441  0.00  0.00    -0.241 F 
ATOM     16  C   LIG    1       22.574 -29.457  15.162  0.00  0.00    +0.023 C 
ATOM     17  C   LIG    1       22.261 -28.006  13.189  0.00  0.00    -0.009 C 
ATOM     18  C   LIG    1       20.830 -31.373  11.752  0.00  0.00    +0.048 C 
ATOM     19  C   LIG    1       22.644 -32.021   9.247  0.00  0.00    +0.039 C 
ATOM     20  C   LIG    1       25.027 -33.585  10.773  0.00  0.00    +0.015 C 
ATOM     21  C   LIG    1       25.173 -31.436  11.985  0.00  0.00    +0.044 C 
ATOM     22  C   LIG    1       23.719 -31.153   8.598  0.00  0.00    +0.162 C 
ATOM     23  O   LIG    1       23.875 -31.499   7.229  0.00  0.00    -0.343 OA
ATOM     24  C   LIG    1       24.941 -32.444   7.172  0.00  0.00    +0.166 C 
ATOM     25  C   LIG    1       24.405 -33.825   6.808  0.00  0.00    +0.073 C 
ATOM     26  C   LIG    1       25.935 -32.003   6.107  0.00  0.00    +0.073 C 
ATOM     27  O   LIG    1       25.591 -32.518   8.445  0.00  0.00    -0.332 OA
ENDROOT
BRANCH   1  28
ATOM     28  C   LIG    1       25.974 -30.294   9.359  0.00  0.00    +0.205 C 
ATOM     29  O   LIG    1       25.578 -29.186   8.969  0.00  0.00    -0.291 OA
BRANCH  28  30
ATOM     30  C   LIG    1       27.400 -30.404   9.958  0.00  0.00    +0.309 C 
BRANCH  30  31
ATOM     31  O   LIG    1       28.142 -29.324  10.518  0.00  0.00    -0.457 OA
BRANCH  31  33
ATOM     32  C   LIG    1       27.025 -27.664  11.792  0.00  0.00    +0.136 C 
ATOM     33  C   LIG    1       27.789 -28.954  11.780  0.00  0.00    +0.304 C 
ATOM     34  O   LIG    1       28.071 -29.565  12.814  0.00  0.00    -0.251 OA
ENDBRANCH  31  33
ENDBRANCH  30  31
ENDBRANCH  28  30
ENDBRANCH   1  28
BRANCH   6  35
ATOM     35  O   LIG    1       25.134 -29.911  13.795  0.00  0.00    -0.389 OA
ATOM     36  H   LIG    1       24.575 -29.298  14.309  0.00  0.00    +0.210 HD
ENDBRANCH   6  35
TORSDOF 5
ENDMDL
MODEL 8
REMARK VINA RESULT:      -6.3      3.266      4.633
REMARK  Name = *****
REMARK                            x       y       z     vdW  Elec       q    Type
REMARK                         _______ _______ _______ _____ _____    ______ ____
ROOT
ATOM      1  C   LIG    1       23.019 -31.746  11.354  0.00  0.00    +0.165 C 
ATOM      2  C   LIG    1       23.241 -31.499  12.914  0.00  0.00    +0.012 C 
ATOM      3  C   LIG    1       22.407 -30.224  13.284  0.00  0.00    +0.007 C 
ATOM      4  C   LIG    1       23.137 -28.856  13.445  0.00  0.00    +0.037 C 
ATOM      5  C   LIG    1       24.497 -28.942  14.169  0.00  0.00    +0.153 C 
ATOM      6  C   LIG    1       25.358 -30.003  13.433  0.00  0.00    +0.154 C 
ATOM      7  F   LIG    1       24.228 -29.466  15.421  0.00  0.00    -0.238 F 
ATOM      8  C   LIG    1       25.177 -27.508  14.421  0.00  0.00    +0.047 C 
ATOM      9  C   LIG    1       24.153 -26.450  14.930  0.00  0.00    -0.020 C 
ATOM     10  C   LIG    1       24.581 -25.187  15.169  0.00  0.00    +0.054 C 
ATOM     11  C   LIG    1       25.279 -24.598  13.963  0.00  0.00    +0.179 C 
ATOM     12  C   LIG    1       25.882 -25.551  12.984  0.00  0.00    +0.047 C 
ATOM     13  O   LIG    1       25.424 -23.388  13.851  0.00  0.00    -0.288 OA
ATOM     14  C   LIG    1       22.769 -26.516  14.324  0.00  0.00    +0.194 C 
ATOM     15  F   LIG    1       22.786 -26.014  13.054  0.00  0.00    -0.241 F 
ATOM     16  C   LIG    1       26.292 -27.656  15.498  0.00  0.00    +0.023 C 
ATOM     17  C   LIG    1       25.851 -26.882  13.196  0.00  0.00    -0.009 C 
ATOM     18  C   LIG    1       22.206 -27.916  14.244  0.00  0.00    +0.048 C 
ATOM     19  C   LIG    1       21.365 -30.141  12.164  0.00  0.00    +0.039 C 
ATOM     20  C   LIG    1       22.621 -32.708  13.678  0.00  0.00    +0.015 C 
ATOM     21  C   LIG    1       24.695 -31.388  13.428  0.00  0.00    +0.044 C 
ATOM     22  C   LIG    1       22.104 -30.602  10.911  0.00  0.00    +0.162 C 
ATOM     23  O   LIG    1       21.189 -31.147   9.970  0.00  0.00    -0.343 OA
ATOM     24  C   LIG    1       21.175 -32.555  10.190  0.00  0.00    +0.166 C 
ATOM     25  C   LIG    1       19.839 -32.984  10.788  0.00  0.00    +0.073 C 
ATOM     26  C   LIG    1       21.371 -33.265   8.858  0.00  0.00    +0.073 C 
ATOM     27  O   LIG    1       22.225 -32.914  11.094  0.00  0.00    -0.332 OA
ENDROOT
BRANCH   1  28
ATOM     28  C   LIG    1       24.303 -31.787  10.508  0.00  0.00    +0.205 C 
ATOM     29  O   LIG    1       24.801 -30.731  10.091  0.00  0.00    -0.291 OA
BRANCH  28  30
ATOM     30  C   LIG    1       25.033 -33.121  10.209  0.00  0.00    +0.309 C 
BRANCH  30  31
ATOM     31  O   LIG    1       25.479 -33.544   8.923  0.00  0.00    -0.457 OA
BRANCH  31  33
ATOM     32  C   LIG    1       26.879 -32.326   7.446  0.00  0.00    +0.136 C 
ATOM     33  C   LIG    1       26.774 -33.254   8.619  0.00  0.00    +0.304 C 
ATOM     34  O   LIG    1       27.767 -33.704   9.197  0.00  0.00    -0.251 OA
ENDBRANCH  31  33
ENDBRANCH  30  31
ENDBRANCH  28  30
ENDBRANCH   1  28
BRANCH   6  35
ATOM     35  O   LIG    1       26.638 -30.185  14.044  0.00  0.00    -0.389 OA
ATOM     36  H   LIG    1       27.107 -30.884  13.550  0.00  0.00    +0.210 HD
ENDBRANCH   6  35
TORSDOF 5
ENDMDL
MODEL 9
REMARK VINA RESULT:      -6.1      2.753      7.566
REMARK  Name = *****
REMARK                            x       y       z     vdW  Elec       q    Type
REMARK                         _______ _______ _______ _____ _____    ______ ____
ROOT
ATOM      1  C   LIG    1       21.906 -29.803  13.240  0.00  0.00    +0.165 C 
ATOM      2  C   LIG    1       23.184 -30.756  13.186  0.00  0.00    +0.012 C 
ATOM      3  C   LIG    1       24.282 -29.980  12.380  0.00  0.00    +0.007 C 
ATOM      4  C   LIG    1       24.534 -30.347  10.886  0.00  0.00    +0.037 C 
ATOM      5  C   LIG    1       24.496 -31.860  10.587  0.00  0.00    +0.153 C 
ATOM      6  C   LIG    1       23.150 -32.415  11.128  0.00  0.00    +0.154 C 
ATOM      7  F   LIG    1       25.487 -32.426  11.370  0.00  0.00    -0.238 F 
ATOM      8  C   LIG    1       24.867 -32.220   9.066  0.00  0.00    +0.047 C 
ATOM      9  C   LIG    1       26.096 -31.412   8.551  0.00  0.00    -0.020 C 
ATOM     10  C   LIG    1       26.513 -31.598   7.275  0.00  0.00    +0.054 C 
ATOM     11  C   LIG    1       25.389 -31.392   6.286  0.00  0.00    +0.179 C 
ATOM     12  C   LIG    1       23.993 -31.582   6.781  0.00  0.00    +0.047 C 
ATOM     13  O   LIG    1       25.625 -31.173   5.105  0.00  0.00    -0.288 OA
ATOM     14  C   LIG    1       26.192 -29.977   9.017  0.00  0.00    +0.194 C 
ATOM     15  F   LIG    1       25.293 -29.201   8.344  0.00  0.00    -0.241 F 
ATOM     16  C   LIG    1       25.212 -33.736   8.971  0.00  0.00    +0.023 C 
ATOM     17  C   LIG    1       23.749 -31.975   8.047  0.00  0.00    -0.009 C 
ATOM     18  C   LIG    1       25.924 -29.796  10.492  0.00  0.00    +0.048 C 
ATOM     19  C   LIG    1       23.847 -28.516  12.501  0.00  0.00    +0.039 C 
ATOM     20  C   LIG    1       23.703 -30.933  14.645  0.00  0.00    +0.015 C 
ATOM     21  C   LIG    1       22.993 -32.189  12.639  0.00  0.00    +0.044 C 
ATOM     22  C   LIG    1       22.322 -28.559  12.452  0.00  0.00    +0.162 C 
ATOM     23  O   LIG    1       21.774 -27.437  13.131  0.00  0.00    -0.343 OA
ATOM     24  C   LIG    1       21.504 -27.867  14.463  0.00  0.00    +0.166 C 
ATOM     25  C   LIG    1       22.463 -27.192  15.440  0.00  0.00    +0.073 C 
ATOM     26  C   LIG    1       20.077 -27.482  14.827  0.00  0.00    +0.073 C 
ATOM     27  O   LIG    1       21.666 -29.285  14.557  0.00  0.00    -0.332 OA
ENDROOT
BRANCH   1  28
ATOM     28  C   LIG    1       20.612 -30.410  12.672  0.00  0.00    +0.205 C 
ATOM     29  O   LIG    1       19.772 -30.902  13.440  0.00  0.00    -0.291 OA
BRANCH  28  30
ATOM     30  C   LIG    1       20.295 -30.369  11.155  0.00  0.00    +0.309 C 
BRANCH  30  31
ATOM     31  O   LIG    1       20.051 -31.508  10.335  0.00  0.00    -0.457 OA
BRANCH  31  33
ATOM     32  C   LIG    1       18.426 -33.228  10.168  0.00  0.00    +0.136 C 
ATOM     33  C   LIG    1       18.744 -31.768  10.054  0.00  0.00    +0.304 C 
ATOM     34  O   LIG    1       17.902 -30.931   9.714  0.00  0.00    -0.251 OA
ENDBRANCH  31  33
ENDBRANCH  30  31
ENDBRANCH  28  30
ENDBRANCH   1  28
BRANCH   6  35
ATOM     35  O   LIG    1       23.023 -33.825  10.928  0.00  0.00    -0.389 OA
ATOM     36  H   LIG    1       22.167 -33.987  10.487  0.00  0.00    +0.210 HD
ENDBRANCH   6  35
TORSDOF 5
ENDMDL
