MODEL 1
REMARK VINA RESULT:      10.2      0.000      0.000
REMARK  Name = *****
REMARK                            x       y       z     vdW  Elec       q    Type
REMARK                         _______ _______ _______ _____ _____    ______ ____
ROOT
ATOM      1  C   LIG    1       24.020 -13.320   6.688  0.00  0.00    +0.157 C 
ATOM      2  N   LIG    1       24.328 -14.084   5.459  0.00  0.00    -0.206 N 
ATOM      3  S   LIG    1       23.250 -15.372   5.155  0.00  0.00    +0.075 S 
ATOM      4  O   LIG    1       22.141 -14.874   4.373  0.00  0.00    -0.150 OA
ATOM      5  O   LIG    1       23.021 -16.032   6.427  0.00  0.00    -0.150 OA
ATOM      6  C   LIG    1       24.100 -16.575   4.143  0.00  0.00    +0.115 A 
ATOM      7  C   LIG    1       25.375 -16.418   3.561  0.00  0.00    +0.001 A 
ATOM      8  C   LIG    1       25.881 -17.494   2.794  0.00  0.00    +0.009 A 
ATOM      9  C   LIG    1       25.160 -18.680   2.630  0.00  0.00    +0.020 A 
ATOM     10  C   LIG    1       23.919 -18.821   3.236  0.00  0.00    +0.043 A 
ATOM     11 CL   LIG    1       23.049 -20.295   3.074  0.00  0.00    -0.084 Cl
ATOM     12  C   LIG    1       26.287 -15.207   3.736  0.00  0.00    +0.118 C 
ATOM     13  C   LIG    1       25.585 -13.909   3.392  0.00  0.00    -0.004 A 
ATOM     14  C   LIG    1       25.830 -13.276   2.162  0.00  0.00    +0.007 A 
ATOM     15  C   LIG    1       25.177 -12.089   1.829  0.00  0.00    +0.001 A 
ATOM     16  C   LIG    1       24.267 -11.525   2.719  0.00  0.00    +0.002 A 
ATOM     17  C   LIG    1       23.999 -12.153   3.935  0.00  0.00    +0.025 A 
ATOM     18  C   LIG    1       23.385 -17.779   3.982  0.00  0.00    +0.049 A 
ATOM     19  C   LIG    1       24.664 -13.335   4.278  0.00  0.00    +0.056 A 
ENDROOT
BRANCH  12  20
ATOM     20  N   LIG    1       26.910 -15.264   5.072  0.00  0.00    -0.306 NA
ATOM     21  H   LIG    1       27.003 -14.298   5.392  0.00  0.00    +0.123 HD
BRANCH  20  22
ATOM     22  C   LIG    1       28.237 -15.884   5.085  0.00  0.00    +0.082 C 
BRANCH  22  23
ATOM     23  C   LIG    1       28.137 -17.395   5.360  0.00  0.00    +0.015 C 
BRANCH  23  24
ATOM     24  C   LIG    1       29.473 -18.047   5.752  0.00  0.00    +0.001 C 
BRANCH  24  25
ATOM     25  C   LIG    1       29.346 -18.882   7.032  0.00  0.00    +0.001 C 
BRANCH  25  26
ATOM     26  C   LIG    1       28.589 -20.205   6.842  0.00  0.00    +0.011 C 
BRANCH  26  27
ATOM     27  C   LIG    1       27.079 -20.078   7.032  0.00  0.00    +0.120 C 
BRANCH  27  28
ATOM     28  C   LIG    1       26.329 -20.397   5.761  0.00  0.00    +0.305 C 
ATOM     29  O   LIG    1       25.134 -20.652   5.725  0.00  0.00    -0.251 OA
BRANCH  28  30
ATOM     30  O   LIG    1       27.104 -20.403   4.654  0.00  0.00    -0.481 OA
ATOM     31  H   LIG    1       28.005 -20.053   4.790  0.00  0.00    +0.295 HD
ENDBRANCH  28  30
ENDBRANCH  27  28
ENDBRANCH  26  27
ENDBRANCH  25  26
ENDBRANCH  24  25
ENDBRANCH  23  24
ENDBRANCH  22  23
ENDBRANCH  20  22
ENDBRANCH  12  20
TORSDOF 9
ENDMDL
MODEL 2
REMARK VINA RESULT:      12.3      3.097      6.200
REMARK  Name = *****
REMARK                            x       y       z     vdW  Elec       q    Type
REMARK                         _______ _______ _______ _____ _____    ______ ____
ROOT
ATOM      1  C   LIG    1       24.844 -19.926   1.947  0.00  0.00    +0.157 C 
ATOM      2  N   LIG    1       24.952 -18.891   2.998  0.00  0.00    -0.206 N 
ATOM      3  S   LIG    1       23.523 -18.678   3.908  0.00  0.00    +0.075 S 
ATOM      4  O   LIG    1       23.548 -19.589   5.031  0.00  0.00    -0.150 OA
ATOM      5  O   LIG    1       22.421 -18.696   2.964  0.00  0.00    -0.150 OA
ATOM      6  C   LIG    1       23.542 -17.023   4.583  0.00  0.00    +0.115 A 
ATOM      7  C   LIG    1       24.615 -16.110   4.515  0.00  0.00    +0.001 A 
ATOM      8  C   LIG    1       24.431 -14.839   5.109  0.00  0.00    +0.009 A 
ATOM      9  C   LIG    1       23.228 -14.484   5.724  0.00  0.00    +0.020 A 
ATOM     10  C   LIG    1       22.176 -15.390   5.753  0.00  0.00    +0.043 A 
ATOM     11 CL   LIG    1       20.678 -14.942   6.469  0.00  0.00    -0.084 Cl
ATOM     12  C   LIG    1       25.942 -16.353   3.802  0.00  0.00    +0.118 C 
ATOM     13  C   LIG    1       26.606 -17.639   4.254  0.00  0.00    -0.004 A 
ATOM     14  C   LIG    1       27.681 -17.600   5.157  0.00  0.00    +0.007 A 
ATOM     15  C   LIG    1       28.289 -18.779   5.591  0.00  0.00    +0.001 A 
ATOM     16  C   LIG    1       27.824 -20.009   5.133  0.00  0.00    +0.002 A 
ATOM     17  C   LIG    1       26.745 -20.063   4.251  0.00  0.00    +0.025 A 
ATOM     18  C   LIG    1       22.327 -16.652   5.195  0.00  0.00    +0.049 A 
ATOM     19  C   LIG    1       26.144 -18.881   3.803  0.00  0.00    +0.056 A 
ENDROOT
BRANCH  12  20
ATOM     20  N   LIG    1       25.740 -16.214   2.348  0.00  0.00    -0.306 NA
ATOM     21  H   LIG    1       26.309 -16.935   1.904  0.00  0.00    +0.123 HD
BRANCH  20  22
ATOM     22  C   LIG    1       26.142 -14.912   1.812  0.00  0.00    +0.082 C 
BRANCH  22  23
ATOM     23  C   LIG    1       25.001 -13.887   1.935  0.00  0.00    +0.015 C 
BRANCH  23  24
ATOM     24  C   LIG    1       25.459 -12.495   2.399  0.00  0.00    +0.001 C 
BRANCH  24  25
ATOM     25  C   LIG    1       25.028 -12.206   3.842  0.00  0.00    +0.001 C 
BRANCH  25  26
ATOM     26  C   LIG    1       26.193 -12.142   4.841  0.00  0.00    +0.011 C 
BRANCH  26  27
ATOM     27  C   LIG    1       27.200 -13.279   4.679  0.00  0.00    +0.120 C 
BRANCH  27  28
ATOM     28  C   LIG    1       28.587 -12.757   4.388  0.00  0.00    +0.305 C 
ATOM     29  O   LIG    1       29.142 -11.897   5.056  0.00  0.00    -0.251 OA
BRANCH  28  30
ATOM     30  O   LIG    1       29.163 -13.310   3.298  0.00  0.00    -0.481 OA
ATOM     31  H   LIG    1       28.544 -13.780   2.709  0.00  0.00    +0.295 HD
ENDBRANCH  28  30
ENDBRANCH  27  28
ENDBRANCH  26  27
ENDBRANCH  25  26
ENDBRANCH  24  25
ENDBRANCH  23  24
ENDBRANCH  22  23
ENDBRANCH  20  22
ENDBRANCH  12  20
TORSDOF 9
ENDMDL
MODEL 3
REMARK VINA RESULT:      12.4      3.337      6.568
REMARK  Name = *****
REMARK                            x       y       z     vdW  Elec       q    Type
REMARK                         _______ _______ _______ _____ _____    ______ ____
ROOT
ATOM      1  C   LIG    1       22.482 -21.037   7.062  0.00  0.00    +0.157 C 
ATOM      2  N   LIG    1       22.750 -20.138   5.917  0.00  0.00    -0.206 N 
ATOM      3  S   LIG    1       24.321 -20.294   5.268  0.00  0.00    +0.075 S 
ATOM      4  O   LIG    1       24.302 -21.319   4.249  0.00  0.00    -0.150 OA
ATOM      5  O   LIG    1       25.230 -20.387   6.395  0.00  0.00    -0.150 OA
ATOM      6  C   LIG    1       24.735 -18.758   4.452  0.00  0.00    +0.115 A 
ATOM      7  C   LIG    1       23.863 -17.671   4.238  0.00  0.00    +0.001 A 
ATOM      8  C   LIG    1       24.385 -16.536   3.574  0.00  0.00    +0.009 A 
ATOM      9  C   LIG    1       25.717 -16.477   3.159  0.00  0.00    +0.020 A 
ATOM     10  C   LIG    1       26.563 -17.550   3.406  0.00  0.00    +0.043 A 
ATOM     11 CL   LIG    1       28.215 -17.464   2.938  0.00  0.00    -0.084 Cl
ATOM     12  C   LIG    1       22.416 -17.586   4.716  0.00  0.00    +0.118 C 
ATOM     13  C   LIG    1       21.597 -18.782   4.271  0.00  0.00    -0.004 A 
ATOM     14  C   LIG    1       20.711 -18.668   3.186  0.00  0.00    +0.007 A 
ATOM     15  C   LIG    1       19.964 -19.766   2.759  0.00  0.00    +0.001 A 
ATOM     16  C   LIG    1       20.100 -20.992   3.406  0.00  0.00    +0.002 A 
ATOM     17  C   LIG    1       20.991 -21.124   4.472  0.00  0.00    +0.025 A 
ATOM     18  C   LIG    1       26.081 -18.686   4.041  0.00  0.00    +0.049 A 
ATOM     19  C   LIG    1       21.729 -20.020   4.912  0.00  0.00    +0.056 A 
ENDROOT
BRANCH  12  20
ATOM     20  N   LIG    1       22.403 -17.304   6.163  0.00  0.00    -0.306 NA
ATOM     21  H   LIG    1       21.625 -17.835   6.557  0.00  0.00    +0.123 HD
BRANCH  20  22
ATOM     22  C   LIG    1       22.213 -15.890   6.494  0.00  0.00    +0.082 C 
BRANCH  22  23
ATOM     23  C   LIG    1       22.429 -15.000   5.258  0.00  0.00    +0.015 C 
BRANCH  23  24
ATOM     24  C   LIG    1       23.663 -14.089   5.354  0.00  0.00    +0.001 C 
BRANCH  24  25
ATOM     25  C   LIG    1       23.847 -13.242   4.088  0.00  0.00    +0.001 C 
BRANCH  25  26
ATOM     26  C   LIG    1       25.245 -12.623   3.948  0.00  0.00    +0.011 C 
BRANCH  26  27
ATOM     27  C   LIG    1       26.360 -13.495   4.522  0.00  0.00    +0.120 C 
BRANCH  27  28
ATOM     28  C   LIG    1       27.624 -13.394   3.701  0.00  0.00    +0.305 C 
ATOM     29  O   LIG    1       28.689 -12.991   4.145  0.00  0.00    -0.251 OA
BRANCH  28  30
ATOM     30  O   LIG    1       27.471 -13.768   2.412  0.00  0.00    -0.481 OA
ATOM     31  H   LIG    1       28.292 -13.742   1.885  0.00  0.00    +0.295 HD
ENDBRANCH  28  30
ENDBRANCH  27  28
ENDBRANCH  26  27
ENDBRANCH  25  26
ENDBRANCH  24  25
ENDBRANCH  23  24
ENDBRANCH  22  23
ENDBRANCH  20  22
ENDBRANCH  12  20
TORSDOF 9
ENDMDL
