MODEL 1
REMARK VINA RESULT:      49.0      0.000      0.000
REMARK  Name = *****
REMARK                            x       y       z     vdW  Elec       q    Type
REMARK                         _______ _______ _______ _____ _____    ______ ____
ROOT
ATOM      1  C   LIG    1       26.919 -16.685   3.464  0.00  0.00    +0.178 C 
ATOM      2  C   LIG    1       28.455 -16.506   3.419  0.00  0.00    +0.151 C 
ATOM      3  C   LIG    1       29.022 -17.008   4.750  0.00  0.00    +0.095 C 
ATOM      4  C   LIG    1       28.419 -18.378   5.094  0.00  0.00    +0.253 C 
ATOM      5  O   LIG    1       27.796 -18.960   3.950  0.00  0.00    -0.346 OA
ATOM      6  C   LIG    1       26.641 -18.210   3.523  0.00  0.00    +0.150 C 
ATOM      7  C   LIG    1       26.237 -18.766   2.162  0.00  0.00    +0.040 C 
ENDROOT
BRANCH   2   8
ATOM      8  O   LIG    1       28.826 -15.143   3.207  0.00  0.00    -0.389 OA
ATOM      9  H   LIG    1       28.223 -14.780   2.536  0.00  0.00    +0.210 HD
ENDBRANCH   2   8
BRANCH   1  10
ATOM     10  O   LIG    1       26.508 -16.005   4.666  0.00  0.00    -0.343 OA
BRANCH  10  14
ATOM     11  C   LIG    1       27.349 -12.004   4.982  0.00  0.00    +0.178 C 
ATOM     12  C   LIG    1       28.243 -12.964   5.780  0.00  0.00    +0.151 C 
ATOM     13  C   LIG    1       27.535 -14.305   5.910  0.00  0.00    +0.095 C 
ATOM     14  C   LIG    1       26.599 -14.590   4.724  0.00  0.00    +0.254 C 
ATOM     15  O   LIG    1       27.063 -14.021   3.506  0.00  0.00    -0.346 OA
ATOM     16  C   LIG    1       27.300 -12.596   3.544  0.00  0.00    +0.150 C 
ATOM     17  C   LIG    1       28.613 -12.366   2.792  0.00  0.00    +0.040 C 
BRANCH  12  18
ATOM     18  O   LIG    1       28.643 -12.426   7.038  0.00  0.00    -0.389 OA
ATOM     19  H   LIG    1       27.976 -11.787   7.336  0.00  0.00    +0.210 HD
ENDBRANCH  12  18
BRANCH  11  20
ATOM     20  O   LIG    1       26.040 -11.960   5.626  0.00  0.00    -0.343 OA
BRANCH  20  26
ATOM     21  C   LIG    1       23.388 -15.567   4.243  0.00  0.00    +0.040 C 
ATOM     22  C   LIG    1       23.602 -14.076   4.029  0.00  0.00    +0.149 C 
ATOM     23  C   LIG    1       23.743 -13.700   2.546  0.00  0.00    +0.171 C 
ATOM     24  C   LIG    1       24.083 -12.203   2.406  0.00  0.00    +0.150 C 
ATOM     25  C   LIG    1       25.229 -11.789   3.332  0.00  0.00    +0.095 C 
ATOM     26  C   LIG    1       24.965 -12.304   4.750  0.00  0.00    +0.254 C 
ATOM     27  O   LIG    1       24.786 -13.710   4.738  0.00  0.00    -0.346 OA
BRANCH  23  28
ATOM     28  O   LIG    1       22.528 -13.972   1.843  0.00  0.00    -0.387 OA
ATOM     29  H   LIG    1       22.805 -14.253   0.946  0.00  0.00    +0.210 HD
ENDBRANCH  23  28
BRANCH  24  30
ATOM     30  O   LIG    1       22.904 -11.448   2.739  0.00  0.00    -0.389 OA
ATOM     31  H   LIG    1       23.199 -10.573   3.054  0.00  0.00    +0.210 HD
ENDBRANCH  24  30
ENDBRANCH  20  26
ENDBRANCH  11  20
ENDBRANCH  10  14
ENDBRANCH   1  10
BRANCH   4  32
ATOM     32  O   LIG    1       29.472 -19.204   5.571  0.00  0.00    -0.348 OA
BRANCH  32  33
ATOM     33  C   LIG    1       29.148 -20.585   5.775  0.00  0.00    +0.122 C 
ATOM     34  C   LIG    1       28.311 -21.197   4.641  0.00  0.00    +0.035 C 
ATOM     35  C   LIG    1       27.029 -20.385   4.410  0.00  0.00    -0.002 C 
ATOM     36  C   LIG    1       26.230 -20.910   3.202  0.00  0.00    +0.004 C 
ATOM     37  C   LIG    1       24.793 -20.367   3.127  0.00  0.00    +0.007 C 
ATOM     38  C   LIG    1       24.639 -19.044   3.871  0.00  0.00    +0.025 C 
ATOM     39  C   LIG    1       23.291 -18.320   3.814  0.00  0.00    +0.077 C 
ATOM     40  C   LIG    1       22.147 -18.962   4.662  0.00  0.00    +0.029 C 
ATOM     41  C   LIG    1       21.504 -20.252   4.031  0.00  0.00    +0.017 C 
ATOM     42  C   LIG    1       21.026 -17.864   4.516  0.00  0.00    +0.030 C 
ATOM     43  C   LIG    1       21.196 -17.458   3.000  0.00  0.00    +0.011 C 
ATOM     44  C   LIG    1       22.671 -19.444   6.035  0.00  0.00    +0.124 C 
ATOM     45  C   LIG    1       24.021 -18.865   6.443  0.00  0.00    +0.036 C 
ATOM     46  C   LIG    1       22.581 -17.983   2.512  0.00  0.00    +0.036 C 
ATOM     47  C   LIG    1       25.134 -19.081   5.377  0.00  0.00    +0.003 C 
ATOM     48  C   LIG    1       26.152 -20.235   5.690  0.00  0.00    -0.026 C 
ATOM     49  C   LIG    1       25.464 -21.567   6.073  0.00  0.00    +0.012 C 
ATOM     50  C   LIG    1       27.034 -19.811   6.909  0.00  0.00    +0.009 C 
ATOM     51  C   LIG    1       28.318 -20.636   7.061  0.00  0.00    +0.032 C 
BRANCH  42  52
ATOM     52  C   LIG    1       20.984 -16.676   5.461  0.00  0.00    -0.022 C 
ATOM     53  C   LIG    1       19.782 -16.384   6.285  0.00  0.00    +0.264 C 
ATOM     54  O   LIG    1       20.095 -15.162   6.973  0.00  0.00    -0.457 OA
ATOM     55  C   LIG    1       21.332 -14.772   6.623  0.00  0.00    +0.332 C 
ATOM     56  O   LIG    1       21.926 -13.774   7.055  0.00  0.00    -0.246 OA
ATOM     57  C   LIG    1       21.868 -15.691   5.633  0.00  0.00    +0.094 C 
ENDBRANCH  42  52
BRANCH  39  58
ATOM     58  O   LIG    1       23.646 -17.016   4.341  0.00  0.00    -0.388 OA
ATOM     59  H   LIG    1       24.547 -16.793   4.046  0.00  0.00    +0.210 HD
ENDBRANCH  39  58
BRANCH  44  60
ATOM     60  O   LIG    1       21.697 -19.297   7.054  0.00  0.00    -0.391 OA
ATOM     61  H   LIG    1       21.002 -19.960   6.894  0.00  0.00    +0.210 HD
ENDBRANCH  44  60
ENDBRANCH  32  33
ENDBRANCH   4  32
TORSDOF 13
ENDMDL
