MODEL 1
REMARK VINA RESULT:      13.5      0.000      0.000
REMARK  Name = *****
REMARK                            x       y       z     vdW  Elec       q    Type
REMARK                         _______ _______ _______ _____ _____    ______ ____
ROOT
ATOM      1  C   LIG    1       28.337 -17.804   4.845  0.00  0.00    +0.221 A 
ATOM      2  N   LIG    1       27.045 -18.157   4.813  0.00  0.00    -0.211 NA
ATOM      3  C   LIG    1       26.666 -19.339   5.366  0.00  0.00    +0.111 A 
ATOM      4  C   LIG    1       27.599 -20.183   5.921  0.00  0.00    +0.167 A 
ATOM      5  F   LIG    1       27.284 -21.383   6.438  0.00  0.00    -0.202 F 
ATOM      6  C   LIG    1       28.897 -19.756   5.912  0.00  0.00    +0.155 A 
ATOM      7  N   LIG    1       29.291 -18.565   5.399  0.00  0.00    -0.220 NA
ENDROOT
BRANCH   3   8
ATOM      8  C   LIG    1       25.215 -19.615   5.306  0.00  0.00    +0.008 A 
ATOM      9  C   LIG    1       24.590 -20.488   6.217  0.00  0.00    +0.050 A 
ATOM     10  C   LIG    1       23.217 -20.730   6.163  0.00  0.00    +0.151 A 
ATOM     11  F   LIG    1       22.677 -21.567   7.061  0.00  0.00    -0.203 F 
ATOM     12  C   LIG    1       22.427 -20.104   5.190  0.00  0.00    +0.124 A 
ATOM     13  N   LIG    1       21.084 -20.190   4.955  0.00  0.00    -0.230 NA
ATOM     14  C   LIG    1       20.832 -19.394   3.936  0.00  0.00    +0.108 A 
ATOM     15  N   LIG    1       21.993 -18.779   3.487  0.00  0.00    -0.325 N 
ATOM     16  C   LIG    1       19.461 -19.212   3.391  0.00  0.00    +0.086 C 
ATOM     17  C   LIG    1       23.029 -19.237   4.286  0.00  0.00    +0.072 A 
ATOM     18  C   LIG    1       24.411 -18.985   4.330  0.00  0.00    +0.038 A 
BRANCH  15  19
ATOM     19  C   LIG    1       22.109 -17.785   2.416  0.00  0.00    +0.083 C 
ATOM     20  C   LIG    1       23.059 -16.627   2.749  0.00  0.00    +0.030 C 
ATOM     21  C   LIG    1       20.747 -17.221   1.989  0.00  0.00    +0.030 C 
ENDBRANCH  15  19
ENDBRANCH   3   8
BRANCH   1  22
ATOM     22  N   LIG    1       28.743 -16.585   4.299  0.00  0.00    -0.269 N 
ATOM     23  H   LIG    1       29.629 -16.284   4.671  0.00  0.00    +0.156 HD
BRANCH  22  27
ATOM     24  C   LIG    1       26.396 -13.400   2.985  0.00  0.00    -0.015 A 
ATOM     25  C   LIG    1       27.460 -13.274   3.867  0.00  0.00    +0.117 A 
ATOM     26  N   LIG    1       28.249 -14.301   4.273  0.00  0.00    -0.240 NA
ATOM     27  C   LIG    1       27.980 -15.541   3.797  0.00  0.00    +0.125 A 
ATOM     28  C   LIG    1       26.988 -15.729   2.842  0.00  0.00    +0.044 A 
ATOM     29  C   LIG    1       26.186 -14.665   2.446  0.00  0.00    +0.010 A 
BRANCH  24  30
ATOM     30  C   LIG    1       25.485 -12.253   2.617  0.00  0.00    +0.121 C 
BRANCH  30  34
ATOM     31  N   LIG    1       23.557 -14.752   4.661  0.00  0.00    -0.300 NA
ATOM     32  C   LIG    1       23.275 -14.308   3.280  0.00  0.00    +0.100 C 
ATOM     33  C   LIG    1       23.158 -12.769   3.143  0.00  0.00    +0.100 C 
ATOM     34  N   LIG    1       24.376 -12.034   3.566  0.00  0.00    -0.296 NA
ATOM     35  C   LIG    1       24.719 -12.481   4.939  0.00  0.00    +0.100 C 
ATOM     36  C   LIG    1       24.752 -14.020   5.150  0.00  0.00    +0.100 C 
BRANCH  31  38
ATOM     37  C   LIG    1       21.990 -15.808   6.325  0.00  0.00    +0.020 C 
ATOM     38  C   LIG    1       22.418 -14.548   5.577  0.00  0.00    +0.081 C 
ENDBRANCH  31  38
ENDBRANCH  30  34
ENDBRANCH  24  30
ENDBRANCH  22  27
ENDBRANCH   1  22
TORSDOF 7
ENDMDL
MODEL 2
REMARK VINA RESULT:      15.7      2.265      6.442
REMARK  Name = *****
REMARK                            x       y       z     vdW  Elec       q    Type
REMARK                         _______ _______ _______ _____ _____    ______ ____
ROOT
ATOM      1  C   LIG    1       27.484 -19.686   4.944  0.00  0.00    +0.221 A 
ATOM      2  N   LIG    1       27.278 -18.437   4.507  0.00  0.00    -0.211 NA
ATOM      3  C   LIG    1       27.956 -17.411   5.088  0.00  0.00    +0.111 A 
ATOM      4  C   LIG    1       28.816 -17.644   6.134  0.00  0.00    +0.167 A 
ATOM      5  F   LIG    1       29.474 -16.661   6.773  0.00  0.00    -0.202 F 
ATOM      6  C   LIG    1       28.970 -18.944   6.526  0.00  0.00    +0.155 A 
ATOM      7  N   LIG    1       28.332 -19.984   5.938  0.00  0.00    -0.220 NA
ENDROOT
BRANCH   3   8
ATOM      8  C   LIG    1       27.680 -16.079   4.508  0.00  0.00    +0.008 A 
ATOM      9  C   LIG    1       28.712 -15.154   4.257  0.00  0.00    +0.050 A 
ATOM     10  C   LIG    1       28.444 -13.906   3.695  0.00  0.00    +0.151 A 
ATOM     11  F   LIG    1       29.468 -13.068   3.474  0.00  0.00    -0.203 F 
ATOM     12  C   LIG    1       27.130 -13.544   3.368  0.00  0.00    +0.124 A 
ATOM     13  N   LIG    1       26.642 -12.394   2.815  0.00  0.00    -0.230 NA
ATOM     14  C   LIG    1       25.342 -12.560   2.695  0.00  0.00    +0.108 A 
ATOM     15  N   LIG    1       24.954 -13.809   3.163  0.00  0.00    -0.325 N 
ATOM     16  C   LIG    1       24.458 -11.515   2.115  0.00  0.00    +0.086 C 
ATOM     17  C   LIG    1       26.102 -14.449   3.606  0.00  0.00    +0.072 A 
ATOM     18  C   LIG    1       26.359 -15.710   4.172  0.00  0.00    +0.038 A 
BRANCH  15  19
ATOM     19  C   LIG    1       23.606 -14.382   3.141  0.00  0.00    +0.083 C 
ATOM     20  C   LIG    1       22.716 -13.822   2.023  0.00  0.00    +0.030 C 
ATOM     21  C   LIG    1       22.884 -14.237   4.487  0.00  0.00    +0.030 C 
ENDBRANCH  15  19
ENDBRANCH   3   8
BRANCH   1  22
ATOM     22  N   LIG    1       26.811 -20.755   4.350  0.00  0.00    -0.269 N 
ATOM     23  H   LIG    1       27.343 -21.160   3.597  0.00  0.00    +0.156 HD
BRANCH  22  27
ATOM     24  C   LIG    1       22.696 -21.296   3.952  0.00  0.00    -0.015 A 
ATOM     25  C   LIG    1       23.558 -21.051   2.891  0.00  0.00    +0.117 A 
ATOM     26  N   LIG    1       24.903 -20.908   3.010  0.00  0.00    -0.240 NA
ATOM     27  C   LIG    1       25.449 -20.997   4.246  0.00  0.00    +0.125 A 
ATOM     28  C   LIG    1       24.662 -21.330   5.342  0.00  0.00    +0.044 A 
ATOM     29  C   LIG    1       23.286 -21.465   5.201  0.00  0.00    +0.010 A 
BRANCH  24  30
ATOM     30  C   LIG    1       21.196 -21.370   3.800  0.00  0.00    +0.121 C 
BRANCH  30  34
ATOM     31  N   LIG    1       21.954 -17.686   3.830  0.00  0.00    -0.300 NA
ATOM     32  C   LIG    1       22.463 -18.719   4.756  0.00  0.00    +0.100 C 
ATOM     33  C   LIG    1       21.340 -19.552   5.424  0.00  0.00    +0.100 C 
ATOM     34  N   LIG    1       20.468 -20.266   4.458  0.00  0.00    -0.296 NA
ATOM     35  C   LIG    1       19.964 -19.269   3.482  0.00  0.00    +0.100 C 
ATOM     36  C   LIG    1       21.044 -18.342   2.859  0.00  0.00    +0.100 C 
BRANCH  31  38
ATOM     37  C   LIG    1       21.895 -16.187   5.851  0.00  0.00    +0.020 C 
ATOM     38  C   LIG    1       21.258 -16.583   4.522  0.00  0.00    +0.081 C 
ENDBRANCH  31  38
ENDBRANCH  30  34
ENDBRANCH  24  30
ENDBRANCH  22  27
ENDBRANCH   1  22
TORSDOF 7
ENDMDL
