MODEL 1
REMARK VINA RESULT:      -3.1      0.000      0.000
REMARK  Name = *****
REMARK                            x       y       z     vdW  Elec       q    Type
REMARK                         _______ _______ _______ _____ _____    ______ ____
ROOT
ATOM      1  C   LIG    1       25.553 -16.084   3.505  0.00  0.00    +0.065 C 
ATOM      2  C   LIG    1       25.804 -17.580   3.325  0.00  0.00    +0.096 C 
ATOM      3  C   LIG    1       24.537 -18.429   3.476  0.00  0.00    +0.065 C 
ATOM      4  C   LIG    1       23.446 -17.908   4.089  0.00  0.00    +0.016 C 
ATOM      5  C   LIG    1       22.169 -18.668   4.347  0.00  0.00    +0.061 C 
ATOM      6  N   LIG    1       23.455 -16.580   4.498  0.00  0.00    -0.321 N 
ATOM      7  H   LIG    1       22.562 -16.198   4.806  0.00  0.00    +0.152 HD
ATOM      8  C   LIG    1       24.406 -15.653   4.084  0.00  0.00    +0.016 C 
ATOM      9  C   LIG    1       24.051 -14.200   4.293  0.00  0.00    +0.061 C 
ENDROOT
BRANCH   2  10
ATOM     10  C   LIG    1       26.933 -18.083   4.245  0.00  0.00    -0.029 A 
ATOM     11  C   LIG    1       26.767 -19.272   4.977  0.00  0.00    +0.088 A 
ATOM     12  C   LIG    1       27.776 -19.724   5.840  0.00  0.00    +0.273 A 
ATOM     13  C   LIG    1       28.981 -19.024   5.957  0.00  0.00    +0.084 A 
ATOM     14  C   LIG    1       29.161 -17.853   5.221  0.00  0.00    +0.007 A 
ATOM     15  C   LIG    1       28.144 -17.381   4.383  0.00  0.00    +0.005 A 
BRANCH  12  16
ATOM     16  N   LIG    1       27.552 -20.927   6.649  0.00  0.00    +0.080 N 
ATOM     17  O   LIG    1       28.548 -21.570   7.014  0.00  0.00    -0.576 OA
ATOM     18  O   LIG    1       26.381 -21.240   6.909  0.00  0.00    +0.041 OA
ENDBRANCH  12  16
ENDBRANCH   2  10
BRANCH   1  19
ATOM     19  C   LIG    1       26.568 -15.145   2.955  0.00  0.00    +0.338 C 
ATOM     20  O   LIG    1       26.530 -14.662   1.830  0.00  0.00    -0.245 OA
BRANCH  19  21
ATOM     21  O   LIG    1       27.548 -14.916   3.860  0.00  0.00    -0.462 OA
BRANCH  21  23
ATOM     22  C   LIG    1       28.706 -12.814   4.002  0.00  0.00    +0.048 C 
ATOM     23  C   LIG    1       27.544 -13.642   4.515  0.00  0.00    +0.229 C 
ENDBRANCH  21  23
ENDBRANCH  19  21
ENDBRANCH   1  19
BRANCH   3  24
ATOM     24  C   LIG    1       24.530 -19.777   2.825  0.00  0.00    +0.337 C 
ATOM     25  O   LIG    1       25.218 -20.113   1.872  0.00  0.00    -0.245 OA
BRANCH  24  26
ATOM     26  O   LIG    1       23.703 -20.594   3.521  0.00  0.00    -0.465 OA
ATOM     27  C   LIG    1       24.288 -21.553   4.403  0.00  0.00    +0.280 C 
ENDBRANCH  24  26
ENDBRANCH   3  24
TORSDOF 7
ENDMDL
