MODEL 1
REMARK VINA RESULT:       9.2      0.000      0.000
REMARK  Name = *****
REMARK                            x       y       z     vdW  Elec       q    Type
REMARK                         _______ _______ _______ _____ _____    ______ ____
ROOT
ATOM      1  C   LIG    1       26.140 -18.849   3.516  0.00  0.00    +0.272 C 
ATOM      2  C   LIG    1       24.603 -19.196   3.480  0.00  0.00    +0.144 C 
ATOM      3  N   LIG    1       24.554 -20.630   3.896  0.00  0.00    -0.282 NA
ATOM      4  C   LIG    1       25.103 -20.792   5.257  0.00  0.00    +0.113 C 
ATOM      5  C   LIG    1       26.467 -20.080   5.471  0.00  0.00    +0.178 C 
ATOM      6  O   LIG    1       26.566 -18.779   4.879  0.00  0.00    -0.348 OA
ENDROOT
BRANCH   2   7
ATOM      7  C   LIG    1       23.686 -18.224   4.267  0.00  0.00    -0.025 A 
ATOM      8  C   LIG    1       23.043 -18.561   5.476  0.00  0.00    +0.008 A 
ATOM      9  C   LIG    1       22.234 -17.666   6.180  0.00  0.00    +0.039 A 
ATOM     10  C   LIG    1       22.027 -16.402   5.672  0.00  0.00    +0.123 A 
ATOM     11  F   LIG    1       21.264 -15.536   6.348  0.00  0.00    -0.205 F 
ATOM     12  C   LIG    1       22.605 -16.031   4.469  0.00  0.00    +0.039 A 
ATOM     13  C   LIG    1       23.416 -16.936   3.770  0.00  0.00    +0.008 A 
ENDBRANCH   2   7
BRANCH   1  14
ATOM     14  O   LIG    1       26.506 -17.686   2.756  0.00  0.00    -0.342 OA
BRANCH  14  16
ATOM     15  C   LIG    1       27.890 -17.569   4.753  0.00  0.00    +0.043 C 
ATOM     16  C   LIG    1       27.536 -16.924   3.410  0.00  0.00    +0.148 C 
BRANCH  16  17
ATOM     17  C   LIG    1       27.102 -15.482   3.616  0.00  0.00    -0.018 A 
ATOM     18  C   LIG    1       27.935 -14.600   4.323  0.00  0.00    +0.018 A 
ATOM     19  C   LIG    1       27.575 -13.258   4.512  0.00  0.00    +0.056 A 
ATOM     20  C   LIG    1       26.372 -12.795   3.959  0.00  0.00    +0.024 A 
ATOM     21  C   LIG    1       25.526 -13.657   3.239  0.00  0.00    +0.056 A 
ATOM     22  C   LIG    1       25.910 -14.993   3.061  0.00  0.00    +0.018 A 
BRANCH  19  23
ATOM     23  C   LIG    1       28.470 -12.358   5.332  0.00  0.00    +0.417 C 
ATOM     24  F   LIG    1       29.236 -13.049   6.219  0.00  0.00    -0.166 F 
ATOM     25  F   LIG    1       27.753 -11.466   6.071  0.00  0.00    -0.166 F 
ATOM     26  F   LIG    1       29.333 -11.617   4.585  0.00  0.00    -0.166 F 
ENDBRANCH  19  23
BRANCH  21  27
ATOM     27  C   LIG    1       24.225 -13.152   2.661  0.00  0.00    +0.417 C 
ATOM     28  F   LIG    1       24.379 -12.000   1.956  0.00  0.00    -0.166 F 
ATOM     29  F   LIG    1       23.295 -12.887   3.620  0.00  0.00    -0.166 F 
ATOM     30  F   LIG    1       23.640 -14.041   1.812  0.00  0.00    -0.166 F 
ENDBRANCH  21  27
ENDBRANCH  16  17
ENDBRANCH  14  16
ENDBRANCH   1  14
BRANCH   3  31
ATOM     31  C   LIG    1       23.379 -21.468   3.625  0.00  0.00    +0.161 C 
BRANCH  31  32
ATOM     32  C   LIG    1       22.066 -20.730   3.777  0.00  0.00    +0.145 C 
ATOM     33  N   LIG    1       21.821 -19.603   3.094  0.00  0.00    -0.292 N 
ATOM     34  H   LIG    1       22.348 -19.134   2.385  0.00  0.00    +0.172 HD
ATOM     35  C   LIG    1       20.561 -19.203   3.464  0.00  0.00    +0.342 C 
ATOM     36  O   LIG    1       19.951 -18.270   3.012  0.00  0.00    -0.245 OA
ATOM     37  N   LIG    1       20.151 -20.123   4.407  0.00  0.00    -0.227 N 
ATOM     38  H   LIG    1       19.277 -20.100   4.910  0.00  0.00    +0.194 HD
ATOM     39  N   LIG    1       21.108 -21.084   4.596  0.00  0.00    -0.155 NA
ENDBRANCH  31  32
ENDBRANCH   3  31
TORSDOF 8
ENDMDL
