MODEL 1
REMARK VINA RESULT:      -7.3      0.000      0.000
REMARK  Name = *****
REMARK                            x       y       z     vdW  Elec       q    Type
REMARK                         _______ _______ _______ _____ _____    ______ ____
ROOT
ATOM      1  O   LIG    1       24.484 -27.208   5.317  0.00  0.00    -0.265 OA
ATOM      2  C   LIG    1       24.580 -26.106   5.844  0.00  0.00    +0.289 C 
ATOM      3  C   LIG    1       25.867 -25.538   6.280  0.00  0.00    +0.204 C 
ATOM      4  F   LIG    1       26.973 -26.283   6.106  0.00  0.00    -0.198 F 
ATOM      5  C   LIG    1       25.905 -24.321   6.819  0.00  0.00    +0.137 C 
ATOM      6  N   LIG    1       24.762 -23.560   6.993  0.00  0.00    -0.271 N 
ATOM      7  C   LIG    1       23.505 -24.055   6.648  0.00  0.00    +0.332 C 
ATOM      8  O   LIG    1       22.457 -23.442   6.825  0.00  0.00    -0.246 OA
ATOM      9  N   LIG    1       23.491 -25.308   6.081  0.00  0.00    -0.273 N 
ATOM     10  H   LIG    1       22.592 -25.669   5.802  0.00  0.00    +0.173 HD
ENDROOT
BRANCH   6  11
ATOM     11  C1* LIG    1       24.808 -22.216   7.568  0.00  0.00    +0.226 C 
ATOM     12  O4* LIG    1       24.815 -21.228   6.516  0.00  0.00    -0.348 OA
ATOM     13  C4* LIG    1       26.006 -20.424   6.661  0.00  0.00    +0.175 C 
ATOM     14  C3* LIG    1       26.974 -21.251   7.494  0.00  0.00    +0.150 C 
ATOM     15  C2* LIG    1       26.036 -21.967   8.438  0.00  0.00    +0.088 C 
BRANCH  14  16
ATOM     16  O3* LIG    1       27.940 -20.471   8.174  0.00  0.00    -0.389 OA
ATOM     17  H3* LIG    1       27.754 -19.527   8.026  0.00  0.00    +0.210 HD
ENDBRANCH  14  16
BRANCH  13  18
ATOM     18  C5* LIG    1       26.544 -20.073   5.277  0.00  0.00    +0.190 C 
BRANCH  18  19
ATOM     19  O5* LIG    1       27.954 -20.293   5.242  0.00  0.00    -0.392 OA
ATOM     20  H5* LIG    1       28.168 -20.811   6.042  0.00  0.00    +0.209 HD
ENDBRANCH  18  19
ENDBRANCH  13  18
ENDBRANCH   6  11
TORSDOF 4
ENDMDL
MODEL 2
REMARK VINA RESULT:      -7.1      4.972      7.001
REMARK  Name = *****
REMARK                            x       y       z     vdW  Elec       q    Type
REMARK                         _______ _______ _______ _____ _____    ______ ____
ROOT
ATOM      1  O   LIG    1       26.630 -20.431   5.480  0.00  0.00    -0.265 OA
ATOM      2  C   LIG    1       27.672 -20.231   6.092  0.00  0.00    +0.289 C 
ATOM      3  C   LIG    1       28.599 -19.136   5.756  0.00  0.00    +0.204 C 
ATOM      4  F   LIG    1       28.284 -18.346   4.714  0.00  0.00    -0.198 F 
ATOM      5  C   LIG    1       29.700 -18.955   6.482  0.00  0.00    +0.137 C 
ATOM      6  N   LIG    1       30.015 -19.772   7.553  0.00  0.00    -0.271 N 
ATOM      7  C   LIG    1       29.208 -20.856   7.896  0.00  0.00    +0.332 C 
ATOM      8  O   LIG    1       29.466 -21.640   8.805  0.00  0.00    -0.246 OA
ATOM      9  N   LIG    1       28.070 -21.016   7.142  0.00  0.00    -0.273 N 
ATOM     10  H   LIG    1       27.463 -21.781   7.394  0.00  0.00    +0.173 HD
ENDROOT
BRANCH   6  11
ATOM     11  C1* LIG    1       31.215 -19.560   8.362  0.00  0.00    +0.226 C 
ATOM     12  O4* LIG    1       30.852 -19.332   9.739  0.00  0.00    -0.348 OA
ATOM     13  C4* LIG    1       31.372 -18.044  10.135  0.00  0.00    +0.175 C 
ATOM     14  C3* LIG    1       31.611 -17.271   8.846  0.00  0.00    +0.150 C 
ATOM     15  C2* LIG    1       32.053 -18.368   7.906  0.00  0.00    +0.088 C 
BRANCH  14  16
ATOM     16  O3* LIG    1       32.577 -16.245   8.977  0.00  0.00    -0.389 OA
ATOM     17  H3* LIG    1       33.314 -16.415   8.364  0.00  0.00    +0.210 HD
ENDBRANCH  14  16
BRANCH  13  18
ATOM     18  C5* LIG    1       30.373 -17.368  11.070  0.00  0.00    +0.190 C 
BRANCH  18  19
ATOM     19  O5* LIG    1       30.964 -16.198  11.635  0.00  0.00    -0.392 OA
ATOM     20  H5* LIG    1       31.195 -16.427  12.556  0.00  0.00    +0.209 HD
ENDBRANCH  18  19
ENDBRANCH  13  18
ENDBRANCH   6  11
TORSDOF 4
ENDMDL
MODEL 3
REMARK VINA RESULT:      -7.0      3.637      5.938
REMARK  Name = *****
REMARK                            x       y       z     vdW  Elec       q    Type
REMARK                         _______ _______ _______ _____ _____    ______ ____
ROOT
ATOM      1  O   LIG    1       31.275 -18.837   6.139  0.00  0.00    -0.265 OA
ATOM      2  C   LIG    1       30.309 -19.462   6.560  0.00  0.00    +0.289 C 
ATOM      3  C   LIG    1       28.954 -19.308   6.006  0.00  0.00    +0.204 C 
ATOM      4  F   LIG    1       28.780 -18.420   5.010  0.00  0.00    -0.198 F 
ATOM      5  C   LIG    1       27.953 -20.042   6.489  0.00  0.00    +0.137 C 
ATOM      6  N   LIG    1       28.140 -20.954   7.513  0.00  0.00    -0.271 N 
ATOM      7  C   LIG    1       29.387 -21.116   8.117  0.00  0.00    +0.332 C 
ATOM      8  O   LIG    1       29.597 -21.874   9.058  0.00  0.00    -0.246 OA
ATOM      9  N   LIG    1       30.408 -20.358   7.592  0.00  0.00    -0.273 N 
ATOM     10  H   LIG    1       31.321 -20.483   8.001  0.00  0.00    +0.173 HD
ENDROOT
BRANCH   6  11
ATOM     11  C1* LIG    1       27.044 -21.773   8.030  0.00  0.00    +0.226 C 
ATOM     12  O4* LIG    1       26.517 -22.613   6.983  0.00  0.00    -0.348 OA
ATOM     13  C4* LIG    1       25.112 -22.316   6.830  0.00  0.00    +0.175 C 
ATOM     14  C3* LIG    1       24.905 -20.936   7.437  0.00  0.00    +0.150 C 
ATOM     15  C2* LIG    1       25.884 -20.955   8.588  0.00  0.00    +0.088 C 
BRANCH  14  16
ATOM     16  O3* LIG    1       23.574 -20.701   7.857  0.00  0.00    -0.389 OA
ATOM     17  H3* LIG    1       23.582 -20.285   8.738  0.00  0.00    +0.210 HD
ENDBRANCH  14  16
BRANCH  13  18
ATOM     18  C5* LIG    1       24.743 -22.390   5.352  0.00  0.00    +0.190 C 
BRANCH  18  19
ATOM     19  O5* LIG    1       23.451 -21.817   5.152  0.00  0.00    -0.392 OA
ATOM     20  H5* LIG    1       23.290 -21.235   5.920  0.00  0.00    +0.209 HD
ENDBRANCH  18  19
ENDBRANCH  13  18
ENDBRANCH   6  11
TORSDOF 4
ENDMDL
MODEL 4
REMARK VINA RESULT:      -6.9      2.577      5.501
REMARK  Name = *****
REMARK                            x       y       z     vdW  Elec       q    Type
REMARK                         _______ _______ _______ _____ _____    ______ ____
ROOT
ATOM      1  O   LIG    1       28.773 -18.798   5.273  0.00  0.00    -0.265 OA
ATOM      2  C   LIG    1       28.048 -19.615   5.828  0.00  0.00    +0.289 C 
ATOM      3  C   LIG    1       26.709 -19.968   5.324  0.00  0.00    +0.204 C 
ATOM      4  F   LIG    1       26.269 -19.340   4.219  0.00  0.00    -0.198 F 
ATOM      5  C   LIG    1       25.984 -20.888   5.957  0.00  0.00    +0.137 C 
ATOM      6  N   LIG    1       26.446 -21.532   7.092  0.00  0.00    -0.271 N 
ATOM      7  C   LIG    1       27.683 -21.212   7.652  0.00  0.00    +0.332 C 
ATOM      8  O   LIG    1       28.118 -21.716   8.682  0.00  0.00    -0.246 OA
ATOM      9  N   LIG    1       28.419 -20.269   6.973  0.00  0.00    -0.273 N 
ATOM     10  H   LIG    1       29.327 -20.046   7.351  0.00  0.00    +0.173 HD
ENDROOT
BRANCH   6  11
ATOM     11  C1* LIG    1       25.657 -22.556   7.776  0.00  0.00    +0.226 C 
ATOM     12  O4* LIG    1       26.030 -23.866   7.303  0.00  0.00    -0.348 OA
ATOM     13  C4* LIG    1       24.850 -24.505   6.767  0.00  0.00    +0.175 C 
ATOM     14  C3* LIG    1       23.870 -23.384   6.452  0.00  0.00    +0.150 C 
ATOM     15  C2* LIG    1       24.153 -22.405   7.568  0.00  0.00    +0.088 C 
BRANCH  14  16
ATOM     16  O3* LIG    1       22.520 -23.807   6.428  0.00  0.00    -0.389 OA
ATOM     17  H3* LIG    1       22.078 -23.435   5.644  0.00  0.00    +0.210 HD
ENDBRANCH  14  16
BRANCH  13  18
ATOM     18  C5* LIG    1       25.240 -25.330   5.544  0.00  0.00    +0.190 C 
BRANCH  18  19
ATOM     19  O5* LIG    1       24.732 -24.706   4.365  0.00  0.00    -0.392 OA
ATOM     20  H5* LIG    1       23.759 -24.753   4.429  0.00  0.00    +0.209 HD
ENDBRANCH  18  19
ENDBRANCH  13  18
ENDBRANCH   6  11
TORSDOF 4
ENDMDL
MODEL 5
REMARK VINA RESULT:      -6.9      3.473      4.964
REMARK  Name = *****
REMARK                            x       y       z     vdW  Elec       q    Type
REMARK                         _______ _______ _______ _____ _____    ______ ____
ROOT
ATOM      1  O   LIG    1       23.502 -21.323   7.819  0.00  0.00    -0.265 OA
ATOM      2  C   LIG    1       24.653 -21.078   7.476  0.00  0.00    +0.289 C 
ATOM      3  C   LIG    1       25.810 -21.278   8.364  0.00  0.00    +0.204 C 
ATOM      4  F   LIG    1       25.576 -21.728   9.610  0.00  0.00    -0.198 F 
ATOM      5  C   LIG    1       27.039 -21.022   7.918  0.00  0.00    +0.137 C 
ATOM      6  N   LIG    1       27.272 -20.561   6.634  0.00  0.00    -0.271 N 
ATOM      7  C   LIG    1       26.219 -20.304   5.757  0.00  0.00    +0.332 C 
ATOM      8  O   LIG    1       26.367 -19.850   4.627  0.00  0.00    -0.246 OA
ATOM      9  N   LIG    1       24.961 -20.589   6.234  0.00  0.00    -0.273 N 
ATOM     10  H   LIG    1       24.191 -20.432   5.602  0.00  0.00    +0.173 HD
ENDROOT
BRANCH   6  11
ATOM     11  C1* LIG    1       28.623 -20.298   6.140  0.00  0.00    +0.226 C 
ATOM     12  O4* LIG    1       29.573 -21.142   6.823  0.00  0.00    -0.348 OA
ATOM     13  C4* LIG    1       30.546 -20.292   7.470  0.00  0.00    +0.175 C 
ATOM     14  C3* LIG    1       29.891 -18.925   7.601  0.00  0.00    +0.150 C 
ATOM     15  C2* LIG    1       29.072 -18.853   6.334  0.00  0.00    +0.088 C 
BRANCH  14  16
ATOM     16  O3* LIG    1       30.822 -17.863   7.708  0.00  0.00    -0.389 OA
ATOM     17  H3* LIG    1       31.124 -17.607   6.818  0.00  0.00    +0.210 HD
ENDBRANCH  14  16
BRANCH  13  18
ATOM     18  C5* LIG    1       30.935 -20.908   8.811  0.00  0.00    +0.190 C 
BRANCH  18  19
ATOM     19  O5* LIG    1       32.061 -20.214   9.347  0.00  0.00    -0.392 OA
ATOM     20  H5* LIG    1       32.613 -19.958   8.583  0.00  0.00    +0.209 HD
ENDBRANCH  18  19
ENDBRANCH  13  18
ENDBRANCH   6  11
TORSDOF 4
ENDMDL
MODEL 6
REMARK VINA RESULT:      -6.8      3.044      5.824
REMARK  Name = *****
REMARK                            x       y       z     vdW  Elec       q    Type
REMARK                         _______ _______ _______ _____ _____    ______ ____
ROOT
ATOM      1  O   LIG    1       25.893 -18.118   2.840  0.00  0.00    -0.265 OA
ATOM      2  C   LIG    1       25.654 -18.909   3.745  0.00  0.00    +0.289 C 
ATOM      3  C   LIG    1       24.303 -19.427   4.018  0.00  0.00    +0.204 C 
ATOM      4  F   LIG    1       23.294 -18.986   3.246  0.00  0.00    -0.198 F 
ATOM      5  C   LIG    1       24.117 -20.309   4.999  0.00  0.00    +0.137 C 
ATOM      6  N   LIG    1       25.162 -20.759   5.788  0.00  0.00    -0.271 N 
ATOM      7  C   LIG    1       26.458 -20.273   5.616  0.00  0.00    +0.332 C 
ATOM      8  O   LIG    1       27.409 -20.602   6.318  0.00  0.00    -0.246 OA
ATOM      9  N   LIG    1       26.628 -19.375   4.589  0.00  0.00    -0.273 N 
ATOM     10  H   LIG    1       27.564 -19.034   4.436  0.00  0.00    +0.173 HD
ENDROOT
BRANCH   6  11
ATOM     11  C1* LIG    1       24.959 -21.742   6.852  0.00  0.00    +0.226 C 
ATOM     12  O4* LIG    1       25.562 -23.000   6.485  0.00  0.00    -0.348 OA
ATOM     13  C4* LIG    1       24.532 -24.013   6.499  0.00  0.00    +0.175 C 
ATOM     14  C3* LIG    1       23.209 -23.272   6.378  0.00  0.00    +0.150 C 
ATOM     15  C2* LIG    1       23.490 -22.011   7.161  0.00  0.00    +0.088 C 
BRANCH  14  16
ATOM     16  O3* LIG    1       22.108 -23.998   6.892  0.00  0.00    -0.389 OA
ATOM     17  H3* LIG    1       21.287 -23.674   6.481  0.00  0.00    +0.210 HD
ENDBRANCH  14  16
BRANCH  13  18
ATOM     18  C5* LIG    1       24.783 -24.996   5.359  0.00  0.00    +0.190 C 
BRANCH  18  19
ATOM     19  O5* LIG    1       23.720 -25.947   5.305  0.00  0.00    -0.392 OA
ATOM     20  H5* LIG    1       23.195 -25.815   6.118  0.00  0.00    +0.209 HD
ENDBRANCH  18  19
ENDBRANCH  13  18
ENDBRANCH   6  11
TORSDOF 4
ENDMDL
MODEL 7
REMARK VINA RESULT:      -6.7      3.174      5.711
REMARK  Name = *****
REMARK                            x       y       z     vdW  Elec       q    Type
REMARK                         _______ _______ _______ _____ _____    ______ ____
ROOT
ATOM      1  O   LIG    1       30.868 -19.696   6.834  0.00  0.00    -0.265 OA
ATOM      2  C   LIG    1       29.663 -19.916   6.824  0.00  0.00    +0.289 C 
ATOM      3  C   LIG    1       28.762 -19.386   5.787  0.00  0.00    +0.204 C 
ATOM      4  F   LIG    1       29.296 -18.609   4.829  0.00  0.00    -0.198 F 
ATOM      5  C   LIG    1       27.465 -19.690   5.817  0.00  0.00    +0.137 C 
ATOM      6  N   LIG    1       26.924 -20.493   6.806  0.00  0.00    -0.271 N 
ATOM      7  C   LIG    1       27.710 -20.989   7.846  0.00  0.00    +0.332 C 
ATOM      8  O   LIG    1       27.272 -21.664   8.772  0.00  0.00    -0.246 OA
ATOM      9  N   LIG    1       29.047 -20.674   7.786  0.00  0.00    -0.273 N 
ATOM     10  H   LIG    1       29.633 -21.046   8.517  0.00  0.00    +0.173 HD
ENDROOT
BRANCH   6  11
ATOM     11  C1* LIG    1       25.503 -20.842   6.828  0.00  0.00    +0.226 C 
ATOM     12  O4* LIG    1       25.345 -22.261   7.032  0.00  0.00    -0.348 OA
ATOM     13  C4* LIG    1       24.601 -22.797   5.916  0.00  0.00    +0.175 C 
ATOM     14  C3* LIG    1       24.752 -21.789   4.786  0.00  0.00    +0.150 C 
ATOM     15  C2* LIG    1       24.768 -20.480   5.541  0.00  0.00    +0.088 C 
BRANCH  14  16
ATOM     16  O3* LIG    1       23.709 -21.854   3.831  0.00  0.00    -0.389 OA
ATOM     17  H3* LIG    1       23.694 -21.030   3.313  0.00  0.00    +0.210 HD
ENDBRANCH  14  16
BRANCH  13  18
ATOM     18  C5* LIG    1       25.146 -24.180   5.571  0.00  0.00    +0.190 C 
BRANCH  18  19
ATOM     19  O5* LIG    1       24.717 -24.549   4.260  0.00  0.00    -0.392 OA
ATOM     20  H5* LIG    1       23.857 -24.108   4.121  0.00  0.00    +0.209 HD
ENDBRANCH  18  19
ENDBRANCH  13  18
ENDBRANCH   6  11
TORSDOF 4
ENDMDL
MODEL 8
REMARK VINA RESULT:      -6.6      4.865      7.269
REMARK  Name = *****
REMARK                            x       y       z     vdW  Elec       q    Type
REMARK                         _______ _______ _______ _____ _____    ______ ____
ROOT
ATOM      1  O   LIG    1       32.487 -17.636   9.847  0.00  0.00    -0.265 OA
ATOM      2  C   LIG    1       31.676 -18.421   9.370  0.00  0.00    +0.289 C 
ATOM      3  C   LIG    1       30.338 -18.009   8.913  0.00  0.00    +0.204 C 
ATOM      4  F   LIG    1       29.997 -16.716   9.054  0.00  0.00    -0.198 F 
ATOM      5  C   LIG    1       29.516 -18.909   8.375  0.00  0.00    +0.137 C 
ATOM      6  N   LIG    1       29.875 -20.238   8.232  0.00  0.00    -0.271 N 
ATOM      7  C   LIG    1       31.107 -20.705   8.688  0.00  0.00    +0.332 C 
ATOM      8  O   LIG    1       31.456 -21.881   8.630  0.00  0.00    -0.246 OA
ATOM      9  N   LIG    1       31.944 -19.757   9.227  0.00  0.00    -0.273 N 
ATOM     10  H   LIG    1       32.849 -20.076   9.537  0.00  0.00    +0.173 HD
ENDROOT
BRANCH   6  11
ATOM     11  C1* LIG    1       28.979 -21.220   7.624  0.00  0.00    +0.226 C 
ATOM     12  O4* LIG    1       28.720 -20.870   6.248  0.00  0.00    -0.348 OA
ATOM     13  C4* LIG    1       27.294 -20.708   6.085  0.00  0.00    +0.175 C 
ATOM     14  C3* LIG    1       26.736 -20.461   7.479  0.00  0.00    +0.150 C 
ATOM     15  C2* LIG    1       27.630 -21.333   8.328  0.00  0.00    +0.088 C 
BRANCH  14  16
ATOM     16  O3* LIG    1       25.367 -20.800   7.604  0.00  0.00    -0.389 OA
ATOM     17  H3* LIG    1       24.986 -20.327   8.365  0.00  0.00    +0.210 HD
ENDBRANCH  14  16
BRANCH  13  18
ATOM     18  C5* LIG    1       27.030 -19.560   5.114  0.00  0.00    +0.190 C 
BRANCH  18  19
ATOM     19  O5* LIG    1       26.204 -20.020   4.045  0.00  0.00    -0.392 OA
ATOM     20  H5* LIG    1       25.722 -19.237   3.716  0.00  0.00    +0.209 HD
ENDBRANCH  18  19
ENDBRANCH  13  18
ENDBRANCH   6  11
TORSDOF 4
ENDMDL
MODEL 9
REMARK VINA RESULT:      -6.6      2.175      5.389
REMARK  Name = *****
REMARK                            x       y       z     vdW  Elec       q    Type
REMARK                         _______ _______ _______ _____ _____    ______ ____
ROOT
ATOM      1  O   LIG    1       24.892 -20.522   8.248  0.00  0.00    -0.265 OA
ATOM      2  C   LIG    1       24.797 -21.598   7.670  0.00  0.00    +0.289 C 
ATOM      3  C   LIG    1       25.963 -22.334   7.152  0.00  0.00    +0.204 C 
ATOM      4  F   LIG    1       27.177 -21.775   7.308  0.00  0.00    -0.198 F 
ATOM      5  C   LIG    1       25.793 -23.515   6.561  0.00  0.00    +0.137 C 
ATOM      6  N   LIG    1       24.540 -24.083   6.406  0.00  0.00    -0.271 N 
ATOM      7  C   LIG    1       23.389 -23.420   6.829  0.00  0.00    +0.332 C 
ATOM      8  O   LIG    1       22.253 -23.856   6.673  0.00  0.00    -0.246 OA
ATOM      9  N   LIG    1       23.590 -22.209   7.449  0.00  0.00    -0.273 N 
ATOM     10  H   LIG    1       22.769 -21.729   7.783  0.00  0.00    +0.173 HD
ENDROOT
BRANCH   6  11
ATOM     11  C1* LIG    1       24.356 -25.389   5.774  0.00  0.00    +0.226 C 
ATOM     12  O4* LIG    1       24.354 -26.428   6.774  0.00  0.00    -0.348 OA
ATOM     13  C4* LIG    1       25.414 -27.358   6.460  0.00  0.00    +0.175 C 
ATOM     14  C3* LIG    1       26.381 -26.606   5.558  0.00  0.00    +0.150 C 
ATOM     15  C2* LIG    1       25.443 -25.732   4.759  0.00  0.00    +0.088 C 
BRANCH  14  16
ATOM     16  O3* LIG    1       27.164 -27.456   4.740  0.00  0.00    -0.389 OA
ATOM     17  H3* LIG    1       28.068 -27.100   4.677  0.00  0.00    +0.210 HD
ENDBRANCH  14  16
BRANCH  13  18
ATOM     18  C5* LIG    1       26.050 -27.848   7.757  0.00  0.00    +0.190 C 
BRANCH  18  19
ATOM     19  O5* LIG    1       25.790 -29.242   7.921  0.00  0.00    -0.392 OA
ATOM     20  H5* LIG    1       25.962 -29.442   8.861  0.00  0.00    +0.209 HD
ENDBRANCH  18  19
ENDBRANCH  13  18
ENDBRANCH   6  11
TORSDOF 4
ENDMDL
