MODEL 1
REMARK VINA RESULT:      -8.0      0.000      0.000
REMARK  Name = *****
REMARK                            x       y       z     vdW  Elec       q    Type
REMARK                         _______ _______ _______ _____ _____    ______ ____
ROOT
ATOM      1  C   LIG    1       26.153 -20.632   8.373  0.00  0.00    +0.341 C 
ATOM      2  O   LIG    1       25.959 -20.868   9.562  0.00  0.00    -0.247 OA
ENDROOT
BRANCH   1   3
ATOM      3  O   LIG    1       27.276 -20.064   7.848  0.00  0.00    -0.459 OA
BRANCH   3  11
ATOM      4  C   LIG    1       28.664 -18.416   5.491  0.00  0.00    +0.007 C 
ATOM      5  C   LIG    1       29.585 -19.607   5.756  0.00  0.00    -0.010 C 
ATOM      6  C   LIG    1       30.710 -19.308   6.758  0.00  0.00    +0.010 C 
ATOM      7  C   LIG    1       30.339 -19.377   8.257  0.00  0.00    -0.031 C 
ATOM      8  C   LIG    1       31.656 -19.431   9.069  0.00  0.00    +0.011 C 
ATOM      9  C   LIG    1       29.594 -18.114   8.724  0.00  0.00    +0.011 C 
ATOM     10  C   LIG    1       29.526 -20.658   8.559  0.00  0.00    +0.051 C 
ATOM     11  C   LIG    1       28.372 -20.960   7.590  0.00  0.00    +0.177 C 
ATOM     12  C   LIG    1       28.823 -20.885   6.128  0.00  0.00    +0.048 C 
ENDBRANCH   3  11
ENDBRANCH   1   3
BRANCH   1  13
ATOM     13  C   LIG    1       25.109 -20.925   7.285  0.00  0.00    +0.253 C 
BRANCH  13  14
ATOM     14  C   LIG    1       24.891 -22.400   7.044  0.00  0.00    -0.008 A 
ATOM     15  C   LIG    1       25.987 -23.266   6.921  0.00  0.00    +0.007 A 
ATOM     16  C   LIG    1       25.795 -24.623   6.656  0.00  0.00    +0.000 A 
ATOM     17  C   LIG    1       24.505 -25.132   6.510  0.00  0.00    +0.000 A 
ATOM     18  C   LIG    1       23.407 -24.285   6.632  0.00  0.00    +0.000 A 
ATOM     19  C   LIG    1       23.597 -22.928   6.900  0.00  0.00    +0.007 A 
ENDBRANCH  13  14
BRANCH  13  20
ATOM     20  O   LIG    1       23.846 -20.341   7.620  0.00  0.00    -0.376 OA
ATOM     21  H   LIG    1       23.293 -20.417   6.819  0.00  0.00    +0.211 HD
ENDBRANCH  13  20
ENDBRANCH   1  13
TORSDOF 5
ENDMDL
MODEL 2
REMARK VINA RESULT:      -7.9      1.496      6.615
REMARK  Name = *****
REMARK                            x       y       z     vdW  Elec       q    Type
REMARK                         _______ _______ _______ _____ _____    ______ ____
ROOT
ATOM      1  C   LIG    1       27.645 -21.087   7.416  0.00  0.00    +0.341 C 
ATOM      2  O   LIG    1       28.312 -21.703   8.242  0.00  0.00    -0.247 OA
ENDROOT
BRANCH   1   3
ATOM      3  O   LIG    1       26.381 -21.408   7.015  0.00  0.00    -0.459 OA
BRANCH   3  11
ATOM      4  C   LIG    1       23.525 -20.451   5.955  0.00  0.00    +0.007 C 
ATOM      5  C   LIG    1       23.233 -21.419   7.102  0.00  0.00    -0.010 C 
ATOM      6  C   LIG    1       23.023 -22.871   6.648  0.00  0.00    +0.010 C 
ATOM      7  C   LIG    1       24.297 -23.707   6.387  0.00  0.00    -0.031 C 
ATOM      8  C   LIG    1       23.881 -25.197   6.326  0.00  0.00    +0.011 C 
ATOM      9  C   LIG    1       24.932 -23.378   5.024  0.00  0.00    +0.011 C 
ATOM     10  C   LIG    1       25.311 -23.529   7.542  0.00  0.00    +0.051 C 
ATOM     11  C   LIG    1       25.565 -22.082   7.991  0.00  0.00    +0.177 C 
ATOM     12  C   LIG    1       24.256 -21.326   8.241  0.00  0.00    +0.048 C 
ENDBRANCH   3  11
ENDBRANCH   1   3
BRANCH   1  13
ATOM     13  C   LIG    1       28.173 -19.850   6.675  0.00  0.00    +0.253 C 
BRANCH  13  14
ATOM     14  C   LIG    1       29.412 -19.258   7.304  0.00  0.00    -0.008 A 
ATOM     15  C   LIG    1       30.674 -19.493   6.739  0.00  0.00    +0.007 A 
ATOM     16  C   LIG    1       31.827 -18.983   7.339  0.00  0.00    +0.000 A 
ATOM     17  C   LIG    1       31.734 -18.233   8.510  0.00  0.00    +0.000 A 
ATOM     18  C   LIG    1       30.488 -17.988   9.080  0.00  0.00    +0.000 A 
ATOM     19  C   LIG    1       29.333 -18.494   8.481  0.00  0.00    +0.007 A 
ENDBRANCH  13  14
BRANCH  13  20
ATOM     20  O   LIG    1       28.477 -20.163   5.312  0.00  0.00    -0.376 OA
ATOM     21  H   LIG    1       29.242 -20.768   5.337  0.00  0.00    +0.211 HD
ENDBRANCH  13  20
ENDBRANCH   1  13
TORSDOF 5
ENDMDL
MODEL 3
REMARK VINA RESULT:      -7.9      1.557      6.137
REMARK  Name = *****
REMARK                            x       y       z     vdW  Elec       q    Type
REMARK                         _______ _______ _______ _____ _____    ______ ____
ROOT
ATOM      1  C   LIG    1       26.129 -20.625   8.251  0.00  0.00    +0.341 C 
ATOM      2  O   LIG    1       25.886 -20.435   9.440  0.00  0.00    -0.247 OA
ENDROOT
BRANCH   1   3
ATOM      3  O   LIG    1       25.286 -20.351   7.214  0.00  0.00    -0.459 OA
BRANCH   3  11
ATOM      4  C   LIG    1       24.321 -20.442   4.172  0.00  0.00    +0.007 C 
ATOM      5  C   LIG    1       23.091 -20.807   5.003  0.00  0.00    -0.010 C 
ATOM      6  C   LIG    1       22.909 -22.318   5.207  0.00  0.00    +0.010 C 
ATOM      7  C   LIG    1       23.748 -22.972   6.329  0.00  0.00    -0.031 C 
ATOM      8  C   LIG    1       23.144 -24.368   6.619  0.00  0.00    +0.011 C 
ATOM      9  C   LIG    1       25.204 -23.213   5.892  0.00  0.00    +0.011 C 
ATOM     10  C   LIG    1       23.677 -22.130   7.624  0.00  0.00    +0.051 C 
ATOM     11  C   LIG    1       23.892 -20.619   7.451  0.00  0.00    +0.177 C 
ATOM     12  C   LIG    1       23.016 -20.044   6.332  0.00  0.00    +0.048 C 
ENDBRANCH   3  11
ENDBRANCH   1   3
BRANCH   1  13
ATOM     13  C   LIG    1       27.444 -21.246   7.760  0.00  0.00    +0.253 C 
BRANCH  13  14
ATOM     14  C   LIG    1       28.389 -20.242   7.143  0.00  0.00    -0.008 A 
ATOM     15  C   LIG    1       29.491 -19.769   7.870  0.00  0.00    +0.007 A 
ATOM     16  C   LIG    1       30.345 -18.809   7.322  0.00  0.00    +0.000 A 
ATOM     17  C   LIG    1       30.108 -18.311   6.042  0.00  0.00    +0.000 A 
ATOM     18  C   LIG    1       29.020 -18.774   5.307  0.00  0.00    +0.000 A 
ATOM     19  C   LIG    1       28.166 -19.735   5.852  0.00  0.00    +0.007 A 
ENDBRANCH  13  14
BRANCH  13  20
ATOM     20  O   LIG    1       28.131 -21.899   8.831  0.00  0.00    -0.376 OA
ATOM     21  H   LIG    1       28.722 -21.228   9.222  0.00  0.00    +0.211 HD
ENDBRANCH  13  20
ENDBRANCH   1  13
TORSDOF 5
ENDMDL
MODEL 4
REMARK VINA RESULT:      -7.8      1.769      2.770
REMARK  Name = *****
REMARK                            x       y       z     vdW  Elec       q    Type
REMARK                         _______ _______ _______ _____ _____    ______ ____
ROOT
ATOM      1  C   LIG    1       26.251 -20.644   8.143  0.00  0.00    +0.341 C 
ATOM      2  O   LIG    1       25.992 -20.491   9.333  0.00  0.00    -0.247 OA
ENDROOT
BRANCH   1   3
ATOM      3  O   LIG    1       27.289 -20.064   7.475  0.00  0.00    -0.459 OA
BRANCH   3  11
ATOM      4  C   LIG    1       28.856 -18.104   5.499  0.00  0.00    +0.007 C 
ATOM      5  C   LIG    1       29.753 -19.332   5.655  0.00  0.00    -0.010 C 
ATOM      6  C   LIG    1       30.797 -19.197   6.773  0.00  0.00    +0.010 C 
ATOM      7  C   LIG    1       30.312 -19.481   8.213  0.00  0.00    -0.031 C 
ATOM      8  C   LIG    1       31.563 -19.669   9.106  0.00  0.00    +0.011 C 
ATOM      9  C   LIG    1       29.534 -18.292   8.804  0.00  0.00    +0.011 C 
ATOM     10  C   LIG    1       29.478 -20.782   8.260  0.00  0.00    +0.051 C 
ATOM     11  C   LIG    1       28.402 -20.925   7.172  0.00  0.00    +0.177 C 
ATOM     12  C   LIG    1       28.964 -20.641   5.775  0.00  0.00    +0.048 C 
ENDBRANCH   3  11
ENDBRANCH   1   3
BRANCH   1  13
ATOM     13  C   LIG    1       25.394 -21.510   7.209  0.00  0.00    +0.253 C 
BRANCH  13  14
ATOM     14  C   LIG    1       24.681 -20.716   6.140  0.00  0.00    -0.008 A 
ATOM     15  C   LIG    1       23.331 -20.368   6.299  0.00  0.00    +0.007 A 
ATOM     16  C   LIG    1       22.654 -19.671   5.297  0.00  0.00    +0.000 A 
ATOM     17  C   LIG    1       23.316 -19.313   4.124  0.00  0.00    +0.000 A 
ATOM     18  C   LIG    1       24.656 -19.647   3.953  0.00  0.00    +0.000 A 
ATOM     19  C   LIG    1       25.336 -20.343   4.955  0.00  0.00    +0.007 A 
ENDBRANCH  13  14
BRANCH  13  20
ATOM     20  O   LIG    1       26.192 -22.505   6.561  0.00  0.00    -0.376 OA
ATOM     21  H   LIG    1       25.868 -23.366   6.887  0.00  0.00    +0.211 HD
ENDBRANCH  13  20
ENDBRANCH   1  13
TORSDOF 5
ENDMDL
MODEL 5
REMARK VINA RESULT:      -7.7      3.304      5.713
REMARK  Name = *****
REMARK                            x       y       z     vdW  Elec       q    Type
REMARK                         _______ _______ _______ _____ _____    ______ ____
ROOT
ATOM      1  C   LIG    1       25.565 -25.174   5.614  0.00  0.00    +0.341 C 
ATOM      2  O   LIG    1       24.738 -25.382   4.730  0.00  0.00    -0.247 OA
ENDROOT
BRANCH   1   3
ATOM      3  O   LIG    1       25.861 -23.957   6.154  0.00  0.00    -0.459 OA
BRANCH   3  11
ATOM      4  C   LIG    1       27.534 -21.384   7.037  0.00  0.00    +0.007 C 
ATOM      5  C   LIG    1       26.285 -21.383   7.919  0.00  0.00    -0.010 C 
ATOM      6  C   LIG    1       25.125 -20.554   7.348  0.00  0.00    +0.010 C 
ATOM      7  C   LIG    1       24.252 -21.234   6.269  0.00  0.00    -0.031 C 
ATOM      8  C   LIG    1       22.952 -20.406   6.121  0.00  0.00    +0.011 C 
ATOM      9  C   LIG    1       24.932 -21.223   4.888  0.00  0.00    +0.011 C 
ATOM     10  C   LIG    1       23.870 -22.669   6.701  0.00  0.00    +0.051 C 
ATOM     11  C   LIG    1       25.021 -23.531   7.243  0.00  0.00    +0.177 C 
ATOM     12  C   LIG    1       25.829 -22.793   8.315  0.00  0.00    +0.048 C 
ENDBRANCH   3  11
ENDBRANCH   1   3
BRANCH   1  13
ATOM     13  C   LIG    1       26.426 -26.288   6.227  0.00  0.00    +0.253 C 
BRANCH  13  14
ATOM     14  C   LIG    1       25.633 -27.510   6.626  0.00  0.00    -0.008 A 
ATOM     15  C   LIG    1       25.809 -28.085   7.893  0.00  0.00    +0.007 A 
ATOM     16  C   LIG    1       25.110 -29.239   8.254  0.00  0.00    +0.000 A 
ATOM     17  C   LIG    1       24.228 -29.833   7.352  0.00  0.00    +0.000 A 
ATOM     18  C   LIG    1       24.040 -29.271   6.093  0.00  0.00    +0.000 A 
ATOM     19  C   LIG    1       24.736 -28.116   5.731  0.00  0.00    +0.007 A 
ENDBRANCH  13  14
BRANCH  13  20
ATOM     20  O   LIG    1       27.448 -26.703   5.316  0.00  0.00    -0.376 OA
ATOM     21  H   LIG    1       27.061 -26.625   4.423  0.00  0.00    +0.211 HD
ENDBRANCH  13  20
ENDBRANCH   1  13
TORSDOF 5
ENDMDL
MODEL 6
REMARK VINA RESULT:      -7.2      3.594      5.734
REMARK  Name = *****
REMARK                            x       y       z     vdW  Elec       q    Type
REMARK                         _______ _______ _______ _____ _____    ______ ____
ROOT
ATOM      1  C   LIG    1       25.517 -24.043   6.336  0.00  0.00    +0.341 C 
ATOM      2  O   LIG    1       25.916 -24.051   7.497  0.00  0.00    -0.247 OA
ENDROOT
BRANCH   1   3
ATOM      3  O   LIG    1       24.885 -23.003   5.720  0.00  0.00    -0.459 OA
BRANCH   3  11
ATOM      4  C   LIG    1       25.468 -20.675   7.827  0.00  0.00    +0.007 C 
ATOM      5  C   LIG    1       23.945 -20.801   7.765  0.00  0.00    -0.010 C 
ATOM      6  C   LIG    1       23.287 -19.852   6.753  0.00  0.00    +0.010 C 
ATOM      7  C   LIG    1       23.293 -20.304   5.274  0.00  0.00    -0.031 C 
ATOM      8  C   LIG    1       22.271 -19.429   4.508  0.00  0.00    +0.011 C 
ATOM      9  C   LIG    1       24.657 -20.062   4.605  0.00  0.00    +0.011 C 
ATOM     10  C   LIG    1       22.857 -21.783   5.154  0.00  0.00    +0.051 C 
ATOM     11  C   LIG    1       23.528 -22.758   6.134  0.00  0.00    +0.177 C 
ATOM     12  C   LIG    1       23.469 -22.247   7.577  0.00  0.00    +0.048 C 
ENDBRANCH   3  11
ENDBRANCH   1   3
BRANCH   1  13
ATOM     13  C   LIG    1       25.649 -25.255   5.402  0.00  0.00    +0.253 C 
BRANCH  13  14
ATOM     14  C   LIG    1       25.334 -26.569   6.076  0.00  0.00    -0.008 A 
ATOM     15  C   LIG    1       26.062 -26.979   7.203  0.00  0.00    +0.007 A 
ATOM     16  C   LIG    1       25.805 -28.212   7.806  0.00  0.00    +0.000 A 
ATOM     17  C   LIG    1       24.818 -29.051   7.290  0.00  0.00    +0.000 A 
ATOM     18  C   LIG    1       24.085 -28.656   6.175  0.00  0.00    +0.000 A 
ATOM     19  C   LIG    1       24.338 -27.423   5.572  0.00  0.00    +0.007 A 
ENDBRANCH  13  14
BRANCH  13  20
ATOM     20  O   LIG    1       24.787 -25.122   4.269  0.00  0.00    -0.376 OA
ATOM     21  H   LIG    1       25.207 -24.462   3.685  0.00  0.00    +0.211 HD
ENDBRANCH  13  20
ENDBRANCH   1  13
TORSDOF 5
ENDMDL
MODEL 7
REMARK VINA RESULT:      -7.1      2.041      2.419
REMARK  Name = *****
REMARK                            x       y       z     vdW  Elec       q    Type
REMARK                         _______ _______ _______ _____ _____    ______ ____
ROOT
ATOM      1  C   LIG    1       27.474 -21.094   7.996  0.00  0.00    +0.341 C 
ATOM      2  O   LIG    1       27.700 -22.190   7.491  0.00  0.00    -0.247 OA
ENDROOT
BRANCH   1   3
ATOM      3  O   LIG    1       28.417 -20.198   8.405  0.00  0.00    -0.459 OA
BRANCH   3  11
ATOM      4  C   LIG    1       29.419 -18.394   5.968  0.00  0.00    +0.007 C 
ATOM      5  C   LIG    1       30.659 -19.139   6.464  0.00  0.00    -0.010 C 
ATOM      6  C   LIG    1       31.475 -18.358   7.503  0.00  0.00    +0.010 C 
ATOM      7  C   LIG    1       30.971 -18.412   8.964  0.00  0.00    -0.031 C 
ATOM      8  C   LIG    1       32.113 -17.907   9.879  0.00  0.00    +0.011 C 
ATOM      9  C   LIG    1       29.780 -17.466   9.197  0.00  0.00    +0.011 C 
ATOM     10  C   LIG    1       30.627 -19.865   9.368  0.00  0.00    +0.051 C 
ATOM     11  C   LIG    1       29.781 -20.656   8.359  0.00  0.00    +0.177 C 
ATOM     12  C   LIG    1       30.353 -20.564   6.940  0.00  0.00    +0.048 C 
ENDBRANCH   3  11
ENDBRANCH   1   3
BRANCH   1  13
ATOM     13  C   LIG    1       26.053 -20.582   8.274  0.00  0.00    +0.253 C 
BRANCH  13  14
ATOM     14  C   LIG    1       25.154 -20.618   7.061  0.00  0.00    -0.008 A 
ATOM     15  C   LIG    1       25.687 -20.420   5.779  0.00  0.00    +0.007 A 
ATOM     16  C   LIG    1       24.857 -20.410   4.657  0.00  0.00    +0.000 A 
ATOM     17  C   LIG    1       23.483 -20.597   4.802  0.00  0.00    +0.000 A 
ATOM     18  C   LIG    1       22.939 -20.799   6.067  0.00  0.00    +0.000 A 
ATOM     19  C   LIG    1       23.768 -20.811   7.190  0.00  0.00    +0.007 A 
ENDBRANCH  13  14
BRANCH  13  20
ATOM     20  O   LIG    1       25.428 -21.346   9.309  0.00  0.00    -0.376 OA
ATOM     21  H   LIG    1       25.227 -20.716  10.027  0.00  0.00    +0.211 HD
ENDBRANCH  13  20
ENDBRANCH   1  13
TORSDOF 5
ENDMDL
MODEL 8
REMARK VINA RESULT:      -7.1      3.087      5.133
REMARK  Name = *****
REMARK                            x       y       z     vdW  Elec       q    Type
REMARK                         _______ _______ _______ _____ _____    ______ ____
ROOT
ATOM      1  C   LIG    1       24.436 -24.984   6.544  0.00  0.00    +0.341 C 
ATOM      2  O   LIG    1       23.217 -25.129   6.494  0.00  0.00    -0.247 OA
ENDROOT
BRANCH   1   3
ATOM      3  O   LIG    1       25.087 -23.911   7.076  0.00  0.00    -0.459 OA
BRANCH   3  11
ATOM      4  C   LIG    1       23.111 -21.408   6.919  0.00  0.00    +0.007 C 
ATOM      5  C   LIG    1       24.327 -21.023   6.076  0.00  0.00    -0.010 C 
ATOM      6  C   LIG    1       25.400 -20.250   6.855  0.00  0.00    +0.010 C 
ATOM      7  C   LIG    1       26.375 -21.090   7.713  0.00  0.00    -0.031 C 
ATOM      8  C   LIG    1       27.576 -20.187   8.085  0.00  0.00    +0.011 C 
ATOM      9  C   LIG    1       25.737 -21.532   9.041  0.00  0.00    +0.011 C 
ATOM     10  C   LIG    1       26.904 -22.300   6.908  0.00  0.00    +0.051 C 
ATOM     11  C   LIG    1       25.844 -23.112   6.148  0.00  0.00    +0.177 C 
ATOM     12  C   LIG    1       24.928 -22.211   5.313  0.00  0.00    +0.048 C 
ENDBRANCH   3  11
ENDBRANCH   1   3
BRANCH   1  13
ATOM     13  C   LIG    1       25.420 -26.011   5.966  0.00  0.00    +0.253 C 
BRANCH  13  14
ATOM     14  C   LIG    1       25.155 -27.424   6.430  0.00  0.00    -0.008 A 
ATOM     15  C   LIG    1       24.339 -28.277   5.672  0.00  0.00    +0.007 A 
ATOM     16  C   LIG    1       24.055 -29.570   6.116  0.00  0.00    +0.000 A 
ATOM     17  C   LIG    1       24.584 -30.027   7.322  0.00  0.00    +0.000 A 
ATOM     18  C   LIG    1       25.398 -29.194   8.083  0.00  0.00    +0.000 A 
ATOM     19  C   LIG    1       25.685 -27.901   7.640  0.00  0.00    +0.007 A 
ENDBRANCH  13  14
BRANCH  13  20
ATOM     20  O   LIG    1       25.385 -26.003   4.536  0.00  0.00    -0.376 OA
ATOM     21  H   LIG    1       24.455 -25.837   4.289  0.00  0.00    +0.211 HD
ENDBRANCH  13  20
ENDBRANCH   1  13
TORSDOF 5
ENDMDL
MODEL 9
REMARK VINA RESULT:      -6.9      1.894      6.176
REMARK  Name = *****
REMARK                            x       y       z     vdW  Elec       q    Type
REMARK                         _______ _______ _______ _____ _____    ______ ____
ROOT
ATOM      1  C   LIG    1       26.165 -20.706   8.397  0.00  0.00    +0.341 C 
ATOM      2  O   LIG    1       26.040 -20.247   9.529  0.00  0.00    -0.247 OA
ENDROOT
BRANCH   1   3
ATOM      3  O   LIG    1       25.168 -20.828   7.474  0.00  0.00    -0.459 OA
BRANCH   3  11
ATOM      4  C   LIG    1       22.696 -22.749   6.848  0.00  0.00    +0.007 C 
ATOM      5  C   LIG    1       23.542 -22.741   5.574  0.00  0.00    -0.010 C 
ATOM      6  C   LIG    1       23.106 -21.685   4.549  0.00  0.00    +0.010 C 
ATOM      7  C   LIG    1       23.609 -20.242   4.783  0.00  0.00    -0.031 C 
ATOM      8  C   LIG    1       23.393 -19.447   3.472  0.00  0.00    +0.011 C 
ATOM      9  C   LIG    1       22.792 -19.517   5.868  0.00  0.00    +0.011 C 
ATOM     10  C   LIG    1       25.119 -20.238   5.114  0.00  0.00    +0.051 C 
ATOM     11  C   LIG    1       25.575 -21.263   6.164  0.00  0.00    +0.177 C 
ATOM     12  C   LIG    1       25.048 -22.668   5.854  0.00  0.00    +0.048 C 
ENDBRANCH   3  11
ENDBRANCH   1   3
BRANCH   1  13
ATOM     13  C   LIG    1       27.497 -21.254   7.864  0.00  0.00    +0.253 C 
BRANCH  13  14
ATOM     14  C   LIG    1       28.438 -20.177   7.381  0.00  0.00    -0.008 A 
ATOM     15  C   LIG    1       29.269 -19.503   8.289  0.00  0.00    +0.007 A 
ATOM     16  C   LIG    1       30.111 -18.477   7.856  0.00  0.00    +0.000 A 
ATOM     17  C   LIG    1       30.134 -18.112   6.511  0.00  0.00    +0.000 A 
ATOM     18  C   LIG    1       29.319 -18.773   5.597  0.00  0.00    +0.000 A 
ATOM     19  C   LIG    1       28.477 -19.801   6.027  0.00  0.00    +0.007 A 
ENDBRANCH  13  14
BRANCH  13  20
ATOM     20  O   LIG    1       28.175 -22.015   8.868  0.00  0.00    -0.376 OA
ATOM     21  H   LIG    1       27.987 -22.952   8.671  0.00  0.00    +0.211 HD
ENDBRANCH  13  20
ENDBRANCH   1  13
TORSDOF 5
ENDMDL
