MODEL 1
REMARK VINA RESULT:      -9.5      0.000      0.000
REMARK  Name = *****
REMARK                            x       y       z     vdW  Elec       q    Type
REMARK                         _______ _______ _______ _____ _____    ______ ____
ROOT
ATOM      1  C   LIG    1       24.982 -20.241   4.558  0.00  0.00    +0.006 A 
ATOM      2  C   LIG    1       23.981 -21.180   4.919  0.00  0.00    +0.040 A 
ATOM      3  C   LIG    1       22.649 -20.763   5.012  0.00  0.00    +0.024 A 
ATOM      4  C   LIG    1       22.256 -19.492   4.611  0.00  0.00    +0.003 A 
ATOM      5  C   LIG    1       23.199 -18.624   4.083  0.00  0.00    +0.020 A 
ATOM      6  C   LIG    1       24.548 -18.985   4.068  0.00  0.00    +0.047 A 
ATOM      7 CL   LIG    1       25.633 -17.814   3.391  0.00  0.00    -0.083 Cl
ENDROOT
BRANCH   2   8
ATOM      8  N   LIG    1       24.317 -22.529   5.166  0.00  0.00    -0.281 N 
ATOM      9  H   LIG    1       24.345 -23.133   4.345  0.00  0.00    +0.155 HD
ATOM     10  C   LIG    1       24.350 -23.147   6.429  0.00  0.00    +0.248 C 
ATOM     11  O   LIG    1       24.094 -22.624   7.509  0.00  0.00    -0.270 OA
BRANCH  10  12
ATOM     12  C   LIG    1       24.671 -24.614   6.394  0.00  0.00    +0.037 A 
ATOM     13  C   LIG    1       23.864 -25.528   5.728  0.00  0.00    +0.013 A 
ATOM     14  C   LIG    1       24.208 -26.881   5.696  0.00  0.00    +0.001 A 
ATOM     15  C   LIG    1       25.380 -27.319   6.314  0.00  0.00    +0.000 A 
ATOM     16  C   LIG    1       26.205 -26.410   6.975  0.00  0.00    +0.001 A 
ATOM     17  C   LIG    1       25.855 -25.057   7.021  0.00  0.00    +0.013 A 
ENDBRANCH  10  12
ENDBRANCH   2   8
BRANCH   1  18
ATOM     18  C   LIG    1       26.468 -20.548   4.653  0.00  0.00    +0.123 C 
BRANCH  18  20
ATOM     19  C   LIG    1       26.623 -20.353   7.029  0.00  0.00    +0.105 C 
ATOM     20  N   LIG    1       27.203 -19.875   5.763  0.00  0.00    -0.293 NA
BRANCH  20  21
ATOM     21  C   LIG    1       28.670 -20.188   5.714  0.00  0.00    +0.180 C 
BRANCH  21  22
ATOM     22  C   LIG    1       29.562 -19.033   6.248  0.00  0.00    +0.230 C 
ATOM     23  N   LIG    1       30.543 -19.299   7.201  0.00  0.00    -0.296 N 
ATOM     24  C   LIG    1       31.183 -18.181   7.912  0.00  0.00    +0.136 C 
ATOM     25  C   LIG    1       30.789 -18.223   9.399  0.00  0.00    +0.178 C 
ATOM     26  O   LIG    1       31.082 -19.504   9.992  0.00  0.00    -0.377 OA
ATOM     27  C   LIG    1       30.434 -20.572   9.281  0.00  0.00    +0.178 C 
ATOM     28  C   LIG    1       30.878 -20.586   7.815  0.00  0.00    +0.136 C 
ATOM     29  O   LIG    1       29.391 -17.882   5.830  0.00  0.00    -0.274 OA
ENDBRANCH  21  22
ENDBRANCH  20  21
ENDBRANCH  18  20
ENDBRANCH   1  18
TORSDOF 6
ENDMDL
MODEL 2
REMARK VINA RESULT:      -9.3      1.120      1.488
REMARK  Name = *****
REMARK                            x       y       z     vdW  Elec       q    Type
REMARK                         _______ _______ _______ _____ _____    ______ ____
ROOT
ATOM      1  C   LIG    1       24.770 -20.234   4.560  0.00  0.00    +0.006 A 
ATOM      2  C   LIG    1       23.806 -21.223   4.889  0.00  0.00    +0.040 A 
ATOM      3  C   LIG    1       22.452 -20.875   4.933  0.00  0.00    +0.024 A 
ATOM      4  C   LIG    1       22.009 -19.626   4.513  0.00  0.00    +0.003 A 
ATOM      5  C   LIG    1       22.924 -18.712   4.015  0.00  0.00    +0.020 A 
ATOM      6  C   LIG    1       24.290 -19.004   4.050  0.00  0.00    +0.047 A 
ATOM      7 CL   LIG    1       25.337 -17.780   3.407  0.00  0.00    -0.083 Cl
ENDROOT
BRANCH   2   8
ATOM      8  N   LIG    1       24.201 -22.552   5.153  0.00  0.00    -0.281 N 
ATOM      9  H   LIG    1       24.312 -23.149   4.335  0.00  0.00    +0.155 HD
ATOM     10  C   LIG    1       24.194 -23.173   6.416  0.00  0.00    +0.248 C 
ATOM     11  O   LIG    1       23.845 -22.670   7.479  0.00  0.00    -0.270 OA
BRANCH  10  12
ATOM     12  C   LIG    1       24.597 -24.620   6.398  0.00  0.00    +0.037 A 
ATOM     13  C   LIG    1       23.799 -25.600   5.820  0.00  0.00    +0.013 A 
ATOM     14  C   LIG    1       24.220 -26.931   5.800  0.00  0.00    +0.001 A 
ATOM     15  C   LIG    1       25.458 -27.281   6.339  0.00  0.00    +0.000 A 
ATOM     16  C   LIG    1       26.274 -26.307   6.910  0.00  0.00    +0.001 A 
ATOM     17  C   LIG    1       25.849 -24.974   6.945  0.00  0.00    +0.013 A 
ENDBRANCH  10  12
ENDBRANCH   2   8
BRANCH   1  18
ATOM     18  C   LIG    1       26.265 -20.465   4.709  0.00  0.00    +0.123 C 
BRANCH  18  20
ATOM     19  C   LIG    1       26.322 -20.280   7.090  0.00  0.00    +0.105 C 
ATOM     20  N   LIG    1       26.922 -19.763   5.849  0.00  0.00    -0.293 NA
BRANCH  20  21
ATOM     21  C   LIG    1       28.404 -19.998   5.853  0.00  0.00    +0.180 C 
BRANCH  21  22
ATOM     22  C   LIG    1       28.869 -20.967   6.976  0.00  0.00    +0.230 C 
ATOM     23  N   LIG    1       29.569 -20.471   8.073  0.00  0.00    -0.296 N 
ATOM     24  C   LIG    1       30.253 -21.407   8.980  0.00  0.00    +0.136 C 
ATOM     25  C   LIG    1       31.775 -21.212   8.869  0.00  0.00    +0.178 C 
ATOM     26  O   LIG    1       32.153 -19.838   9.094  0.00  0.00    -0.377 OA
ATOM     27  C   LIG    1       31.477 -18.952   8.187  0.00  0.00    +0.178 C 
ATOM     28  C   LIG    1       29.959 -19.084   8.343  0.00  0.00    +0.136 C 
ATOM     29  O   LIG    1       28.622 -22.175   6.886  0.00  0.00    -0.274 OA
ENDBRANCH  21  22
ENDBRANCH  20  21
ENDBRANCH  18  20
ENDBRANCH   1  18
TORSDOF 6
ENDMDL
MODEL 3
REMARK VINA RESULT:      -9.1      2.185      7.077
REMARK  Name = *****
REMARK                            x       y       z     vdW  Elec       q    Type
REMARK                         _______ _______ _______ _____ _____    ______ ____
ROOT
ATOM      1  C   LIG    1       24.696 -20.639   5.311  0.00  0.00    +0.006 A 
ATOM      2  C   LIG    1       25.938 -20.012   5.029  0.00  0.00    +0.040 A 
ATOM      3  C   LIG    1       26.031 -19.129   3.948  0.00  0.00    +0.024 A 
ATOM      4  C   LIG    1       24.905 -18.730   3.237  0.00  0.00    +0.003 A 
ATOM      5  C   LIG    1       23.658 -19.196   3.621  0.00  0.00    +0.020 A 
ATOM      6  C   LIG    1       23.552 -20.150   4.636  0.00  0.00    +0.047 A 
ATOM      7 CL   LIG    1       21.942 -20.663   5.022  0.00  0.00    -0.083 Cl
ENDROOT
BRANCH   2   8
ATOM      8  N   LIG    1       27.068 -20.257   5.838  0.00  0.00    -0.281 N 
ATOM      9  H   LIG    1       26.912 -20.869   6.638  0.00  0.00    +0.155 HD
ATOM     10  C   LIG    1       28.279 -19.543   5.792  0.00  0.00    +0.248 C 
ATOM     11  O   LIG    1       28.548 -18.601   5.053  0.00  0.00    -0.270 OA
BRANCH  10  12
ATOM     12  C   LIG    1       29.291 -19.970   6.817  0.00  0.00    +0.037 A 
ATOM     13  C   LIG    1       29.129 -21.122   7.577  0.00  0.00    +0.013 A 
ATOM     14  C   LIG    1       30.103 -21.499   8.502  0.00  0.00    +0.001 A 
ATOM     15  C   LIG    1       31.259 -20.733   8.652  0.00  0.00    +0.000 A 
ATOM     16  C   LIG    1       31.441 -19.583   7.887  0.00  0.00    +0.001 A 
ATOM     17  C   LIG    1       30.460 -19.194   6.969  0.00  0.00    +0.013 A 
ENDBRANCH  10  12
ENDBRANCH   2   8
BRANCH   1  18
ATOM     18  C   LIG    1       24.560 -21.773   6.314  0.00  0.00    +0.123 C 
BRANCH  18  20
ATOM     19  C   LIG    1       25.812 -23.394   7.543  0.00  0.00    +0.105 C 
ATOM     20  N   LIG    1       25.556 -22.877   6.189  0.00  0.00    -0.293 NA
BRANCH  20  21
ATOM     21  C   LIG    1       25.044 -23.975   5.303  0.00  0.00    +0.180 C 
BRANCH  21  22
ATOM     22  C   LIG    1       24.388 -25.143   6.091  0.00  0.00    +0.230 C 
ATOM     23  N   LIG    1       25.085 -26.335   6.273  0.00  0.00    -0.296 N 
ATOM     24  C   LIG    1       24.370 -27.526   6.757  0.00  0.00    +0.136 C 
ATOM     25  C   LIG    1       24.331 -28.591   5.646  0.00  0.00    +0.178 C 
ATOM     26  O   LIG    1       25.652 -28.894   5.153  0.00  0.00    -0.377 OA
ATOM     27  C   LIG    1       26.319 -27.712   4.678  0.00  0.00    +0.178 C 
ATOM     28  C   LIG    1       26.430 -26.674   5.799  0.00  0.00    +0.136 C 
ATOM     29  O   LIG    1       23.246 -25.011   6.546  0.00  0.00    -0.274 OA
ENDBRANCH  21  22
ENDBRANCH  20  21
ENDBRANCH  18  20
ENDBRANCH   1  18
TORSDOF 6
ENDMDL
MODEL 4
REMARK VINA RESULT:      -8.8      3.051      7.701
REMARK  Name = *****
REMARK                            x       y       z     vdW  Elec       q    Type
REMARK                         _______ _______ _______ _____ _____    ______ ____
ROOT
ATOM      1  C   LIG    1       24.705 -22.343   6.310  0.00  0.00    +0.006 A 
ATOM      2  C   LIG    1       25.277 -21.096   5.946  0.00  0.00    +0.040 A 
ATOM      3  C   LIG    1       24.480 -20.130   5.322  0.00  0.00    +0.024 A 
ATOM      4  C   LIG    1       23.106 -20.298   5.189  0.00  0.00    +0.003 A 
ATOM      5  C   LIG    1       22.507 -21.435   5.707  0.00  0.00    +0.020 A 
ATOM      6  C   LIG    1       23.295 -22.454   6.248  0.00  0.00    +0.047 A 
ATOM      7 CL   LIG    1       22.433 -23.829   6.856  0.00  0.00    -0.083 Cl
ENDROOT
BRANCH   2   8
ATOM      8  N   LIG    1       26.633 -20.818   6.223  0.00  0.00    -0.281 N 
ATOM      9  H   LIG    1       27.297 -21.104   5.504  0.00  0.00    +0.155 HD
ATOM     10  C   LIG    1       27.152 -20.440   7.475  0.00  0.00    +0.248 C 
ATOM     11  O   LIG    1       26.522 -20.295   8.517  0.00  0.00    -0.270 OA
BRANCH  10  12
ATOM     12  C   LIG    1       28.646 -20.277   7.504  0.00  0.00    +0.037 A 
ATOM     13  C   LIG    1       29.292 -19.283   6.780  0.00  0.00    +0.013 A 
ATOM     14  C   LIG    1       30.679 -19.146   6.853  0.00  0.00    +0.001 A 
ATOM     15  C   LIG    1       31.423 -19.994   7.673  0.00  0.00    +0.000 A 
ATOM     16  C   LIG    1       30.786 -20.987   8.415  0.00  0.00    +0.001 A 
ATOM     17  C   LIG    1       29.398 -21.136   8.334  0.00  0.00    +0.013 A 
ENDBRANCH  10  12
ENDBRANCH   2   8
BRANCH   1  18
ATOM     18  C   LIG    1       25.542 -23.522   6.778  0.00  0.00    +0.123 C 
BRANCH  18  20
ATOM     19  C   LIG    1       25.036 -24.692   4.759  0.00  0.00    +0.105 C 
ATOM     20  N   LIG    1       25.167 -24.852   6.216  0.00  0.00    -0.293 NA
BRANCH  20  21
ATOM     21  C   LIG    1       26.203 -25.890   6.533  0.00  0.00    +0.180 C 
BRANCH  21  22
ATOM     22  C   LIG    1       26.205 -27.080   5.534  0.00  0.00    +0.230 C 
ATOM     23  N   LIG    1       25.236 -28.076   5.640  0.00  0.00    -0.296 N 
ATOM     24  C   LIG    1       25.404 -29.333   4.894  0.00  0.00    +0.136 C 
ATOM     25  C   LIG    1       25.630 -30.492   5.881  0.00  0.00    +0.178 C 
ATOM     26  O   LIG    1       24.580 -30.563   6.867  0.00  0.00    -0.377 OA
ATOM     27  C   LIG    1       24.449 -29.325   7.585  0.00  0.00    +0.178 C 
ATOM     28  C   LIG    1       24.149 -28.176   6.618  0.00  0.00    +0.136 C 
ATOM     29  O   LIG    1       27.071 -27.142   4.653  0.00  0.00    -0.274 OA
ENDBRANCH  21  22
ENDBRANCH  20  21
ENDBRANCH  18  20
ENDBRANCH   1  18
TORSDOF 6
ENDMDL
MODEL 5
REMARK VINA RESULT:      -8.5      1.340      1.746
REMARK  Name = *****
REMARK                            x       y       z     vdW  Elec       q    Type
REMARK                         _______ _______ _______ _____ _____    ______ ____
ROOT
ATOM      1  C   LIG    1       24.684 -21.264   5.412  0.00  0.00    +0.006 A 
ATOM      2  C   LIG    1       23.686 -22.237   5.684  0.00  0.00    +0.040 A 
ATOM      3  C   LIG    1       22.338 -21.905   5.512  0.00  0.00    +0.024 A 
ATOM      4  C   LIG    1       21.954 -20.701   4.932  0.00  0.00    +0.003 A 
ATOM      5  C   LIG    1       22.928 -19.818   4.493  0.00  0.00    +0.020 A 
ATOM      6  C   LIG    1       24.276 -20.086   4.740  0.00  0.00    +0.047 A 
ATOM      7 CL   LIG    1       25.399 -18.904   4.150  0.00  0.00    -0.083 Cl
ENDROOT
BRANCH   2   8
ATOM      8  N   LIG    1       24.045 -23.534   6.109  0.00  0.00    -0.281 N 
ATOM      9  H   LIG    1       24.088 -23.670   7.119  0.00  0.00    +0.155 HD
ATOM     10  C   LIG    1       24.589 -24.542   5.293  0.00  0.00    +0.248 C 
ATOM     11  O   LIG    1       24.841 -24.460   4.095  0.00  0.00    -0.270 OA
BRANCH  10  12
ATOM     12  C   LIG    1       24.945 -25.807   6.022  0.00  0.00    +0.037 A 
ATOM     13  C   LIG    1       25.957 -25.849   6.973  0.00  0.00    +0.013 A 
ATOM     14  C   LIG    1       26.241 -27.036   7.648  0.00  0.00    +0.001 A 
ATOM     15  C   LIG    1       25.493 -28.185   7.388  0.00  0.00    +0.000 A 
ATOM     16  C   LIG    1       24.467 -28.154   6.446  0.00  0.00    +0.001 A 
ATOM     17  C   LIG    1       24.189 -26.969   5.757  0.00  0.00    +0.013 A 
ENDBRANCH  10  12
ENDBRANCH   2   8
BRANCH   1  18
ATOM     18  C   LIG    1       26.144 -21.460   5.785  0.00  0.00    +0.123 C 
BRANCH  18  20
ATOM     19  C   LIG    1       25.728 -20.693   8.008  0.00  0.00    +0.105 C 
ATOM     20  N   LIG    1       26.661 -20.584   6.876  0.00  0.00    -0.293 NA
BRANCH  20  21
ATOM     21  C   LIG    1       28.041 -20.998   7.299  0.00  0.00    +0.180 C 
BRANCH  21  22
ATOM     22  C   LIG    1       29.152 -20.039   6.790  0.00  0.00    +0.230 C 
ATOM     23  N   LIG    1       30.442 -20.137   7.306  0.00  0.00    -0.296 N 
ATOM     24  C   LIG    1       31.411 -19.060   7.045  0.00  0.00    +0.136 C 
ATOM     25  C   LIG    1       31.745 -18.337   8.362  0.00  0.00    +0.178 C 
ATOM     26  O   LIG    1       32.194 -19.259   9.376  0.00  0.00    -0.377 OA
ATOM     27  C   LIG    1       31.222 -20.290   9.616  0.00  0.00    +0.178 C 
ATOM     28  C   LIG    1       30.938 -21.066   8.325  0.00  0.00    +0.136 C 
ATOM     29  O   LIG    1       28.885 -19.189   5.933  0.00  0.00    -0.274 OA
ENDBRANCH  21  22
ENDBRANCH  20  21
ENDBRANCH  18  20
ENDBRANCH   1  18
TORSDOF 6
ENDMDL
MODEL 6
REMARK VINA RESULT:      -7.3      6.050      9.643
REMARK  Name = *****
REMARK                            x       y       z     vdW  Elec       q    Type
REMARK                         _______ _______ _______ _____ _____    ______ ____
ROOT
ATOM      1  C   LIG    1       25.050 -29.929   7.618  0.00  0.00    +0.006 A 
ATOM      2  C   LIG    1       25.115 -29.026   6.525  0.00  0.00    +0.040 A 
ATOM      3  C   LIG    1       25.454 -29.507   5.255  0.00  0.00    +0.024 A 
ATOM      4  C   LIG    1       25.578 -30.869   5.004  0.00  0.00    +0.003 A 
ATOM      5  C   LIG    1       25.336 -31.773   6.026  0.00  0.00    +0.020 A 
ATOM      6  C   LIG    1       25.089 -31.313   7.321  0.00  0.00    +0.047 A 
ATOM      7 CL   LIG    1       24.811 -32.538   8.515  0.00  0.00    -0.083 Cl
ENDROOT
BRANCH   2   8
ATOM      8  N   LIG    1       24.823 -27.657   6.705  0.00  0.00    -0.281 N 
ATOM      9  H   LIG    1       23.862 -27.442   6.965  0.00  0.00    +0.155 HD
ATOM     10  C   LIG    1       25.645 -26.585   6.308  0.00  0.00    +0.248 C 
ATOM     11  O   LIG    1       26.733 -26.664   5.746  0.00  0.00    -0.270 OA
BRANCH  10  12
ATOM     12  C   LIG    1       25.056 -25.226   6.558  0.00  0.00    +0.037 A 
ATOM     13  C   LIG    1       23.696 -24.976   6.419  0.00  0.00    +0.013 A 
ATOM     14  C   LIG    1       23.182 -23.706   6.685  0.00  0.00    +0.001 A 
ATOM     15  C   LIG    1       24.029 -22.685   7.116  0.00  0.00    +0.000 A 
ATOM     16  C   LIG    1       25.393 -22.926   7.273  0.00  0.00    +0.001 A 
ATOM     17  C   LIG    1       25.914 -24.193   6.994  0.00  0.00    +0.013 A 
ENDBRANCH  10  12
ENDBRANCH   2   8
BRANCH   1  18
ATOM     18  C   LIG    1       24.915 -29.463   9.059  0.00  0.00    +0.123 C 
BRANCH  18  20
ATOM     19  C   LIG    1       26.706 -28.246  10.066  0.00  0.00    +0.105 C 
ATOM     20  N   LIG    1       26.138 -29.594   9.903  0.00  0.00    -0.293 NA
BRANCH  20  21
ATOM     21  C   LIG    1       25.813 -30.184  11.244  0.00  0.00    +0.180 C 
BRANCH  21  22
ATOM     22  C   LIG    1       26.804 -29.753  12.361  0.00  0.00    +0.230 C 
ATOM     23  N   LIG    1       26.356 -28.965  13.419  0.00  0.00    -0.296 N 
ATOM     24  C   LIG    1       27.335 -28.322  14.309  0.00  0.00    +0.136 C 
ATOM     25  C   LIG    1       27.270 -26.794  14.128  0.00  0.00    +0.178 C 
ATOM     26  O   LIG    1       25.931 -26.293  14.315  0.00  0.00    -0.377 OA
ATOM     27  C   LIG    1       25.002 -26.932  13.424  0.00  0.00    +0.178 C 
ATOM     28  C   LIG    1       25.004 -28.448  13.649  0.00  0.00    +0.136 C 
ATOM     29  O   LIG    1       27.988 -30.104  12.301  0.00  0.00    -0.274 OA
ENDBRANCH  21  22
ENDBRANCH  20  21
ENDBRANCH  18  20
ENDBRANCH   1  18
TORSDOF 6
ENDMDL
MODEL 7
REMARK VINA RESULT:      -7.2      6.069     10.055
REMARK  Name = *****
REMARK                            x       y       z     vdW  Elec       q    Type
REMARK                         _______ _______ _______ _____ _____    ______ ____
ROOT
ATOM      1  C   LIG    1       25.781 -29.949   7.696  0.00  0.00    +0.006 A 
ATOM      2  C   LIG    1       25.365 -29.167   6.586  0.00  0.00    +0.040 A 
ATOM      3  C   LIG    1       25.283 -29.759   5.321  0.00  0.00    +0.024 A 
ATOM      4  C   LIG    1       25.448 -31.128   5.147  0.00  0.00    +0.003 A 
ATOM      5  C   LIG    1       25.674 -31.931   6.254  0.00  0.00    +0.020 A 
ATOM      6  C   LIG    1       25.853 -31.351   7.512  0.00  0.00    +0.047 A 
ATOM      7 CL   LIG    1       26.139 -32.456   8.817  0.00  0.00    -0.083 Cl
ENDROOT
BRANCH   2   8
ATOM      8  N   LIG    1       25.018 -27.809   6.753  0.00  0.00    -0.281 N 
ATOM      9  H   LIG    1       24.070 -27.635   7.085  0.00  0.00    +0.155 HD
ATOM     10  C   LIG    1       25.748 -26.711   6.263  0.00  0.00    +0.248 C 
ATOM     11  O   LIG    1       26.790 -26.752   5.617  0.00  0.00    -0.270 OA
BRANCH  10  12
ATOM     12  C   LIG    1       25.111 -25.376   6.524  0.00  0.00    +0.037 A 
ATOM     13  C   LIG    1       23.744 -25.171   6.381  0.00  0.00    +0.013 A 
ATOM     14  C   LIG    1       23.185 -23.923   6.658  0.00  0.00    +0.001 A 
ATOM     15  C   LIG    1       23.995 -22.877   7.103  0.00  0.00    +0.000 A 
ATOM     16  C   LIG    1       25.365 -23.072   7.263  0.00  0.00    +0.001 A 
ATOM     17  C   LIG    1       25.931 -24.318   6.973  0.00  0.00    +0.013 A 
ENDBRANCH  10  12
ENDBRANCH   2   8
BRANCH   1  18
ATOM     18  C   LIG    1       26.115 -29.340   9.048  0.00  0.00    +0.123 C 
BRANCH  18  20
ATOM     19  C   LIG    1       23.879 -30.037   9.518  0.00  0.00    +0.105 C 
ATOM     20  N   LIG    1       24.966 -29.160   9.983  0.00  0.00    -0.293 NA
BRANCH  20  21
ATOM     21  C   LIG    1       25.349 -29.511  11.391  0.00  0.00    +0.180 C 
BRANCH  21  22
ATOM     22  C   LIG    1       25.142 -28.341  12.393  0.00  0.00    +0.230 C 
ATOM     23  N   LIG    1       23.981 -28.284  13.161  0.00  0.00    -0.296 N 
ATOM     24  C   LIG    1       23.652 -27.047  13.886  0.00  0.00    +0.136 C 
ATOM     25  C   LIG    1       22.385 -26.417  13.280  0.00  0.00    +0.178 C 
ATOM     26  O   LIG    1       21.289 -27.353  13.246  0.00  0.00    -0.377 OA
ATOM     27  C   LIG    1       21.638 -28.545  12.522  0.00  0.00    +0.178 C 
ATOM     28  C   LIG    1       22.854 -29.222  13.164  0.00  0.00    +0.136 C 
ATOM     29  O   LIG    1       26.004 -27.462  12.497  0.00  0.00    -0.274 OA
ENDBRANCH  21  22
ENDBRANCH  20  21
ENDBRANCH  18  20
ENDBRANCH   1  18
TORSDOF 6
ENDMDL
MODEL 8
REMARK VINA RESULT:      -7.0      6.398     10.830
REMARK  Name = *****
REMARK                            x       y       z     vdW  Elec       q    Type
REMARK                         _______ _______ _______ _____ _____    ______ ____
ROOT
ATOM      1  C   LIG    1       24.798 -29.839   7.568  0.00  0.00    +0.006 A 
ATOM      2  C   LIG    1       24.997 -28.910   6.513  0.00  0.00    +0.040 A 
ATOM      3  C   LIG    1       25.443 -29.369   5.269  0.00  0.00    +0.024 A 
ATOM      4  C   LIG    1       25.550 -30.727   4.991  0.00  0.00    +0.003 A 
ATOM      5  C   LIG    1       25.183 -31.650   5.958  0.00  0.00    +0.020 A 
ATOM      6  C   LIG    1       24.824 -31.215   7.237  0.00  0.00    +0.047 A 
ATOM      7 CL   LIG    1       24.394 -32.461   8.362  0.00  0.00    -0.083 Cl
ENDROOT
BRANCH   2   8
ATOM      8  N   LIG    1       24.731 -27.538   6.703  0.00  0.00    -0.281 N 
ATOM      9  H   LIG    1       23.773 -27.307   6.965  0.00  0.00    +0.155 HD
ATOM     10  C   LIG    1       25.572 -26.478   6.316  0.00  0.00    +0.248 C 
ATOM     11  O   LIG    1       26.659 -26.573   5.754  0.00  0.00    -0.270 OA
BRANCH  10  12
ATOM     12  C   LIG    1       25.008 -25.111   6.576  0.00  0.00    +0.037 A 
ATOM     13  C   LIG    1       23.655 -24.831   6.427  0.00  0.00    +0.013 A 
ATOM     14  C   LIG    1       23.165 -23.554   6.703  0.00  0.00    +0.001 A 
ATOM     15  C   LIG    1       24.028 -22.555   7.154  0.00  0.00    +0.000 A 
ATOM     16  C   LIG    1       25.385 -22.825   7.319  0.00  0.00    +0.001 A 
ATOM     17  C   LIG    1       25.883 -24.100   7.030  0.00  0.00    +0.013 A 
ENDBRANCH  10  12
ENDBRANCH   2   8
BRANCH   1  18
ATOM     18  C   LIG    1       24.537 -29.406   9.002  0.00  0.00    +0.123 C 
BRANCH  18  20
ATOM     19  C   LIG    1       26.637 -28.516   9.712  0.00  0.00    +0.105 C 
ATOM     20  N   LIG    1       25.667 -29.597   9.956  0.00  0.00    -0.293 NA
BRANCH  20  21
ATOM     21  C   LIG    1       25.192 -29.555  11.379  0.00  0.00    +0.180 C 
BRANCH  21  22
ATOM     22  C   LIG    1       24.342 -30.793  11.779  0.00  0.00    +0.230 C 
ATOM     23  N   LIG    1       22.997 -30.634  12.105  0.00  0.00    -0.296 N 
ATOM     24  C   LIG    1       22.273 -31.739  12.754  0.00  0.00    +0.136 C 
ATOM     25  C   LIG    1       21.896 -31.334  14.190  0.00  0.00    +0.178 C 
ATOM     26  O   LIG    1       21.162 -30.093  14.217  0.00  0.00    -0.377 OA
ATOM     27  C   LIG    1       21.900 -29.032  13.586  0.00  0.00    +0.178 C 
ATOM     28  C   LIG    1       22.216 -29.394  12.131  0.00  0.00    +0.136 C 
ATOM     29  O   LIG    1       24.866 -31.912  11.813  0.00  0.00    -0.274 OA
ENDBRANCH  21  22
ENDBRANCH  20  21
ENDBRANCH  18  20
ENDBRANCH   1  18
TORSDOF 6
ENDMDL
MODEL 9
REMARK VINA RESULT:      -6.7      2.558      5.545
REMARK  Name = *****
REMARK                            x       y       z     vdW  Elec       q    Type
REMARK                         _______ _______ _______ _____ _____    ______ ____
ROOT
ATOM      1  C   LIG    1       24.615 -21.833   6.022  0.00  0.00    +0.006 A 
ATOM      2  C   LIG    1       23.554 -20.976   5.628  0.00  0.00    +0.040 A 
ATOM      3  C   LIG    1       22.248 -21.477   5.576  0.00  0.00    +0.024 A 
ATOM      4  C   LIG    1       21.939 -22.748   6.049  0.00  0.00    +0.003 A 
ATOM      5  C   LIG    1       22.940 -23.528   6.607  0.00  0.00    +0.020 A 
ATOM      6  C   LIG    1       24.265 -23.085   6.583  0.00  0.00    +0.047 A 
ATOM      7 CL   LIG    1       25.427 -24.151   7.302  0.00  0.00    -0.083 Cl
ENDROOT
BRANCH   2   8
ATOM      8  N   LIG    1       23.803 -19.625   5.307  0.00  0.00    -0.281 N 
ATOM      9  H   LIG    1       23.640 -18.956   6.059  0.00  0.00    +0.155 HD
ATOM     10  C   LIG    1       23.991 -19.112   4.010  0.00  0.00    +0.248 C 
ATOM     11  O   LIG    1       23.967 -19.746   2.960  0.00  0.00    -0.270 OA
BRANCH  10  12
ATOM     12  C   LIG    1       24.168 -17.621   3.951  0.00  0.00    +0.037 A 
ATOM     13  C   LIG    1       25.332 -17.036   3.469  0.00  0.00    +0.013 A 
ATOM     14  C   LIG    1       25.449 -15.646   3.406  0.00  0.00    +0.001 A 
ATOM     15  C   LIG    1       24.385 -14.836   3.806  0.00  0.00    +0.000 A 
ATOM     16  C   LIG    1       23.207 -15.411   4.280  0.00  0.00    +0.001 A 
ATOM     17  C   LIG    1       23.092 -16.802   4.357  0.00  0.00    +0.013 A 
ENDBRANCH  10  12
ENDBRANCH   2   8
BRANCH   1  18
ATOM     18  C   LIG    1       26.077 -21.442   5.888  0.00  0.00    +0.123 C 
BRANCH  18  20
ATOM     19  C   LIG    1       25.698 -20.647   8.109  0.00  0.00    +0.105 C 
ATOM     20  N   LIG    1       26.616 -20.557   6.961  0.00  0.00    -0.293 NA
BRANCH  20  21
ATOM     21  C   LIG    1       27.999 -20.974   7.369  0.00  0.00    +0.180 C 
BRANCH  21  22
ATOM     22  C   LIG    1       29.109 -20.034   6.824  0.00  0.00    +0.230 C 
ATOM     23  N   LIG    1       30.408 -20.136   7.319  0.00  0.00    -0.296 N 
ATOM     24  C   LIG    1       31.381 -19.072   7.023  0.00  0.00    +0.136 C 
ATOM     25  C   LIG    1       31.746 -18.332   8.322  0.00  0.00    +0.178 C 
ATOM     26  O   LIG    1       32.205 -19.242   9.342  0.00  0.00    -0.377 OA
ATOM     27  C   LIG    1       31.228 -20.260   9.616  0.00  0.00    +0.178 C 
ATOM     28  C   LIG    1       30.914 -21.054   8.343  0.00  0.00    +0.136 C 
ATOM     29  O   LIG    1       28.834 -19.195   5.960  0.00  0.00    -0.274 OA
ENDBRANCH  21  22
ENDBRANCH  20  21
ENDBRANCH  18  20
ENDBRANCH   1  18
TORSDOF 6
ENDMDL
