MODEL 1
REMARK VINA RESULT:      -5.6      0.000      0.000
REMARK  Name = *****
REMARK                            x       y       z     vdW  Elec       q    Type
REMARK                         _______ _______ _______ _____ _____    ______ ____
ROOT
ATOM      1  C   LIG    1       25.003 -19.926   4.728  0.00  0.00    +0.162 A 
ATOM      2  C   LIG    1       24.532 -18.930   3.853  0.00  0.00    +0.162 A 
ATOM      3  C   LIG    1       23.163 -18.616   3.847  0.00  0.00    +0.049 A 
ATOM      4  C   LIG    1       22.281 -19.252   4.721  0.00  0.00    +0.004 A 
ATOM      5  C   LIG    1       22.756 -20.196   5.620  0.00  0.00    +0.004 A 
ATOM      6  C   LIG    1       24.113 -20.529   5.628  0.00  0.00    +0.049 A 
ENDROOT
BRANCH   1   7
ATOM      7  O   LIG    1       26.297 -20.382   4.829  0.00  0.00    -0.489 OA
BRANCH   7   9
ATOM      8  C   LIG    1       28.316 -19.993   6.084  0.00  0.00    +0.048 C 
ATOM      9  C   LIG    1       26.853 -20.388   6.147  0.00  0.00    +0.226 C 
ENDBRANCH   7   9
ENDBRANCH   1   7
BRANCH   2  10
ATOM     10  O   LIG    1       25.450 -18.298   3.050  0.00  0.00    -0.486 OA
BRANCH  10  11
ATOM     11  C   LIG    1       26.185 -17.216   3.600  0.00  0.00    +0.262 C 
BRANCH  11  12
ATOM     12  C   LIG    1       25.685 -15.877   3.048  0.00  0.00    +0.169 C 
ATOM     13  O   LIG    1       26.855 -15.053   2.869  0.00  0.00    -0.371 OA
ATOM     14  C   LIG    1       26.492 -13.749   2.409  0.00  0.00    +0.175 C 
ATOM     15  C   LIG    1       25.565 -13.061   3.417  0.00  0.00    +0.109 C 
ATOM     16  N   LIG    1       24.326 -13.830   3.606  0.00  0.00    -0.311 NA
ATOM     17  H   LIG    1       23.768 -13.394   4.340  0.00  0.00    +0.122 HD
ATOM     18  C   LIG    1       24.669 -15.209   4.008  0.00  0.00    +0.115 C 
ENDBRANCH  11  12
ENDBRANCH  10  11
ENDBRANCH   2  10
TORSDOF 5
ENDMDL
MODEL 2
REMARK VINA RESULT:      -5.0      2.485      6.268
REMARK  Name = *****
REMARK                            x       y       z     vdW  Elec       q    Type
REMARK                         _______ _______ _______ _____ _____    ______ ____
ROOT
ATOM      1  C   LIG    1       25.351 -14.399   3.935  0.00  0.00    +0.162 A 
ATOM      2  C   LIG    1       26.145 -15.499   3.563  0.00  0.00    +0.162 A 
ATOM      3  C   LIG    1       27.518 -15.484   3.861  0.00  0.00    +0.049 A 
ATOM      4  C   LIG    1       28.087 -14.413   4.552  0.00  0.00    +0.004 A 
ATOM      5  C   LIG    1       27.291 -13.354   4.965  0.00  0.00    +0.004 A 
ATOM      6  C   LIG    1       25.927 -13.347   4.663  0.00  0.00    +0.049 A 
ENDROOT
BRANCH   1   7
ATOM      7  O   LIG    1       24.009 -14.235   3.682  0.00  0.00    -0.489 OA
BRANCH   7   9
ATOM      8  C   LIG    1       24.513 -12.777   1.831  0.00  0.00    +0.048 C 
ATOM      9  C   LIG    1       23.641 -13.005   3.051  0.00  0.00    +0.226 C 
ENDBRANCH   7   9
ENDBRANCH   1   7
BRANCH   2  10
ATOM     10  O   LIG    1       25.526 -16.550   2.931  0.00  0.00    -0.486 OA
BRANCH  10  11
ATOM     11  C   LIG    1       25.883 -17.866   3.323  0.00  0.00    +0.262 C 
BRANCH  11  12
ATOM     12  C   LIG    1       24.642 -18.754   3.457  0.00  0.00    +0.169 C 
ATOM     13  O   LIG    1       23.630 -17.939   4.083  0.00  0.00    -0.371 OA
ATOM     14  C   LIG    1       22.438 -18.696   4.311  0.00  0.00    +0.175 C 
ATOM     15  C   LIG    1       22.727 -19.895   5.221  0.00  0.00    +0.109 C 
ATOM     16  N   LIG    1       23.719 -20.794   4.613  0.00  0.00    -0.311 NA
ATOM     17  H   LIG    1       23.952 -21.535   5.274  0.00  0.00    +0.122 HD
ATOM     18  C   LIG    1       24.937 -20.025   4.293  0.00  0.00    +0.115 C 
ENDBRANCH  11  12
ENDBRANCH  10  11
ENDBRANCH   2  10
TORSDOF 5
ENDMDL
MODEL 3
REMARK VINA RESULT:      -4.6      1.352      2.873
REMARK  Name = *****
REMARK                            x       y       z     vdW  Elec       q    Type
REMARK                         _______ _______ _______ _____ _____    ______ ____
ROOT
ATOM      1  C   LIG    1       24.094 -19.557   4.047  0.00  0.00    +0.162 A 
ATOM      2  C   LIG    1       25.411 -19.064   4.035  0.00  0.00    +0.162 A 
ATOM      3  C   LIG    1       26.391 -19.712   4.806  0.00  0.00    +0.049 A 
ATOM      4  C   LIG    1       26.077 -20.852   5.548  0.00  0.00    +0.004 A 
ATOM      5  C   LIG    1       24.789 -21.367   5.515  0.00  0.00    +0.004 A 
ATOM      6  C   LIG    1       23.801 -20.726   4.764  0.00  0.00    +0.049 A 
ENDROOT
BRANCH   1   7
ATOM      7  O   LIG    1       23.013 -19.020   3.387  0.00  0.00    -0.489 OA
BRANCH   7   9
ATOM      8  C   LIG    1       22.187 -17.194   4.726  0.00  0.00    +0.048 C 
ATOM      9  C   LIG    1       21.926 -18.599   4.215  0.00  0.00    +0.226 C 
ENDBRANCH   7   9
ENDBRANCH   1   7
BRANCH   2  10
ATOM     10  O   LIG    1       25.678 -17.970   3.249  0.00  0.00    -0.486 OA
BRANCH  10  11
ATOM     11  C   LIG    1       26.825 -17.193   3.556  0.00  0.00    +0.262 C 
BRANCH  11  12
ATOM     12  C   LIG    1       26.567 -15.706   3.292  0.00  0.00    +0.169 C 
ATOM     13  O   LIG    1       27.589 -14.986   4.011  0.00  0.00    -0.371 OA
ATOM     14  C   LIG    1       27.403 -13.574   3.879  0.00  0.00    +0.175 C 
ATOM     15  C   LIG    1       26.037 -13.156   4.433  0.00  0.00    +0.109 C 
ATOM     16  N   LIG    1       24.946 -13.822   3.705  0.00  0.00    -0.311 NA
ATOM     17  H   LIG    1       24.056 -13.591   4.147  0.00  0.00    +0.122 HD
ATOM     18  C   LIG    1       25.150 -15.283   3.755  0.00  0.00    +0.115 C 
ENDBRANCH  11  12
ENDBRANCH  10  11
ENDBRANCH   2  10
TORSDOF 5
ENDMDL
MODEL 4
REMARK VINA RESULT:      -4.6      2.336      5.988
REMARK  Name = *****
REMARK                            x       y       z     vdW  Elec       q    Type
REMARK                         _______ _______ _______ _____ _____    ______ ____
ROOT
ATOM      1  C   LIG    1       24.884 -14.738   3.984  0.00  0.00    +0.162 A 
ATOM      2  C   LIG    1       25.872 -15.632   3.534  0.00  0.00    +0.162 A 
ATOM      3  C   LIG    1       27.226 -15.302   3.712  0.00  0.00    +0.049 A 
ATOM      4  C   LIG    1       27.594 -14.122   4.361  0.00  0.00    +0.004 A 
ATOM      5  C   LIG    1       26.617 -13.267   4.851  0.00  0.00    +0.004 A 
ATOM      6  C   LIG    1       25.266 -13.575   4.669  0.00  0.00    +0.049 A 
ENDROOT
BRANCH   1   7
ATOM      7  O   LIG    1       23.523 -14.887   3.850  0.00  0.00    -0.489 OA
BRANCH   7   9
ATOM      8  C   LIG    1       22.367 -16.823   4.697  0.00  0.00    +0.048 C 
ATOM      9  C   LIG    1       22.840 -15.412   4.991  0.00  0.00    +0.226 C 
ENDBRANCH   7   9
ENDBRANCH   1   7
BRANCH   2  10
ATOM     10  O   LIG    1       25.457 -16.803   2.949  0.00  0.00    -0.486 OA
BRANCH  10  11
ATOM     11  C   LIG    1       26.159 -17.994   3.269  0.00  0.00    +0.262 C 
BRANCH  11  12
ATOM     12  C   LIG    1       25.316 -18.903   4.169  0.00  0.00    +0.169 C 
ATOM     13  O   LIG    1       26.241 -19.799   4.817  0.00  0.00    -0.371 OA
ATOM     14  C   LIG    1       25.546 -20.737   5.643  0.00  0.00    +0.175 C 
ATOM     15  C   LIG    1       24.570 -21.571   4.806  0.00  0.00    +0.109 C 
ATOM     16  N   LIG    1       23.566 -20.715   4.157  0.00  0.00    -0.311 NA
ATOM     17  H   LIG    1       22.983 -21.286   3.543  0.00  0.00    +0.122 HD
ATOM     18  C   LIG    1       24.253 -19.684   3.355  0.00  0.00    +0.115 C 
ENDBRANCH  11  12
ENDBRANCH  10  11
ENDBRANCH   2  10
TORSDOF 5
ENDMDL
MODEL 5
REMARK VINA RESULT:      -4.4      2.351      5.704
REMARK  Name = *****
REMARK                            x       y       z     vdW  Elec       q    Type
REMARK                         _______ _______ _______ _____ _____    ______ ____
ROOT
ATOM      1  C   LIG    1       25.757 -15.298   3.502  0.00  0.00    +0.162 A 
ATOM      2  C   LIG    1       25.061 -16.509   3.666  0.00  0.00    +0.162 A 
ATOM      3  C   LIG    1       23.742 -16.479   4.150  0.00  0.00    +0.049 A 
ATOM      4  C   LIG    1       23.112 -15.266   4.431  0.00  0.00    +0.004 A 
ATOM      5  C   LIG    1       23.784 -14.071   4.218  0.00  0.00    +0.004 A 
ATOM      6  C   LIG    1       25.100 -14.085   3.750  0.00  0.00    +0.049 A 
ENDROOT
BRANCH   1   7
ATOM      7  O   LIG    1       27.060 -15.154   3.083  0.00  0.00    -0.489 OA
BRANCH   7   9
ATOM      8  C   LIG    1       28.519 -13.361   3.764  0.00  0.00    +0.048 C 
ATOM      9  C   LIG    1       27.468 -13.819   2.770  0.00  0.00    +0.226 C 
ENDBRANCH   7   9
ENDBRANCH   1   7
BRANCH   2  10
ATOM     10  O   LIG    1       25.709 -17.672   3.326  0.00  0.00    -0.486 OA
BRANCH  10  11
ATOM     11  C   LIG    1       24.938 -18.859   3.224  0.00  0.00    +0.262 C 
BRANCH  11  12
ATOM     12  C   LIG    1       25.461 -19.937   4.178  0.00  0.00    +0.169 C 
ATOM     13  O   LIG    1       24.450 -20.101   5.193  0.00  0.00    -0.371 OA
ATOM     14  C   LIG    1       24.869 -21.050   6.177  0.00  0.00    +0.175 C 
ATOM     15  C   LIG    1       26.164 -20.591   6.854  0.00  0.00    +0.109 C 
ATOM     16  N   LIG    1       27.252 -20.453   5.874  0.00  0.00    -0.311 NA
ATOM     17  H   LIG    1       28.076 -20.068   6.336  0.00  0.00    +0.122 HD
ATOM     18  C   LIG    1       26.823 -19.536   4.799  0.00  0.00    +0.115 C 
ENDBRANCH  11  12
ENDBRANCH  10  11
ENDBRANCH   2  10
TORSDOF 5
ENDMDL
MODEL 6
REMARK VINA RESULT:      -4.4      2.056      5.932
REMARK  Name = *****
REMARK                            x       y       z     vdW  Elec       q    Type
REMARK                         _______ _______ _______ _____ _____    ______ ____
ROOT
ATOM      1  C   LIG    1       26.242 -14.136   2.960  0.00  0.00    +0.162 A 
ATOM      2  C   LIG    1       25.551 -15.220   3.530  0.00  0.00    +0.162 A 
ATOM      3  C   LIG    1       24.198 -15.065   3.873  0.00  0.00    +0.049 A 
ATOM      4  C   LIG    1       23.529 -13.866   3.619  0.00  0.00    +0.004 A 
ATOM      5  C   LIG    1       24.199 -12.816   3.008  0.00  0.00    +0.004 A 
ATOM      6  C   LIG    1       25.549 -12.950   2.675  0.00  0.00    +0.049 A 
ENDROOT
BRANCH   1   7
ATOM      7  O   LIG    1       27.572 -14.105   2.609  0.00  0.00    -0.489 OA
BRANCH   7   9
ATOM      8  C   LIG    1       27.892 -13.296   4.855  0.00  0.00    +0.048 C 
ATOM      9  C   LIG    1       28.413 -13.292   3.431  0.00  0.00    +0.226 C 
ENDBRANCH   7   9
ENDBRANCH   1   7
BRANCH   2  10
ATOM     10  O   LIG    1       26.241 -16.394   3.712  0.00  0.00    -0.486 OA
BRANCH  10  11
ATOM     11  C   LIG    1       25.754 -17.560   3.066  0.00  0.00    +0.262 C 
BRANCH  11  12
ATOM     12  C   LIG    1       25.090 -18.507   4.071  0.00  0.00    +0.169 C 
ATOM     13  O   LIG    1       25.917 -19.687   4.119  0.00  0.00    -0.371 OA
ATOM     14  C   LIG    1       25.350 -20.669   4.991  0.00  0.00    +0.175 C 
ATOM     15  C   LIG    1       23.954 -21.076   4.509  0.00  0.00    +0.109 C 
ATOM     16  N   LIG    1       23.046 -19.920   4.485  0.00  0.00    -0.311 NA
ATOM     17  H   LIG    1       22.151 -20.202   4.083  0.00  0.00    +0.122 HD
ATOM     18  C   LIG    1       23.639 -18.854   3.653  0.00  0.00    +0.115 C 
ENDBRANCH  11  12
ENDBRANCH  10  11
ENDBRANCH   2  10
TORSDOF 5
ENDMDL
MODEL 7
REMARK VINA RESULT:      -4.4      1.377      3.161
REMARK  Name = *****
REMARK                            x       y       z     vdW  Elec       q    Type
REMARK                         _______ _______ _______ _____ _____    ______ ____
ROOT
ATOM      1  C   LIG    1       25.746 -19.052   4.105  0.00  0.00    +0.162 A 
ATOM      2  C   LIG    1       26.674 -18.017   3.896  0.00  0.00    +0.162 A 
ATOM      3  C   LIG    1       27.904 -18.053   4.573  0.00  0.00    +0.049 A 
ATOM      4  C   LIG    1       28.224 -19.119   5.416  0.00  0.00    +0.004 A 
ATOM      5  C   LIG    1       27.328 -20.165   5.580  0.00  0.00    +0.004 A 
ATOM      6  C   LIG    1       26.094 -20.136   4.924  0.00  0.00    +0.049 A 
ENDROOT
BRANCH   1   7
ATOM      7  O   LIG    1       24.487 -19.146   3.558  0.00  0.00    -0.489 OA
BRANCH   7   9
ATOM      8  C   LIG    1       22.376 -19.016   4.713  0.00  0.00    +0.048 C 
ATOM      9  C   LIG    1       23.537 -19.906   4.310  0.00  0.00    +0.226 C 
ENDBRANCH   7   9
ENDBRANCH   1   7
BRANCH   2  10
ATOM     10  O   LIG    1       26.332 -17.018   3.016  0.00  0.00    -0.486 OA
BRANCH  10  11
ATOM     11  C   LIG    1       26.624 -15.679   3.383  0.00  0.00    +0.262 C 
BRANCH  11  12
ATOM     12  C   LIG    1       25.410 -14.771   3.158  0.00  0.00    +0.169 C 
ATOM     13  O   LIG    1       25.774 -13.867   2.096  0.00  0.00    -0.371 OA
ATOM     14  C   LIG    1       24.724 -12.930   1.845  0.00  0.00    +0.175 C 
ATOM     15  C   LIG    1       24.425 -12.106   3.101  0.00  0.00    +0.109 C 
ATOM     16  N   LIG    1       23.998 -12.970   4.211  0.00  0.00    -0.311 NA
ATOM     17  H   LIG    1       23.887 -12.407   5.054  0.00  0.00    +0.122 HD
ATOM     18  C   LIG    1       25.028 -14.001   4.447  0.00  0.00    +0.115 C 
ENDBRANCH  11  12
ENDBRANCH  10  11
ENDBRANCH   2  10
TORSDOF 5
ENDMDL
MODEL 8
REMARK VINA RESULT:      -4.1      1.466      1.798
REMARK  Name = *****
REMARK                            x       y       z     vdW  Elec       q    Type
REMARK                         _______ _______ _______ _____ _____    ______ ____
ROOT
ATOM      1  C   LIG    1       24.360 -19.411   4.358  0.00  0.00    +0.162 A 
ATOM      2  C   LIG    1       23.481 -18.332   4.148  0.00  0.00    +0.162 A 
ATOM      3  C   LIG    1       22.097 -18.546   4.257  0.00  0.00    +0.049 A 
ATOM      4  C   LIG    1       21.594 -19.801   4.605  0.00  0.00    +0.004 A 
ATOM      5  C   LIG    1       22.465 -20.850   4.863  0.00  0.00    +0.004 A 
ATOM      6  C   LIG    1       23.844 -20.656   4.745  0.00  0.00    +0.049 A 
ENDROOT
BRANCH   1   7
ATOM      7  O   LIG    1       25.731 -19.383   4.247  0.00  0.00    -0.489 OA
BRANCH   7   9
ATOM      8  C   LIG    1       27.569 -19.864   5.730  0.00  0.00    +0.048 C 
ATOM      9  C   LIG    1       26.429 -20.440   4.910  0.00  0.00    +0.226 C 
ENDBRANCH   7   9
ENDBRANCH   1   7
BRANCH   2  10
ATOM     10  O   LIG    1       24.030 -17.107   3.859  0.00  0.00    -0.486 OA
BRANCH  10  11
ATOM     11  C   LIG    1       23.361 -15.948   4.332  0.00  0.00    +0.262 C 
BRANCH  11  12
ATOM     12  C   LIG    1       24.222 -14.697   4.132  0.00  0.00    +0.169 C 
ATOM     13  O   LIG    1       23.537 -13.888   3.154  0.00  0.00    -0.371 OA
ATOM     14  C   LIG    1       24.293 -12.713   2.848  0.00  0.00    +0.175 C 
ATOM     15  C   LIG    1       25.668 -13.088   2.288  0.00  0.00    +0.109 C 
ATOM     16  N   LIG    1       26.439 -13.875   3.262  0.00  0.00    -0.311 NA
ATOM     17  H   LIG    1       27.313 -14.180   2.833  0.00  0.00    +0.122 HD
ATOM     18  C   LIG    1       25.652 -15.059   3.659  0.00  0.00    +0.115 C 
ENDBRANCH  11  12
ENDBRANCH  10  11
ENDBRANCH   2  10
TORSDOF 5
ENDMDL
MODEL 9
REMARK VINA RESULT:      -3.6      2.618      6.094
REMARK  Name = *****
REMARK                            x       y       z     vdW  Elec       q    Type
REMARK                         _______ _______ _______ _____ _____    ______ ____
ROOT
ATOM      1  C   LIG    1       25.593 -14.183   2.924  0.00  0.00    +0.162 A 
ATOM      2  C   LIG    1       24.440 -14.276   3.725  0.00  0.00    +0.162 A 
ATOM      3  C   LIG    1       23.568 -13.177   3.797  0.00  0.00    +0.049 A 
ATOM      4  C   LIG    1       23.815 -12.019   3.058  0.00  0.00    +0.004 A 
ATOM      5  C   LIG    1       24.925 -11.950   2.229  0.00  0.00    +0.004 A 
ATOM      6  C   LIG    1       25.809 -13.030   2.156  0.00  0.00    +0.049 A 
ENDROOT
BRANCH   1   7
ATOM      7  O   LIG    1       26.567 -15.144   2.777  0.00  0.00    -0.489 OA
BRANCH   7   9
ATOM      8  C   LIG    1       28.167 -13.818   3.997  0.00  0.00    +0.048 C 
ATOM      9  C   LIG    1       27.553 -15.193   3.812  0.00  0.00    +0.226 C 
ENDBRANCH   7   9
ENDBRANCH   1   7
BRANCH   2  10
ATOM     10  O   LIG    1       24.217 -15.456   4.391  0.00  0.00    -0.486 OA
BRANCH  10  11
ATOM     11  C   LIG    1       22.902 -15.988   4.382  0.00  0.00    +0.262 C 
BRANCH  11  12
ATOM     12  C   LIG    1       22.912 -17.471   3.998  0.00  0.00    +0.169 C 
ATOM     13  O   LIG    1       22.255 -18.171   5.074  0.00  0.00    -0.371 OA
ATOM     14  C   LIG    1       22.263 -19.582   4.842  0.00  0.00    +0.175 C 
ATOM     15  C   LIG    1       23.700 -20.102   4.732  0.00  0.00    +0.109 C 
ATOM     16  N   LIG    1       24.411 -19.460   3.616  0.00  0.00    -0.311 NA
ATOM     17  H   LIG    1       25.385 -19.762   3.619  0.00  0.00    +0.122 HD
ATOM     18  C   LIG    1       24.355 -17.995   3.785  0.00  0.00    +0.115 C 
ENDBRANCH  11  12
ENDBRANCH  10  11
ENDBRANCH   2  10
TORSDOF 5
ENDMDL
