MODEL 1
REMARK VINA RESULT:      -6.0      0.000      0.000
REMARK  Name = *****
REMARK                            x       y       z     vdW  Elec       q    Type
REMARK                         _______ _______ _______ _____ _____    ______ ____
ROOT
ATOM      1  C   LIG    1       25.250 -30.196   9.225  0.00  0.00    +0.134 C 
ATOM      2  C   LIG    1       26.100 -31.365   9.821  0.00  0.00    +0.079 C 
ATOM      3  C   LIG    1       25.383 -32.153  10.951  0.00  0.00    +0.158 C 
ATOM      4  C   LIG    1       24.876 -31.072  11.896  0.00  0.00    +0.030 A 
ATOM      5  C   LIG    1       23.895 -30.218  11.385  0.00  0.00    +0.007 A 
ATOM      6  C   LIG    1       23.236 -29.327  12.233  0.00  0.00    +0.132 A 
ATOM      7  C   LIG    1       23.807 -28.993  13.467  0.00  0.00    +0.078 A 
ATOM      8  C   LIG    1       23.392 -27.713  14.063  0.00  0.00    +0.198 C 
ATOM      9  O   LIG    1       22.202 -27.438  14.124  0.00  0.00    -0.286 OA
ATOM     10  C   LIG    1       24.487 -26.723  14.280  0.00  0.00    +0.037 A 
ATOM     11  C   LIG    1       25.801 -27.175  14.560  0.00  0.00    +0.075 A 
ATOM     12  C   LIG    1       26.879 -26.225  14.639  0.00  0.00    +0.132 A 
ATOM     13  C   LIG    1       26.603 -24.880  14.330  0.00  0.00    +0.046 A 
ATOM     14  C   LIG    1       25.296 -24.453  14.031  0.00  0.00    +0.004 A 
ATOM     15  C   LIG    1       26.010 -28.683  14.562  0.00  0.00    +0.202 C 
ATOM     16  O   LIG    1       27.034 -29.216  14.972  0.00  0.00    -0.286 OA
ATOM     17  C   LIG    1       24.235 -25.366  14.007  0.00  0.00    +0.012 A 
ATOM     18  C   LIG    1       25.036 -29.550  13.811  0.00  0.00    +0.078 A 
ATOM     19  C   LIG    1       25.503 -30.681  13.088  0.00  0.00    +0.135 A 
ATOM     20  C   LIG    1       23.826 -30.087   9.865  0.00  0.00    +0.082 C 
ENDROOT
BRANCH   1  21
ATOM     21  O   LIG    1       25.139 -30.452   7.801  0.00  0.00    -0.381 OA
ATOM     22  H   LIG    1       25.987 -30.154   7.407  0.00  0.00    +0.211 HD
ENDBRANCH   1  21
BRANCH  19  23
ATOM     23  O   LIG    1       26.718 -31.271  13.335  0.00  0.00    -0.506 OA
ATOM     24  H   LIG    1       26.916 -31.184  14.296  0.00  0.00    +0.292 HD
ENDBRANCH  19  23
BRANCH   6  25
ATOM     25  O   LIG    1       22.199 -28.616  11.690  0.00  0.00    -0.506 OA
ATOM     26  H   LIG    1       21.347 -28.964  12.033  0.00  0.00    +0.292 HD
ENDBRANCH   6  25
BRANCH  12  27
ATOM     27  O   LIG    1       28.172 -26.655  14.875  0.00  0.00    -0.494 OA
ATOM     28  C   LIG    1       29.187 -25.781  15.422  0.00  0.00    +0.277 C 
ENDBRANCH  12  27
BRANCH   1  29
ATOM     29  C   LIG    1       26.025 -28.839   9.180  0.00  0.00    +0.202 C 
ATOM     30  O   LIG    1       26.739 -28.494  10.134  0.00  0.00    -0.291 OA
BRANCH  29  31
ATOM     31  C   LIG    1       26.110 -28.089   7.846  0.00  0.00    +0.309 C 
BRANCH  31  32
ATOM     32  O   LIG    1       24.815 -27.745   7.361  0.00  0.00    -0.457 OA
BRANCH  32  33
ATOM     33  C   LIG    1       24.715 -27.783   6.010  0.00  0.00    +0.307 C 
ATOM     34  O   LIG    1       24.569 -28.899   5.337  0.00  0.00    -0.251 OA
BRANCH  33  35
ATOM     35  C   LIG    1       24.864 -26.391   5.430  0.00  0.00    +0.120 C 
BRANCH  35  36
ATOM     36  C   LIG    1       23.977 -25.294   6.231  0.00  0.00    +0.011 C 
BRANCH  36  38
ATOM     37  C   LIG    1       25.720 -23.305   7.396  0.00  0.00    +0.004 C 
ATOM     38  C   LIG    1       24.423 -23.730   6.544  0.00  0.00    -0.003 C 
ENDBRANCH  36  38
ENDBRANCH  35  36
ENDBRANCH  33  35
ENDBRANCH  32  33
ENDBRANCH  31  32
ENDBRANCH  29  31
ENDBRANCH   1  29
BRANCH   3  39
ATOM     39  O   LIG    1       24.322 -32.993  10.392  0.00  0.00    -0.343 OA
BRANCH  39  40
ATOM     40  C   LIG    1       23.433 -33.569  11.383  0.00  0.00    +0.253 C 
ATOM     41  O   LIG    1       23.918 -33.272  12.692  0.00  0.00    -0.346 OA
ATOM     42  C   LIG    1       23.152 -33.825  13.762  0.00  0.00    +0.148 C 
ATOM     43  C   LIG    1       23.813 -33.442  15.091  0.00  0.00    +0.040 C 
ATOM     44  C   LIG    1       21.742 -33.260  13.727  0.00  0.00    +0.163 C 
ATOM     45  C   LIG    1       21.069 -33.558  12.378  0.00  0.00    +0.109 C 
ATOM     46  C   LIG    1       21.962 -33.076  11.206  0.00  0.00    +0.086 C 
BRANCH  45  47
ATOM     47  N   LIG    1       19.663 -33.083  12.295  0.00  0.00    -0.302 N 
ATOM     48  H   LIG    1       18.941 -33.755  12.550  0.00  0.00    +0.149 HD
ATOM     49  C   LIG    1       19.242 -31.755  12.139  0.00  0.00    +0.318 C 
ATOM     50  O   LIG    1       20.002 -30.769  12.076  0.00  0.00    -0.266 OA
BRANCH  49  51
ATOM     51  C   LIG    1       17.734 -31.520  12.140  0.00  0.00    +0.469 C 
ATOM     52  F   LIG    1       17.037 -32.592  12.603  0.00  0.00    -0.162 F 
ATOM     53  F   LIG    1       17.238 -31.224  10.908  0.00  0.00    -0.162 F 
ATOM     54  F   LIG    1       17.408 -30.472  12.952  0.00  0.00    -0.162 F 
ENDBRANCH  49  51
ENDBRANCH  45  47
BRANCH  44  55
ATOM     55  O   LIG    1       21.880 -31.842  13.892  0.00  0.00    -0.387 OA
ATOM     56  H   LIG    1       22.630 -31.702  14.497  0.00  0.00    +0.210 HD
ENDBRANCH  44  55
ENDBRANCH  39  40
ENDBRANCH   3  39
TORSDOF 16
ENDMDL
MODEL 2
REMARK VINA RESULT:      -5.2      4.057      8.090
REMARK  Name = *****
REMARK                            x       y       z     vdW  Elec       q    Type
REMARK                         _______ _______ _______ _____ _____    ______ ____
ROOT
ATOM      1  C   LIG    1       23.511 -31.776   9.088  0.00  0.00    +0.134 C 
ATOM      2  C   LIG    1       23.623 -30.217   9.049  0.00  0.00    +0.079 C 
ATOM      3  C   LIG    1       24.749 -29.644   9.954  0.00  0.00    +0.158 C 
ATOM      4  C   LIG    1       24.526 -30.318  11.300  0.00  0.00    +0.030 A 
ATOM      5  C   LIG    1       24.717 -31.703  11.334  0.00  0.00    +0.007 A 
ATOM      6  C   LIG    1       24.725 -32.375  12.557  0.00  0.00    +0.132 A 
ATOM      7  C   LIG    1       24.152 -31.772  13.683  0.00  0.00    +0.078 A 
ATOM      8  C   LIG    1       23.711 -32.671  14.762  0.00  0.00    +0.198 C 
ATOM      9  O   LIG    1       24.465 -33.548  15.159  0.00  0.00    -0.286 OA
ATOM     10  C   LIG    1       22.254 -32.619  15.081  0.00  0.00    +0.037 A 
ATOM     11  C   LIG    1       21.536 -31.409  14.908  0.00  0.00    +0.075 A 
ATOM     12  C   LIG    1       20.109 -31.395  15.091  0.00  0.00    +0.132 A 
ATOM     13  C   LIG    1       19.459 -32.619  15.336  0.00  0.00    +0.046 A 
ATOM     14  C   LIG    1       20.186 -33.816  15.481  0.00  0.00    +0.004 A 
ATOM     15  C   LIG    1       22.321 -30.235  14.339  0.00  0.00    +0.202 C 
ATOM     16  O   LIG    1       21.888 -29.090  14.316  0.00  0.00    -0.286 OA
ATOM     17  C   LIG    1       21.580 -33.823  15.359  0.00  0.00    +0.012 A 
ATOM     18  C   LIG    1       23.572 -30.514  13.550  0.00  0.00    +0.078 A 
ATOM     19  C   LIG    1       23.872 -29.739  12.397  0.00  0.00    +0.135 A 
ATOM     20  C   LIG    1       24.589 -32.444  10.005  0.00  0.00    +0.082 C 
ENDROOT
BRANCH   1  21
ATOM     21  O   LIG    1       23.665 -32.234   7.721  0.00  0.00    -0.381 OA
ATOM     22  H   LIG    1       22.756 -32.414   7.393  0.00  0.00    +0.211 HD
ENDBRANCH   1  21
BRANCH  19  23
ATOM     23  O   LIG    1       23.315 -28.505  12.166  0.00  0.00    -0.506 OA
ATOM     24  H   LIG    1       22.743 -28.566  11.368  0.00  0.00    +0.292 HD
ENDBRANCH  19  23
BRANCH   6  25
ATOM     25  O   LIG    1       25.047 -33.705  12.523  0.00  0.00    -0.506 OA
ATOM     26  H   LIG    1       25.401 -33.935  11.636  0.00  0.00    +0.292 HD
ENDBRANCH   6  25
BRANCH  12  27
ATOM     27  O   LIG    1       19.391 -30.231  14.890  0.00  0.00    -0.494 OA
ATOM     28  C   LIG    1       18.734 -29.937  13.634  0.00  0.00    +0.277 C 
ENDBRANCH  12  27
BRANCH   1  29
ATOM     29  C   LIG    1       22.055 -32.276   9.363  0.00  0.00    +0.202 C 
ATOM     30  O   LIG    1       21.613 -33.271   8.768  0.00  0.00    -0.291 OA
BRANCH  29  31
ATOM     31  C   LIG    1       21.297 -31.698  10.563  0.00  0.00    +0.309 C 
BRANCH  31  32
ATOM     32  O   LIG    1       20.193 -30.900  10.142  0.00  0.00    -0.457 OA
BRANCH  32  33
ATOM     33  C   LIG    1       18.996 -31.523  10.271  0.00  0.00    +0.307 C 
ATOM     34  O   LIG    1       17.913 -31.119   9.652  0.00  0.00    -0.251 OA
BRANCH  33  35
ATOM     35  C   LIG    1       19.100 -32.668  11.258  0.00  0.00    +0.120 C 
BRANCH  35  36
ATOM     36  C   LIG    1       17.648 -33.278  11.646  0.00  0.00    +0.011 C 
BRANCH  36  38
ATOM     37  C   LIG    1       16.028 -32.397  13.871  0.00  0.00    +0.004 C 
ATOM     38  C   LIG    1       16.386 -32.430  12.303  0.00  0.00    -0.003 C 
ENDBRANCH  36  38
ENDBRANCH  35  36
ENDBRANCH  33  35
ENDBRANCH  32  33
ENDBRANCH  31  32
ENDBRANCH  29  31
ENDBRANCH   1  29
BRANCH   3  39
ATOM     39  O   LIG    1       26.062 -29.916   9.368  0.00  0.00    -0.343 OA
BRANCH  39  40
ATOM     40  C   LIG    1       26.206 -29.473   7.994  0.00  0.00    +0.253 C 
ATOM     41  O   LIG    1       25.649 -30.449   7.115  0.00  0.00    -0.346 OA
ATOM     42  C   LIG    1       25.768 -30.150   5.725  0.00  0.00    +0.148 C 
ATOM     43  C   LIG    1       25.151 -31.299   4.918  0.00  0.00    +0.040 C 
ATOM     44  C   LIG    1       25.021 -28.865   5.411  0.00  0.00    +0.163 C 
ATOM     45  C   LIG    1       25.561 -27.700   6.256  0.00  0.00    +0.109 C 
ATOM     46  C   LIG    1       25.556 -28.072   7.762  0.00  0.00    +0.086 C 
BRANCH  45  47
ATOM     47  N   LIG    1       24.913 -26.396   5.959  0.00  0.00    -0.302 N 
ATOM     48  H   LIG    1       24.071 -26.429   5.386  0.00  0.00    +0.149 HD
ATOM     49  C   LIG    1       25.195 -25.168   6.574  0.00  0.00    +0.318 C 
ATOM     50  O   LIG    1       26.022 -25.004   7.491  0.00  0.00    -0.266 OA
BRANCH  49  51
ATOM     51  C   LIG    1       24.346 -23.980   6.130  0.00  0.00    +0.469 C 
ATOM     52  F   LIG    1       24.446 -23.734   4.796  0.00  0.00    -0.162 F 
ATOM     53  F   LIG    1       24.666 -22.825   6.773  0.00  0.00    -0.162 F 
ATOM     54  F   LIG    1       23.024 -24.210   6.378  0.00  0.00    -0.162 F 
ENDBRANCH  49  51
ENDBRANCH  45  47
BRANCH  44  55
ATOM     55  O   LIG    1       23.651 -29.110   5.753  0.00  0.00    -0.387 OA
ATOM     56  H   LIG    1       23.112 -28.534   5.182  0.00  0.00    +0.210 HD
ENDBRANCH  44  55
ENDBRANCH  39  40
ENDBRANCH   3  39
TORSDOF 16
ENDMDL
MODEL 3
REMARK VINA RESULT:      -4.8      4.311      7.963
REMARK  Name = *****
REMARK                            x       y       z     vdW  Elec       q    Type
REMARK                         _______ _______ _______ _____ _____    ______ ____
ROOT
ATOM      1  C   LIG    1       26.618 -31.408   8.963  0.00  0.00    +0.134 C 
ATOM      2  C   LIG    1       25.546 -30.514   8.258  0.00  0.00    +0.079 C 
ATOM      3  C   LIG    1       25.418 -29.089   8.863  0.00  0.00    +0.158 C 
ATOM      4  C   LIG    1       25.288 -29.329  10.361  0.00  0.00    +0.030 A 
ATOM      5  C   LIG    1       26.404 -29.882  10.995  0.00  0.00    +0.007 A 
ATOM      6  C   LIG    1       26.448 -29.956  12.388  0.00  0.00    +0.132 A 
ATOM      7  C   LIG    1       25.261 -29.869  13.125  0.00  0.00    +0.078 A 
ATOM      8  C   LIG    1       25.273 -30.465  14.471  0.00  0.00    +0.198 C 
ATOM      9  O   LIG    1       26.196 -30.209  15.231  0.00  0.00    -0.286 OA
ATOM     10  C   LIG    1       24.296 -31.571  14.689  0.00  0.00    +0.037 A 
ATOM     11  C   LIG    1       23.065 -31.574  13.987  0.00  0.00    +0.075 A 
ATOM     12  C   LIG    1       22.184 -32.706  14.101  0.00  0.00    +0.132 A 
ATOM     13  C   LIG    1       22.630 -33.825  14.829  0.00  0.00    +0.046 A 
ATOM     14  C   LIG    1       23.867 -33.813  15.500  0.00  0.00    +0.004 A 
ATOM     15  C   LIG    1       22.852 -30.441  12.994  0.00  0.00    +0.202 C 
ATOM     16  O   LIG    1       21.772 -30.210  12.464  0.00  0.00    -0.286 OA
ATOM     17  C   LIG    1       24.702 -32.692  15.438  0.00  0.00    +0.012 A 
ATOM     18  C   LIG    1       24.056 -29.725  12.442  0.00  0.00    +0.078 A 
ATOM     19  C   LIG    1       24.083 -29.328  11.078  0.00  0.00    +0.135 A 
ATOM     20  C   LIG    1       27.375 -30.662  10.113  0.00  0.00    +0.082 C 
ENDROOT
BRANCH   1  21
ATOM     21  O   LIG    1       27.554 -31.818   7.934  0.00  0.00    -0.381 OA
ATOM     22  H   LIG    1       27.238 -31.403   7.102  0.00  0.00    +0.211 HD
ENDBRANCH   1  21
BRANCH  19  23
ATOM     23  O   LIG    1       22.946 -29.198  10.319  0.00  0.00    -0.506 OA
ATOM     24  H   LIG    1       22.649 -30.096  10.047  0.00  0.00    +0.292 HD
ENDBRANCH  19  23
BRANCH   6  25
ATOM     25  O   LIG    1       27.624 -30.387  12.942  0.00  0.00    -0.506 OA
ATOM     26  H   LIG    1       27.563 -31.349  13.133  0.00  0.00    +0.292 HD
ENDBRANCH   6  25
BRANCH  12  27
ATOM     27  O   LIG    1       20.996 -32.739  13.394  0.00  0.00    -0.494 OA
ATOM     28  C   LIG    1       19.709 -32.809  14.051  0.00  0.00    +0.277 C 
ENDBRANCH  12  27
BRANCH   1  29
ATOM     29  C   LIG    1       26.066 -32.810   9.380  0.00  0.00    +0.202 C 
ATOM     30  O   LIG    1       26.829 -33.786   9.453  0.00  0.00    -0.291 OA
BRANCH  29  31
ATOM     31  C   LIG    1       24.650 -32.896   9.959  0.00  0.00    +0.309 C 
BRANCH  31  32
ATOM     32  O   LIG    1       23.849 -33.825   9.233  0.00  0.00    -0.457 OA
BRANCH  32  33
ATOM     33  C   LIG    1       22.887 -33.237   8.480  0.00  0.00    +0.307 C 
ATOM     34  O   LIG    1       22.000 -32.409   8.976  0.00  0.00    -0.251 OA
BRANCH  33  35
ATOM     35  C   LIG    1       22.964 -33.729   7.048  0.00  0.00    +0.120 C 
BRANCH  35  36
ATOM     36  C   LIG    1       23.936 -32.807   6.134  0.00  0.00    +0.011 C 
BRANCH  36  38
ATOM     37  C   LIG    1       25.729 -32.471   3.893  0.00  0.00    +0.004 C 
ATOM     38  C   LIG    1       24.481 -33.183   4.615  0.00  0.00    -0.003 C 
ENDBRANCH  36  38
ENDBRANCH  35  36
ENDBRANCH  33  35
ENDBRANCH  32  33
ENDBRANCH  31  32
ENDBRANCH  29  31
ENDBRANCH   1  29
BRANCH   3  39
ATOM     39  O   LIG    1       26.577 -28.273   8.494  0.00  0.00    -0.343 OA
BRANCH  39  40
ATOM     40  C   LIG    1       26.475 -27.649   7.189  0.00  0.00    +0.253 C 
ATOM     41  O   LIG    1       25.502 -28.336   6.404  0.00  0.00    -0.346 OA
ATOM     42  C   LIG    1       25.339 -27.844   5.075  0.00  0.00    +0.148 C 
ATOM     43  C   LIG    1       24.286 -28.697   4.358  0.00  0.00    +0.040 C 
ATOM     44  C   LIG    1       24.865 -26.401   5.117  0.00  0.00    +0.163 C 
ATOM     45  C   LIG    1       25.858 -25.523   5.893  0.00  0.00    +0.109 C 
ATOM     46  C   LIG    1       26.139 -26.128   7.294  0.00  0.00    +0.086 C 
BRANCH  45  47
ATOM     47  N   LIG    1       25.486 -24.085   5.926  0.00  0.00    -0.302 N 
ATOM     48  H   LIG    1       26.077 -23.451   5.390  0.00  0.00    +0.149 HD
ATOM     49  C   LIG    1       24.284 -23.548   6.410  0.00  0.00    +0.318 C 
ATOM     50  O   LIG    1       23.335 -24.217   6.861  0.00  0.00    -0.266 OA
BRANCH  49  51
ATOM     51  C   LIG    1       24.118 -22.037   6.278  0.00  0.00    +0.469 C 
ATOM     52  F   LIG    1       22.954 -21.688   5.667  0.00  0.00    -0.162 F 
ATOM     53  F   LIG    1       25.126 -21.447   5.579  0.00  0.00    -0.162 F 
ATOM     54  F   LIG    1       24.099 -21.442   7.507  0.00  0.00    -0.162 F 
ENDBRANCH  49  51
ENDBRANCH  45  47
BRANCH  44  55
ATOM     55  O   LIG    1       23.604 -26.419   5.800  0.00  0.00    -0.387 OA
ATOM     56  H   LIG    1       23.143 -25.596   5.559  0.00  0.00    +0.210 HD
ENDBRANCH  44  55
ENDBRANCH  39  40
ENDBRANCH   3  39
TORSDOF 16
ENDMDL
MODEL 4
REMARK VINA RESULT:      -4.4      4.314      8.105
REMARK  Name = *****
REMARK                            x       y       z     vdW  Elec       q    Type
REMARK                         _______ _______ _______ _____ _____    ______ ____
ROOT
ATOM      1  C   LIG    1       26.495 -30.892   8.692  0.00  0.00    +0.134 C 
ATOM      2  C   LIG    1       25.325 -29.905   8.375  0.00  0.00    +0.079 C 
ATOM      3  C   LIG    1       25.436 -28.541   9.109  0.00  0.00    +0.158 C 
ATOM      4  C   LIG    1       25.689 -28.917  10.562  0.00  0.00    +0.030 A 
ATOM      5  C   LIG    1       26.901 -29.560  10.828  0.00  0.00    +0.007 A 
ATOM      6  C   LIG    1       27.304 -29.767  12.148  0.00  0.00    +0.132 A 
ATOM      7  C   LIG    1       26.358 -29.716  13.178  0.00  0.00    +0.078 A 
ATOM      8  C   LIG    1       26.690 -30.437  14.418  0.00  0.00    +0.198 C 
ATOM      9  O   LIG    1       27.792 -30.281  14.925  0.00  0.00    -0.286 OA
ATOM     10  C   LIG    1       25.747 -31.530  14.795  0.00  0.00    +0.037 A 
ATOM     11  C   LIG    1       24.376 -31.430  14.447  0.00  0.00    +0.075 A 
ATOM     12  C   LIG    1       23.497 -32.542  14.695  0.00  0.00    +0.132 A 
ATOM     13  C   LIG    1       24.058 -33.737  15.183  0.00  0.00    +0.046 A 
ATOM     14  C   LIG    1       25.426 -33.825  15.500  0.00  0.00    +0.004 A 
ATOM     15  C   LIG    1       23.972 -30.203  13.644  0.00  0.00    +0.202 C 
ATOM     16  O   LIG    1       22.804 -29.891  13.442  0.00  0.00    -0.286 OA
ATOM     17  C   LIG    1       26.274 -32.728  15.312  0.00  0.00    +0.012 A 
ATOM     18  C   LIG    1       25.026 -29.473  12.855  0.00  0.00    +0.078 A 
ATOM     19  C   LIG    1       24.716 -28.949  11.570  0.00  0.00    +0.135 A 
ATOM     20  C   LIG    1       27.565 -30.282   9.658  0.00  0.00    +0.082 C 
ENDROOT
BRANCH   1  21
ATOM     21  O   LIG    1       27.105 -31.231   7.421  0.00  0.00    -0.381 OA
ATOM     22  H   LIG    1       27.925 -30.693   7.364  0.00  0.00    +0.211 HD
ENDBRANCH   1  21
BRANCH  19  23
ATOM     23  O   LIG    1       23.428 -28.715  11.155  0.00  0.00    -0.506 OA
ATOM     24  H   LIG    1       23.180 -27.798  11.414  0.00  0.00    +0.292 HD
ENDBRANCH  19  23
BRANCH   6  25
ATOM     25  O   LIG    1       28.559 -30.283  12.332  0.00  0.00    -0.506 OA
ATOM     26  H   LIG    1       29.147 -29.591  12.706  0.00  0.00    +0.292 HD
ENDBRANCH   6  25
BRANCH  12  27
ATOM     27  O   LIG    1       22.165 -32.473  14.329  0.00  0.00    -0.494 OA
ATOM     28  C   LIG    1       21.408 -33.647  13.951  0.00  0.00    +0.277 C 
ENDBRANCH  12  27
BRANCH   1  29
ATOM     29  C   LIG    1       25.997 -32.311   9.122  0.00  0.00    +0.202 C 
ATOM     30  O   LIG    1       26.393 -32.819  10.183  0.00  0.00    -0.291 OA
BRANCH  29  31
ATOM     31  C   LIG    1       24.817 -32.932   8.366  0.00  0.00    +0.309 C 
BRANCH  31  32
ATOM     32  O   LIG    1       23.837 -33.442   9.267  0.00  0.00    -0.457 OA
BRANCH  32  33
ATOM     33  C   LIG    1       22.745 -32.648   9.385  0.00  0.00    +0.307 C 
ATOM     34  O   LIG    1       22.637 -31.490   8.780  0.00  0.00    -0.251 OA
BRANCH  33  35
ATOM     35  C   LIG    1       21.745 -33.263  10.344  0.00  0.00    +0.120 C 
BRANCH  35  36
ATOM     36  C   LIG    1       20.213 -33.034   9.865  0.00  0.00    +0.011 C 
BRANCH  36  38
ATOM     37  C   LIG    1       17.948 -31.242   9.751  0.00  0.00    +0.004 C 
ATOM     38  C   LIG    1       19.131 -31.984  10.551  0.00  0.00    -0.003 C 
ENDBRANCH  36  38
ENDBRANCH  35  36
ENDBRANCH  33  35
ENDBRANCH  32  33
ENDBRANCH  31  32
ENDBRANCH  29  31
ENDBRANCH   1  29
BRANCH   3  39
ATOM     39  O   LIG    1       26.499 -27.728   8.515  0.00  0.00    -0.343 OA
BRANCH  39  40
ATOM     40  C   LIG    1       26.272 -27.369   7.128  0.00  0.00    +0.253 C 
ATOM     41  O   LIG    1       25.173 -28.119   6.613  0.00  0.00    -0.346 OA
ATOM     42  C   LIG    1       24.875 -27.890   5.237  0.00  0.00    +0.148 C 
ATOM     43  C   LIG    1       23.696 -28.783   4.831  0.00  0.00    +0.040 C 
ATOM     44  C   LIG    1       24.490 -26.435   5.032  0.00  0.00    +0.163 C 
ATOM     45  C   LIG    1       25.618 -25.501   5.497  0.00  0.00    +0.109 C 
ATOM     46  C   LIG    1       26.036 -25.836   6.952  0.00  0.00    +0.086 C 
BRANCH  45  47
ATOM     47  N   LIG    1       25.332 -24.060   5.272  0.00  0.00    -0.302 N 
ATOM     48  H   LIG    1       25.658 -23.665   4.391  0.00  0.00    +0.149 HD
ATOM     49  C   LIG    1       24.462 -23.258   6.024  0.00  0.00    +0.318 C 
ATOM     50  O   LIG    1       23.775 -23.657   6.983  0.00  0.00    -0.266 OA
BRANCH  49  51
ATOM     51  C   LIG    1       24.296 -21.816   5.552  0.00  0.00    +0.469 C 
ATOM     52  F   LIG    1       23.012 -21.377   5.652  0.00  0.00    -0.162 F 
ATOM     53  F   LIG    1       24.682 -21.628   4.261  0.00  0.00    -0.162 F 
ATOM     54  F   LIG    1       25.050 -20.968   6.311  0.00  0.00    -0.162 F 
ENDBRANCH  49  51
ENDBRANCH  45  47
BRANCH  44  55
ATOM     55  O   LIG    1       23.324 -26.217   5.837  0.00  0.00    -0.387 OA
ATOM     56  H   LIG    1       23.633 -25.844   6.682  0.00  0.00    +0.210 HD
ENDBRANCH  44  55
ENDBRANCH  39  40
ENDBRANCH   3  39
TORSDOF 16
ENDMDL
MODEL 5
REMARK VINA RESULT:      -3.2      4.151      8.329
REMARK  Name = *****
REMARK                            x       y       z     vdW  Elec       q    Type
REMARK                         _______ _______ _______ _____ _____    ______ ____
ROOT
ATOM      1  C   LIG    1       23.818 -31.135   8.530  0.00  0.00    +0.134 C 
ATOM      2  C   LIG    1       23.812 -29.573   8.587  0.00  0.00    +0.079 C 
ATOM      3  C   LIG    1       25.083 -28.962   9.238  0.00  0.00    +0.158 C 
ATOM      4  C   LIG    1       25.242 -29.732  10.542  0.00  0.00    +0.030 A 
ATOM      5  C   LIG    1       25.529 -31.094  10.421  0.00  0.00    +0.007 A 
ATOM      6  C   LIG    1       25.881 -31.835  11.550  0.00  0.00    +0.132 A 
ATOM      7  C   LIG    1       25.562 -31.351  12.824  0.00  0.00    +0.078 A 
ATOM      8  C   LIG    1       25.459 -32.346  13.904  0.00  0.00    +0.198 C 
ATOM      9  O   LIG    1       26.345 -33.178  14.039  0.00  0.00    -0.286 OA
ATOM     10  C   LIG    1       24.125 -32.436  14.565  0.00  0.00    +0.037 A 
ATOM     11  C   LIG    1       23.307 -31.283  14.663  0.00  0.00    +0.075 A 
ATOM     12  C   LIG    1       21.970 -31.401  15.183  0.00  0.00    +0.132 A 
ATOM     13  C   LIG    1       21.484 -32.688  15.480  0.00  0.00    +0.046 A 
ATOM     14  C   LIG    1       22.303 -33.825  15.353  0.00  0.00    +0.004 A 
ATOM     15  C   LIG    1       23.847 -30.016  14.017  0.00  0.00    +0.202 C 
ATOM     16  O   LIG    1       23.345 -28.911  14.188  0.00  0.00    -0.286 OA
ATOM     17  C   LIG    1       23.622 -33.707  14.901  0.00  0.00    +0.012 A 
ATOM     18  C   LIG    1       24.883 -30.140  12.932  0.00  0.00    +0.078 A 
ATOM     19  C   LIG    1       24.839 -29.276  11.805  0.00  0.00    +0.135 A 
ATOM     20  C   LIG    1       25.131 -31.763   9.107  0.00  0.00    +0.082 C 
ENDROOT
BRANCH   1  21
ATOM     21  O   LIG    1       23.664 -31.497   7.134  0.00  0.00    -0.381 OA
ATOM     22  H   LIG    1       23.016 -30.860   6.761  0.00  0.00    +0.211 HD
ENDBRANCH   1  21
BRANCH  19  23
ATOM     23  O   LIG    1       24.161 -28.081  11.811  0.00  0.00    -0.506 OA
ATOM     24  H   LIG    1       24.116 -27.744  10.888  0.00  0.00    +0.292 HD
ENDBRANCH  19  23
BRANCH   6  25
ATOM     25  O   LIG    1       26.275 -33.129  11.336  0.00  0.00    -0.506 OA
ATOM     26  H   LIG    1       25.618 -33.742  11.734  0.00  0.00    +0.292 HD
ENDBRANCH   6  25
BRANCH  12  27
ATOM     27  O   LIG    1       21.148 -30.291  15.251  0.00  0.00    -0.494 OA
ATOM     28  C   LIG    1       19.935 -30.181  14.469  0.00  0.00    +0.277 C 
ENDBRANCH  12  27
BRANCH   1  29
ATOM     29  C   LIG    1       22.511 -31.772   9.105  0.00  0.00    +0.202 C 
ATOM     30  O   LIG    1       21.994 -32.752   8.546  0.00  0.00    -0.291 OA
BRANCH  29  31
ATOM     31  C   LIG    1       22.046 -31.351  10.503  0.00  0.00    +0.309 C 
BRANCH  31  32
ATOM     32  O   LIG    1       20.710 -31.781  10.756  0.00  0.00    -0.457 OA
BRANCH  32  33
ATOM     33  C   LIG    1       20.624 -32.755  11.695  0.00  0.00    +0.307 C 
ATOM     34  O   LIG    1       21.633 -33.528  12.013  0.00  0.00    -0.251 OA
BRANCH  33  35
ATOM     35  C   LIG    1       19.212 -32.840  12.239  0.00  0.00    +0.120 C 
BRANCH  35  36
ATOM     36  C   LIG    1       18.172 -33.446  11.153  0.00  0.00    +0.011 C 
BRANCH  36  38
ATOM     37  C   LIG    1       18.022 -33.629   8.273  0.00  0.00    +0.004 C 
ATOM     38  C   LIG    1       17.861 -32.817   9.652  0.00  0.00    -0.003 C 
ENDBRANCH  36  38
ENDBRANCH  35  36
ENDBRANCH  33  35
ENDBRANCH  32  33
ENDBRANCH  31  32
ENDBRANCH  29  31
ENDBRANCH   1  29
BRANCH   3  39
ATOM     39  O   LIG    1       26.229 -29.087   8.336  0.00  0.00    -0.343 OA
BRANCH  39  40
ATOM     40  C   LIG    1       26.315 -28.043   7.332  0.00  0.00    +0.253 C 
ATOM     41  O   LIG    1       25.538 -28.409   6.193  0.00  0.00    -0.346 OA
ATOM     42  C   LIG    1       25.576 -27.480   5.110  0.00  0.00    +0.148 C 
ATOM     43  C   LIG    1       24.720 -28.026   3.961  0.00  0.00    +0.040 C 
ATOM     44  C   LIG    1       25.008 -26.145   5.561  0.00  0.00    +0.163 C 
ATOM     45  C   LIG    1       25.794 -25.597   6.763  0.00  0.00    +0.109 C 
ATOM     46  C   LIG    1       25.868 -26.656   7.893  0.00  0.00    +0.086 C 
BRANCH  45  47
ATOM     47  N   LIG    1       25.329 -24.262   7.222  0.00  0.00    -0.302 N 
ATOM     48  H   LIG    1       25.401 -24.076   8.221  0.00  0.00    +0.149 HD
ATOM     49  C   LIG    1       25.031 -23.160   6.408  0.00  0.00    +0.318 C 
ATOM     50  O   LIG    1       25.146 -23.138   5.168  0.00  0.00    -0.266 OA
BRANCH  49  51
ATOM     51  C   LIG    1       24.627 -21.877   7.130  0.00  0.00    +0.469 C 
ATOM     52  F   LIG    1       24.127 -20.935   6.284  0.00  0.00    -0.162 F 
ATOM     53  F   LIG    1       25.654 -21.298   7.808  0.00  0.00    -0.162 F 
ATOM     54  F   LIG    1       23.647 -22.126   8.047  0.00  0.00    -0.162 F 
ENDBRANCH  49  51
ENDBRANCH  45  47
BRANCH  44  55
ATOM     55  O   LIG    1       23.653 -26.402   5.951  0.00  0.00    -0.387 OA
ATOM     56  H   LIG    1       23.109 -25.698   5.555  0.00  0.00    +0.210 HD
ENDBRANCH  44  55
ENDBRANCH  39  40
ENDBRANCH   3  39
TORSDOF 16
ENDMDL
MODEL 6
REMARK VINA RESULT:      -3.0      2.928      6.907
REMARK  Name = *****
REMARK                            x       y       z     vdW  Elec       q    Type
REMARK                         _______ _______ _______ _____ _____    ______ ____
ROOT
ATOM      1  C   LIG    1       26.052 -28.722  10.394  0.00  0.00    +0.134 C 
ATOM      2  C   LIG    1       24.819 -29.230  11.211  0.00  0.00    +0.079 C 
ATOM      3  C   LIG    1       25.043 -30.604  11.900  0.00  0.00    +0.158 C 
ATOM      4  C   LIG    1       25.592 -31.493  10.793  0.00  0.00    +0.030 A 
ATOM      5  C   LIG    1       26.848 -31.143  10.289  0.00  0.00    +0.007 A 
ATOM      6  C   LIG    1       27.512 -32.005   9.415  0.00  0.00    +0.132 A 
ATOM      7  C   LIG    1       26.791 -32.990   8.730  0.00  0.00    +0.078 A 
ATOM      8  C   LIG    1       27.383 -33.494   7.480  0.00  0.00    +0.198 C 
ATOM      9  O   LIG    1       28.560 -33.824   7.465  0.00  0.00    -0.286 OA
ATOM     10  C   LIG    1       26.561 -33.283   6.254  0.00  0.00    +0.037 A 
ATOM     11  C   LIG    1       25.146 -33.270   6.345  0.00  0.00    +0.075 A 
ATOM     12  C   LIG    1       24.361 -32.937   5.187  0.00  0.00    +0.132 A 
ATOM     13  C   LIG    1       25.036 -32.531   4.021  0.00  0.00    +0.046 A 
ATOM     14  C   LIG    1       26.442 -32.526   3.955  0.00  0.00    +0.004 A 
ATOM     15  C   LIG    1       24.559 -33.423   7.741  0.00  0.00    +0.202 C 
ATOM     16  O   LIG    1       23.368 -33.621   7.948  0.00  0.00    -0.286 OA
ATOM     17  C   LIG    1       27.209 -32.904   5.064  0.00  0.00    +0.012 A 
ATOM     18  C   LIG    1       25.416 -33.075   8.929  0.00  0.00    +0.078 A 
ATOM     19  C   LIG    1       24.842 -32.416  10.050  0.00  0.00    +0.135 A 
ATOM     20  C   LIG    1       27.280 -29.690  10.475  0.00  0.00    +0.082 C 
ENDROOT
BRANCH   1  21
ATOM     21  O   LIG    1       26.402 -27.425  10.941  0.00  0.00    -0.381 OA
ATOM     22  H   LIG    1       25.886 -27.335  11.772  0.00  0.00    +0.211 HD
ENDBRANCH   1  21
BRANCH  19  23
ATOM     23  O   LIG    1       23.492 -32.417  10.301  0.00  0.00    -0.506 OA
ATOM     24  H   LIG    1       23.170 -33.346  10.268  0.00  0.00    +0.292 HD
ENDBRANCH  19  23
BRANCH   6  25
ATOM     25  O   LIG    1       28.791 -31.658   9.066  0.00  0.00    -0.506 OA
ATOM     26  H   LIG    1       28.799 -31.319   8.145  0.00  0.00    +0.292 HD
ENDBRANCH   6  25
BRANCH  12  27
ATOM     27  O   LIG    1       22.982 -32.885   5.270  0.00  0.00    -0.494 OA
ATOM     28  C   LIG    1       22.131 -33.824   4.572  0.00  0.00    +0.277 C 
ENDBRANCH  12  27
BRANCH   1  29
ATOM     29  C   LIG    1       25.684 -28.294   8.936  0.00  0.00    +0.202 C 
ATOM     30  O   LIG    1       26.295 -27.365   8.384  0.00  0.00    -0.291 OA
BRANCH  29  31
ATOM     31  C   LIG    1       24.768 -29.207   8.115  0.00  0.00    +0.309 C 
BRANCH  31  32
ATOM     32  O   LIG    1       24.179 -28.503   7.024  0.00  0.00    -0.457 OA
BRANCH  32  33
ATOM     33  C   LIG    1       24.948 -28.495   5.907  0.00  0.00    +0.307 C 
ATOM     34  O   LIG    1       25.454 -29.585   5.383  0.00  0.00    -0.251 OA
BRANCH  33  35
ATOM     35  C   LIG    1       25.171 -27.074   5.430  0.00  0.00    +0.120 C 
BRANCH  35  36
ATOM     36  C   LIG    1       24.098 -26.038   6.065  0.00  0.00    +0.011 C 
BRANCH  36  38
ATOM     37  C   LIG    1       25.849 -23.867   6.821  0.00  0.00    +0.004 C 
ATOM     38  C   LIG    1       24.396 -24.458   6.463  0.00  0.00    -0.003 C 
ENDBRANCH  36  38
ENDBRANCH  35  36
ENDBRANCH  33  35
ENDBRANCH  32  33
ENDBRANCH  31  32
ENDBRANCH  29  31
ENDBRANCH   1  29
BRANCH   3  39
ATOM     39  O   LIG    1       25.946 -30.460  13.043  0.00  0.00    -0.343 OA
BRANCH  39  40
ATOM     40  C   LIG    1       25.532 -29.458  14.008  0.00  0.00    +0.253 C 
ATOM     41  O   LIG    1       26.276 -28.258  13.802  0.00  0.00    -0.346 OA
ATOM     42  C   LIG    1       25.992 -27.204  14.721  0.00  0.00    +0.148 C 
ATOM     43  C   LIG    1       26.884 -26.003  14.386  0.00  0.00    +0.040 C 
ATOM     44  C   LIG    1       24.535 -26.792  14.593  0.00  0.00    +0.163 C 
ATOM     45  C   LIG    1       23.605 -27.989  14.849  0.00  0.00    +0.109 C 
ATOM     46  C   LIG    1       23.996 -29.184  13.942  0.00  0.00    +0.086 C 
BRANCH  45  47
ATOM     47  N   LIG    1       22.161 -27.644  14.797  0.00  0.00    -0.302 N 
ATOM     48  H   LIG    1       21.736 -27.339  15.672  0.00  0.00    +0.149 HD
ATOM     49  C   LIG    1       21.390 -27.464  13.640  0.00  0.00    +0.318 C 
ATOM     50  O   LIG    1       21.825 -27.542  12.475  0.00  0.00    -0.266 OA
BRANCH  49  51
ATOM     51  C   LIG    1       19.936 -27.055  13.854  0.00  0.00    +0.469 C 
ATOM     52  F   LIG    1       19.093 -28.122  13.906  0.00  0.00    -0.162 F 
ATOM     53  F   LIG    1       19.465 -26.223  12.886  0.00  0.00    -0.162 F 
ATOM     54  F   LIG    1       19.788 -26.393  15.039  0.00  0.00    -0.162 F 
ENDBRANCH  49  51
ENDBRANCH  45  47
BRANCH  44  55
ATOM     55  O   LIG    1       24.370 -26.335  13.245  0.00  0.00    -0.387 OA
ATOM     56  H   LIG    1       24.777 -25.452  13.196  0.00  0.00    +0.210 HD
ENDBRANCH  44  55
ENDBRANCH  39  40
ENDBRANCH   3  39
TORSDOF 16
ENDMDL
