MODEL 1
REMARK VINA RESULT:      -5.4      0.000      0.000
REMARK  Name = *****
REMARK                            x       y       z     vdW  Elec       q    Type
REMARK                         _______ _______ _______ _____ _____    ______ ____
ROOT
ATOM      1  C   LIG    1       23.245 -24.093   6.638  0.00  0.00    +0.144 C 
ATOM      2  N   LIG    1       24.392 -23.297   6.983  0.00  0.00    -0.207 N 
ATOM      3  C   LIG    1       24.332 -22.049   7.514  0.00  0.00    +0.268 C 
ATOM      4  O   LIG    1       23.356 -21.484   7.977  0.00  0.00    -0.271 OA
ATOM      5  C   LIG    1       25.708 -21.466   7.317  0.00  0.00    +0.185 C 
ATOM      6  C   LIG    1       25.741 -20.773   5.954  0.00  0.00    +0.066 C 
ATOM      7  C   LIG    1       26.180 -20.550   8.430  0.00  0.00    +0.066 C 
ATOM      8  O   LIG    1       26.506 -22.659   7.255  0.00  0.00    -0.434 OA
ATOM      9  C   LIG    1       25.677 -23.698   6.932  0.00  0.00    +0.410 C 
ATOM     10  O   LIG    1       26.088 -24.822   6.671  0.00  0.00    -0.226 OA
ENDROOT
TORSDOF 0
ENDMDL
MODEL 2
REMARK VINA RESULT:      -5.4      1.943      3.518
REMARK  Name = *****
REMARK                            x       y       z     vdW  Elec       q    Type
REMARK                         _______ _______ _______ _____ _____    ______ ____
ROOT
ATOM      1  C   LIG    1       27.204 -20.353   6.297  0.00  0.00    +0.144 C 
ATOM      2  N   LIG    1       25.994 -20.909   6.841  0.00  0.00    -0.207 N 
ATOM      3  C   LIG    1       25.083 -21.619   6.128  0.00  0.00    +0.268 C 
ATOM      4  O   LIG    1       25.213 -22.082   5.008  0.00  0.00    -0.271 OA
ATOM      5  C   LIG    1       23.833 -21.627   6.972  0.00  0.00    +0.185 C 
ATOM      6  C   LIG    1       23.005 -20.393   6.606  0.00  0.00    +0.066 C 
ATOM      7  C   LIG    1       23.017 -22.901   6.893  0.00  0.00    +0.066 C 
ATOM      8  O   LIG    1       24.388 -21.446   8.284  0.00  0.00    -0.434 OA
ATOM      9  C   LIG    1       25.634 -20.901   8.139  0.00  0.00    +0.410 C 
ATOM     10  O   LIG    1       26.302 -20.504   9.086  0.00  0.00    -0.226 OA
ENDROOT
TORSDOF 0
ENDMDL
MODEL 3
REMARK VINA RESULT:      -5.3      5.517      6.953
REMARK  Name = *****
REMARK                            x       y       z     vdW  Elec       q    Type
REMARK                         _______ _______ _______ _____ _____    ______ ____
ROOT
ATOM      1  C   LIG    1       29.683 -21.349   7.978  0.00  0.00    +0.144 C 
ATOM      2  N   LIG    1       30.151 -19.989   8.023  0.00  0.00    -0.207 N 
ATOM      3  C   LIG    1       31.171 -19.551   8.802  0.00  0.00    +0.268 C 
ATOM      4  O   LIG    1       31.982 -20.225   9.414  0.00  0.00    -0.271 OA
ATOM      5  C   LIG    1       31.029 -18.050   8.839  0.00  0.00    +0.185 C 
ATOM      6  C   LIG    1       30.114 -17.687  10.010  0.00  0.00    +0.066 C 
ATOM      7  C   LIG    1       32.337 -17.285   8.883  0.00  0.00    +0.066 C 
ATOM      8  O   LIG    1       30.330 -17.812   7.607  0.00  0.00    -0.434 OA
ATOM      9  C   LIG    1       29.727 -18.981   7.236  0.00  0.00    +0.410 C 
ATOM     10  O   LIG    1       28.943 -19.059   6.298  0.00  0.00    -0.226 OA
ENDROOT
TORSDOF 0
ENDMDL
MODEL 4
REMARK VINA RESULT:      -5.3      2.438      3.719
REMARK  Name = *****
REMARK                            x       y       z     vdW  Elec       q    Type
REMARK                         _______ _______ _______ _____ _____    ______ ____
ROOT
ATOM      1  C   LIG    1       28.402 -19.992   7.972  0.00  0.00    +0.144 C 
ATOM      2  N   LIG    1       27.112 -20.334   7.435  0.00  0.00    -0.207 N 
ATOM      3  C   LIG    1       26.024 -20.645   8.185  0.00  0.00    +0.268 C 
ATOM      4  O   LIG    1       25.879 -20.490   9.386  0.00  0.00    -0.271 OA
ATOM      5  C   LIG    1       25.066 -21.320   7.237  0.00  0.00    +0.185 C 
ATOM      6  C   LIG    1       25.370 -22.820   7.242  0.00  0.00    +0.066 C 
ATOM      7  C   LIG    1       23.600 -21.038   7.500  0.00  0.00    +0.066 C 
ATOM      8  O   LIG    1       25.485 -20.762   5.981  0.00  0.00    -0.434 OA
ATOM      9  C   LIG    1       26.761 -20.298   6.135  0.00  0.00    +0.410 C 
ATOM     10  O   LIG    1       27.440 -19.891   5.201  0.00  0.00    -0.226 OA
ENDROOT
TORSDOF 0
ENDMDL
MODEL 5
REMARK VINA RESULT:      -5.2      5.164      6.647
REMARK  Name = *****
REMARK                            x       y       z     vdW  Elec       q    Type
REMARK                         _______ _______ _______ _____ _____    ______ ____
ROOT
ATOM      1  C   LIG    1       31.914 -18.049   8.913  0.00  0.00    +0.144 C 
ATOM      2  N   LIG    1       31.097 -19.107   8.382  0.00  0.00    -0.207 N 
ATOM      3  C   LIG    1       30.166 -18.945   7.408  0.00  0.00    +0.268 C 
ATOM      4  O   LIG    1       30.006 -17.976   6.685  0.00  0.00    -0.271 OA
ATOM      5  C   LIG    1       29.300 -20.177   7.475  0.00  0.00    +0.185 C 
ATOM      6  C   LIG    1       28.164 -19.907   8.463  0.00  0.00    +0.066 C 
ATOM      7  C   LIG    1       28.783 -20.670   6.138  0.00  0.00    +0.066 C 
ATOM      8  O   LIG    1       30.212 -21.122   8.058  0.00  0.00    -0.434 OA
ATOM      9  C   LIG    1       31.199 -20.414   8.687  0.00  0.00    +0.410 C 
ATOM     10  O   LIG    1       32.049 -20.941   9.394  0.00  0.00    -0.226 OA
ENDROOT
TORSDOF 0
ENDMDL
MODEL 6
REMARK VINA RESULT:      -5.1      1.875      3.785
REMARK  Name = *****
REMARK                            x       y       z     vdW  Elec       q    Type
REMARK                         _______ _______ _______ _____ _____    ______ ____
ROOT
ATOM      1  C   LIG    1       24.239 -21.769   6.716  0.00  0.00    +0.144 C 
ATOM      2  N   LIG    1       24.294 -23.205   6.664  0.00  0.00    -0.207 N 
ATOM      3  C   LIG    1       25.439 -23.934   6.700  0.00  0.00    +0.268 C 
ATOM      4  O   LIG    1       26.559 -23.545   6.986  0.00  0.00    -0.271 OA
ATOM      5  C   LIG    1       25.055 -25.306   6.209  0.00  0.00    +0.185 C 
ATOM      6  C   LIG    1       25.210 -25.327   4.687  0.00  0.00    +0.066 C 
ATOM      7  C   LIG    1       25.794 -26.452   6.871  0.00  0.00    +0.066 C 
ATOM      8  O   LIG    1       23.656 -25.332   6.538  0.00  0.00    -0.434 OA
ATOM      9  C   LIG    1       23.237 -24.039   6.678  0.00  0.00    +0.410 C 
ATOM     10  O   LIG    1       22.060 -23.732   6.823  0.00  0.00    -0.226 OA
ENDROOT
TORSDOF 0
ENDMDL
MODEL 7
REMARK VINA RESULT:      -5.1      1.957      2.992
REMARK  Name = *****
REMARK                            x       y       z     vdW  Elec       q    Type
REMARK                         _______ _______ _______ _____ _____    ______ ____
ROOT
ATOM      1  C   LIG    1       25.906 -23.908   6.561  0.00  0.00    +0.144 C 
ATOM      2  N   LIG    1       24.731 -23.103   6.361  0.00  0.00    -0.207 N 
ATOM      3  C   LIG    1       24.739 -21.835   5.876  0.00  0.00    +0.268 C 
ATOM      4  O   LIG    1       25.666 -21.249   5.343  0.00  0.00    -0.271 OA
ATOM      5  C   LIG    1       23.390 -21.263   6.230  0.00  0.00    +0.185 C 
ATOM      6  C   LIG    1       23.492 -20.625   7.616  0.00  0.00    +0.066 C 
ATOM      7  C   LIG    1       22.813 -20.307   5.205  0.00  0.00    +0.066 C 
ATOM      8  O   LIG    1       22.602 -22.461   6.323  0.00  0.00    -0.434 OA
ATOM      9  C   LIG    1       23.457 -23.509   6.522  0.00  0.00    +0.410 C 
ATOM     10  O   LIG    1       23.073 -24.643   6.777  0.00  0.00    -0.226 OA
ENDROOT
TORSDOF 0
ENDMDL
MODEL 8
REMARK VINA RESULT:      -5.1      2.263      3.525
REMARK  Name = *****
REMARK                            x       y       z     vdW  Elec       q    Type
REMARK                         _______ _______ _______ _____ _____    ______ ____
ROOT
ATOM      1  C   LIG    1       24.877 -20.334   3.998  0.00  0.00    +0.144 C 
ATOM      2  N   LIG    1       24.794 -20.509   5.423  0.00  0.00    -0.207 N 
ATOM      3  C   LIG    1       25.865 -20.584   6.254  0.00  0.00    +0.268 C 
ATOM      4  O   LIG    1       27.026 -20.315   5.996  0.00  0.00    -0.271 OA
ATOM      5  C   LIG    1       25.334 -21.172   7.537  0.00  0.00    +0.185 C 
ATOM      6  C   LIG    1       25.432 -22.695   7.438  0.00  0.00    +0.066 C 
ATOM      7  C   LIG    1       25.984 -20.642   8.800  0.00  0.00    +0.066 C 
ATOM      8  O   LIG    1       23.952 -20.786   7.464  0.00  0.00    -0.434 OA
ATOM      9  C   LIG    1       23.663 -20.519   6.154  0.00  0.00    +0.410 C 
ATOM     10  O   LIG    1       22.526 -20.298   5.755  0.00  0.00    -0.226 OA
ENDROOT
TORSDOF 0
ENDMDL
MODEL 9
REMARK VINA RESULT:      -5.1      2.419      2.987
REMARK  Name = *****
REMARK                            x       y       z     vdW  Elec       q    Type
REMARK                         _______ _______ _______ _____ _____    ______ ____
ROOT
ATOM      1  C   LIG    1       22.552 -19.573   5.345  0.00  0.00    +0.144 C 
ATOM      2  N   LIG    1       23.585 -20.541   5.600  0.00  0.00    -0.207 N 
ATOM      3  C   LIG    1       23.979 -20.940   6.837  0.00  0.00    +0.268 C 
ATOM      4  O   LIG    1       23.419 -20.730   7.899  0.00  0.00    -0.271 OA
ATOM      5  C   LIG    1       25.314 -21.609   6.633  0.00  0.00    +0.185 C 
ATOM      6  C   LIG    1       26.404 -20.541   6.742  0.00  0.00    +0.066 C 
ATOM      7  C   LIG    1       25.584 -22.789   7.547  0.00  0.00    +0.066 C 
ATOM      8  O   LIG    1       25.205 -22.028   5.263  0.00  0.00    -0.434 OA
ATOM      9  C   LIG    1       24.236 -21.267   4.671  0.00  0.00    +0.410 C 
ATOM     10  O   LIG    1       24.009 -21.296   3.468  0.00  0.00    -0.226 OA
ENDROOT
TORSDOF 0
ENDMDL
