MODEL 1
REMARK VINA RESULT:      10.7      0.000      0.000
REMARK  Name = *****
REMARK                            x       y       z     vdW  Elec       q    Type
REMARK                         _______ _______ _______ _____ _____    ______ ____
ROOT
ATOM      1  N   LIG    1       26.847 -16.671   3.585  0.00  0.00    -0.295 N 
ATOM      2  C   LIG    1       26.828 -17.961   4.054  0.00  0.00    +0.154 A 
ATOM      3  C   LIG    1       25.904 -19.023   3.860  0.00  0.00    +0.283 C 
ATOM      4  N   LIG    1       26.209 -20.158   4.613  0.00  0.00    -0.252 N 
ATOM      5  C   LIG    1       27.280 -20.276   5.514  0.00  0.00    +0.334 C 
ATOM      6  N   LIG    1       28.187 -19.214   5.567  0.00  0.00    -0.280 N 
ATOM      7  C   LIG    1       29.343 -19.291   6.441  0.00  0.00    +0.155 C 
ATOM      8  O   LIG    1       27.414 -21.281   6.218  0.00  0.00    -0.246 OA
ATOM      9  O   LIG    1       24.936 -18.945   3.110  0.00  0.00    -0.265 OA
ATOM     10  C   LIG    1       27.915 -18.061   4.865  0.00  0.00    +0.170 A 
ATOM     11  N   LIG    1       28.617 -16.894   4.918  0.00  0.00    -0.196 NA
ATOM     12  C   LIG    1       27.957 -16.052   4.142  0.00  0.00    +0.202 A 
ENDROOT
BRANCH  12  13
ATOM     13  N   LIG    1       28.206 -14.717   3.967  0.00  0.00    -0.299 N 
ATOM     14  C   LIG    1       28.322 -13.919   5.209  0.00  0.00    +0.126 C 
ATOM     15  C   LIG    1       28.945 -12.539   4.889  0.00  0.00    +0.068 C 
ATOM     16  C   LIG    1       28.061 -11.804   3.876  0.00  0.00    +0.021 C 
ATOM     17  C   LIG    1       27.856 -12.668   2.633  0.00  0.00    +0.020 C 
ATOM     18  C   LIG    1       27.316 -14.058   2.985  0.00  0.00    +0.108 C 
BRANCH  15  19
ATOM     19  N   LIG    1       29.126 -11.716   6.091  0.00  0.00    -0.326 NA
ATOM     20  H   LIG    1       28.581 -10.858   5.999  0.00  0.00    +0.118 HD
ATOM     21  H   LIG    1       30.102 -11.422   6.151  0.00  0.00    +0.118 HD
ENDBRANCH  15  19
ENDBRANCH  12  13
BRANCH   1  22
ATOM     22  C   LIG    1       25.802 -16.048   2.791  0.00  0.00    +0.214 C 
BRANCH  22  25
ATOM     23  C   LIG    1       22.587 -15.199   5.243  0.00  0.00    +0.106 C 
ATOM     24  C   LIG    1       23.708 -15.415   4.329  0.00  0.00    -0.104 C 
ATOM     25  C   LIG    1       24.649 -15.660   3.610  0.00  0.00    -0.081 C 
ENDBRANCH  22  25
ENDBRANCH   1  22
BRANCH   4  26
ATOM     26  C   LIG    1       25.223 -21.232   4.601  0.00  0.00    +0.206 C 
BRANCH  26  27
ATOM     27  C   LIG    1       23.794 -20.737   4.448  0.00  0.00    +0.150 A 
ATOM     28  N   LIG    1       23.587 -19.712   3.599  0.00  0.00    -0.230 NA
ATOM     29  C   LIG    1       22.334 -19.259   3.465  0.00  0.00    +0.075 A 
ATOM     30  C   LIG    1       21.248 -19.806   4.162  0.00  0.00    +0.021 A 
ATOM     31  C   LIG    1       19.949 -19.273   3.970  0.00  0.00    +0.012 A 
ATOM     32  C   LIG    1       19.739 -18.207   3.097  0.00  0.00    +0.001 A 
ATOM     33  C   LIG    1       20.816 -17.667   2.409  0.00  0.00    +0.002 A 
ATOM     34  C   LIG    1       21.566 -20.867   5.019  0.00  0.00    +0.050 A 
ATOM     35  C   LIG    1       20.524 -21.571   5.837  0.00  0.00    +0.066 C 
ATOM     36  C   LIG    1       22.096 -18.198   2.599  0.00  0.00    +0.028 A 
ATOM     37  N   LIG    1       22.825 -21.328   5.172  0.00  0.00    -0.235 NA
ENDBRANCH  26  27
ENDBRANCH   4  26
TORSDOF 6
ENDMDL
MODEL 2
REMARK VINA RESULT:      12.7      0.968      1.344
REMARK  Name = *****
REMARK                            x       y       z     vdW  Elec       q    Type
REMARK                         _______ _______ _______ _____ _____    ______ ____
ROOT
ATOM      1  N   LIG    1       26.805 -16.526   3.585  0.00  0.00    -0.295 N 
ATOM      2  C   LIG    1       26.918 -17.812   4.050  0.00  0.00    +0.154 A 
ATOM      3  C   LIG    1       26.134 -18.974   3.815  0.00  0.00    +0.283 C 
ATOM      4  N   LIG    1       26.539 -20.070   4.577  0.00  0.00    -0.252 N 
ATOM      5  C   LIG    1       27.578 -20.068   5.521  0.00  0.00    +0.334 C 
ATOM      6  N   LIG    1       28.352 -18.908   5.615  0.00  0.00    -0.280 N 
ATOM      7  C   LIG    1       29.472 -18.855   6.536  0.00  0.00    +0.155 C 
ATOM      8  O   LIG    1       27.801 -21.056   6.228  0.00  0.00    -0.246 OA
ATOM      9  O   LIG    1       25.195 -19.004   3.025  0.00  0.00    -0.265 OA
ATOM     10  C   LIG    1       27.976 -17.790   4.905  0.00  0.00    +0.170 A 
ATOM     11  N   LIG    1       28.532 -16.549   4.990  0.00  0.00    -0.196 NA
ATOM     12  C   LIG    1       27.811 -15.784   4.189  0.00  0.00    +0.202 A 
ENDROOT
BRANCH  12  13
ATOM     13  N   LIG    1       27.907 -14.428   4.028  0.00  0.00    -0.299 N 
ATOM     14  C   LIG    1       27.120 -13.860   2.909  0.00  0.00    +0.126 C 
ATOM     15  C   LIG    1       27.034 -12.321   3.059  0.00  0.00    +0.068 C 
ATOM     16  C   LIG    1       28.448 -11.730   3.058  0.00  0.00    +0.021 C 
ATOM     17  C   LIG    1       29.293 -12.388   4.148  0.00  0.00    +0.020 C 
ATOM     18  C   LIG    1       29.295 -13.915   4.026  0.00  0.00    +0.108 C 
BRANCH  15  19
ATOM     19  N   LIG    1       26.228 -11.702   2.000  0.00  0.00    -0.326 NA
ATOM     20  H   LIG    1       26.847 -11.304   1.292  0.00  0.00    +0.118 HD
ATOM     21  H   LIG    1       25.710 -10.915   2.392  0.00  0.00    +0.118 HD
ENDBRANCH  15  19
ENDBRANCH  12  13
BRANCH   1  22
ATOM     22  C   LIG    1       25.727 -16.023   2.750  0.00  0.00    +0.214 C 
BRANCH  22  25
ATOM     23  C   LIG    1       22.427 -15.291   5.126  0.00  0.00    +0.106 C 
ATOM     24  C   LIG    1       23.572 -15.470   4.234  0.00  0.00    -0.104 C 
ATOM     25  C   LIG    1       24.538 -15.681   3.537  0.00  0.00    -0.081 C 
ENDBRANCH  22  25
ENDBRANCH   1  22
BRANCH   4  26
ATOM     26  C   LIG    1       25.687 -21.253   4.522  0.00  0.00    +0.206 C 
BRANCH  26  27
ATOM     27  C   LIG    1       24.206 -20.935   4.646  0.00  0.00    +0.150 A 
ATOM     28  N   LIG    1       23.645 -20.226   3.648  0.00  0.00    -0.230 NA
ATOM     29  C   LIG    1       22.342 -19.930   3.751  0.00  0.00    +0.075 A 
ATOM     30  C   LIG    1       21.556 -20.326   4.842  0.00  0.00    +0.021 A 
ATOM     31  C   LIG    1       20.184 -19.974   4.884  0.00  0.00    +0.012 A 
ATOM     32  C   LIG    1       19.607 -19.234   3.853  0.00  0.00    +0.001 A 
ATOM     33  C   LIG    1       20.389 -18.843   2.776  0.00  0.00    +0.002 A 
ATOM     34  C   LIG    1       22.232 -21.058   5.826  0.00  0.00    +0.050 A 
ATOM     35  C   LIG    1       21.541 -21.564   7.059  0.00  0.00    +0.066 C 
ATOM     36  C   LIG    1       21.742 -19.195   2.736  0.00  0.00    +0.028 A 
ATOM     37  N   LIG    1       23.545 -21.356   5.741  0.00  0.00    -0.235 NA
ENDBRANCH  26  27
ENDBRANCH   4  26
TORSDOF 6
ENDMDL
