MODEL 1
REMARK VINA RESULT:      -8.8      0.000      0.000
REMARK  Name = *****
REMARK                            x       y       z     vdW  Elec       q    Type
REMARK                         _______ _______ _______ _____ _____    ______ ____
ROOT
ATOM      1  N   UNK A  0       25.414 -28.897   6.620  0.00  0.00    -0.342 N 
ATOM      2  H   UNK A  0       26.308 -29.187   7.015  0.00  0.00    +0.146 HD
ENDROOT
BRANCH   1   3
ATOM      3  C   UNK A  0       25.271 -27.516   6.486  0.00  0.00    +0.027 A 
ATOM      4  C   UNK A  0       26.115 -26.605   7.136  0.00  0.00    +0.024 A 
ATOM      5  C   UNK A  0       25.909 -25.227   7.053  0.00  0.00    +0.015 A 
ATOM      6  C   UNK A  0       24.815 -24.731   6.347  0.00  0.00    +0.037 A 
ATOM      7  C   UNK A  0       23.959 -25.621   5.691  0.00  0.00    +0.015 A 
ATOM      8  C   UNK A  0       24.179 -27.001   5.778  0.00  0.00    +0.024 A 
BRANCH   6   9
ATOM      9  C   UNK A  0       24.563 -23.263   6.393  0.00  0.00    +0.245 C 
ATOM     10  N   GLU A  1       25.690 -22.471   6.287  0.00  0.00    -0.298 N 
ATOM     11  H   GLU A  1       26.601 -22.891   6.427  0.00  0.00    +0.150 HD
ATOM     12  O   UNK A  0       23.432 -22.819   6.445  0.00  0.00    -0.270 OA
BRANCH  10  13
ATOM     13  CA  GLU A  1       25.631 -21.003   6.344  0.00  0.00    +0.182 C 
BRANCH  13  14
ATOM     14  C   GLU A  1       25.895 -20.474   4.920  0.00  0.00    +0.325 C 
ATOM     15  O   GLU A  1       25.097 -20.490   3.996  0.00  0.00    -0.249 OA
BRANCH  14  16
ATOM     16  OXT GLU A  1       27.171 -20.042   4.744  0.00  0.00    -0.479 OA
ATOM     17  HXT GLU A  1       27.678 -20.668   4.185  0.00  0.00    +0.295 HD
ENDBRANCH  14  16
ENDBRANCH  13  14
BRANCH  13  18
ATOM     18  CB  GLU A  1       26.643 -20.492   7.376  0.00  0.00    +0.045 C 
BRANCH  18  19
ATOM     19  CG  GLU A  1       27.583 -21.564   7.927  0.00  0.00    +0.123 C 
BRANCH  19  20
ATOM     20  CD  GLU A  1       29.028 -21.204   7.739  0.00  0.00    +0.305 C 
ATOM     21  OE1 GLU A  1       29.883 -21.165   8.607  0.00  0.00    -0.251 OA
BRANCH  20  22
ATOM     22  OE2 GLU A  1       29.333 -20.937   6.457  0.00  0.00    -0.481 OA
ATOM     23  HE2 GLU A  1       30.044 -21.573   6.237  0.00  0.00    +0.295 HD
ENDBRANCH  20  22
ENDBRANCH  19  20
ENDBRANCH  18  19
ENDBRANCH  13  18
ENDBRANCH  10  13
ENDBRANCH   6   9
ENDBRANCH   1   3
BRANCH   1  24
ATOM     24  C   UNK A  0       24.279 -29.682   7.119  0.00  0.00    +0.126 C 
BRANCH  24  32
ATOM     25  C   UNK A  0       26.536 -28.031  11.756  0.00  0.00    +0.195 C 
ATOM     26  N   UNK A  0       25.311 -28.370  12.219  0.00  0.00    -0.294 N 
ATOM     27  H   UNK A  0       24.932 -27.923  13.036  0.00  0.00    +0.172 HD
ATOM     28  C   UNK A  0       24.458 -29.173  11.522  0.00  0.00    +0.276 C 
ATOM     29  O   UNK A  0       23.315 -29.339  11.937  0.00  0.00    -0.266 OA
ATOM     30  C   UNK A  0       24.994 -29.763  10.254  0.00  0.00    +0.142 C 
ATOM     31  N   UNK A  0       24.250 -30.639   9.436  0.00  0.00    -0.261 N 
ATOM     32  C   UNK A  0       24.729 -30.844   8.041  0.00  0.00    +0.115 C 
ATOM     33  C   UNK A  0       26.264 -30.963   8.015  0.00  0.00    +0.127 C 
ATOM     34  N   UNK A  0       26.838 -29.845   8.742  0.00  0.00    -0.326 N 
ATOM     35  H   UNK A  0       27.851 -29.781   8.788  0.00  0.00    +0.148 HD
ATOM     36  C   UNK A  0       23.052 -31.246   9.779  0.00  0.00    +0.333 C 
ATOM     37  O   UNK A  0       22.411 -32.004   9.051  0.00  0.00    -0.279 OA
ATOM     38  C   UNK A  0       26.254 -29.370   9.913  0.00  0.00    +0.149 C 
ATOM     39  N   UNK A  0       27.019 -28.509  10.660  0.00  0.00    -0.199 NA
BRANCH  25  40
ATOM     40  N   UNK A  0       27.248 -27.154  12.503  0.00  0.00    -0.329 N 
ATOM     41  H   UNK A  0       28.254 -27.247  12.504  0.00  0.00    +0.145 HD
ATOM     42  H   UNK A  0       26.933 -26.196  12.386  0.00  0.00    +0.145 HD
ENDBRANCH  25  40
ENDBRANCH  24  32
ENDBRANCH   1  24
TORSDOF 12
ENDMDL
MODEL 2
REMARK VINA RESULT:      -8.7      2.271      3.763
REMARK  Name = *****
REMARK                            x       y       z     vdW  Elec       q    Type
REMARK                         _______ _______ _______ _____ _____    ______ ____
ROOT
ATOM      1  N   UNK A  0       24.218 -27.322   6.104  0.00  0.00    -0.342 N 
ATOM      2  H   UNK A  0       24.008 -27.474   5.118  0.00  0.00    +0.146 HD
ENDROOT
BRANCH   1   3
ATOM      3  C   UNK A  0       24.534 -26.002   6.423  0.00  0.00    +0.027 A 
ATOM      4  C   UNK A  0       23.583 -24.973   6.396  0.00  0.00    +0.024 A 
ATOM      5  C   UNK A  0       23.935 -23.644   6.643  0.00  0.00    +0.015 A 
ATOM      6  C   UNK A  0       25.267 -23.312   6.879  0.00  0.00    +0.037 A 
ATOM      7  C   UNK A  0       26.233 -24.322   6.910  0.00  0.00    +0.015 A 
ATOM      8  C   UNK A  0       25.868 -25.652   6.665  0.00  0.00    +0.024 A 
BRANCH   6   9
ATOM      9  C   UNK A  0       25.613 -21.868   7.009  0.00  0.00    +0.245 C 
ATOM     10  N   GLU A  1       26.949 -21.566   6.835  0.00  0.00    -0.298 N 
ATOM     11  H   GLU A  1       27.631 -22.315   6.874  0.00  0.00    +0.150 HD
ATOM     12  O   UNK A  0       24.751 -21.027   7.183  0.00  0.00    -0.270 OA
BRANCH  10  13
ATOM     13  CA  GLU A  1       27.472 -20.198   6.960  0.00  0.00    +0.182 C 
BRANCH  13  14
ATOM     14  C   GLU A  1       27.885 -19.731   5.549  0.00  0.00    +0.325 C 
ATOM     15  O   GLU A  1       28.786 -18.948   5.296  0.00  0.00    -0.249 OA
BRANCH  14  16
ATOM     16  OXT GLU A  1       27.079 -20.222   4.571  0.00  0.00    -0.479 OA
ATOM     17  HXT GLU A  1       27.376 -21.111   4.287  0.00  0.00    +0.295 HD
ENDBRANCH  14  16
ENDBRANCH  13  14
BRANCH  13  18
ATOM     18  CB  GLU A  1       28.630 -20.184   7.964  0.00  0.00    +0.045 C 
BRANCH  18  19
ATOM     19  CG  GLU A  1       29.465 -21.464   7.987  0.00  0.00    +0.123 C 
BRANCH  19  20
ATOM     20  CD  GLU A  1       30.741 -21.297   8.761  0.00  0.00    +0.305 C 
ATOM     21  OE1 GLU A  1       31.658 -20.544   8.488  0.00  0.00    -0.251 OA
BRANCH  20  22
ATOM     22  OE2 GLU A  1       30.786 -22.072   9.859  0.00  0.00    -0.481 OA
ATOM     23  HE2 GLU A  1       30.467 -22.947   9.554  0.00  0.00    +0.295 HD
ENDBRANCH  20  22
ENDBRANCH  19  20
ENDBRANCH  18  19
ENDBRANCH  13  18
ENDBRANCH  10  13
ENDBRANCH   6   9
ENDBRANCH   1   3
BRANCH   1  24
ATOM     24  C   UNK A  0       25.011 -28.405   6.699  0.00  0.00    +0.126 C 
BRANCH  24  32
ATOM     25  C   UNK A  0       27.753 -33.049   6.222  0.00  0.00    +0.195 C 
ATOM     26  N   UNK A  0       27.744 -32.939   7.570  0.00  0.00    -0.294 N 
ATOM     27  H   UNK A  0       28.476 -33.354   8.122  0.00  0.00    +0.172 HD
ATOM     28  C   UNK A  0       26.879 -32.123   8.236  0.00  0.00    +0.276 C 
ATOM     29  O   UNK A  0       27.007 -31.971   9.447  0.00  0.00    -0.266 OA
ATOM     30  C   UNK A  0       25.848 -31.430   7.399  0.00  0.00    +0.142 C 
ATOM     31  N   UNK A  0       24.861 -30.578   7.939  0.00  0.00    -0.261 N 
ATOM     32  C   UNK A  0       24.157 -29.664   6.997  0.00  0.00    +0.115 C 
ATOM     33  C   UNK A  0       23.837 -30.396   5.681  0.00  0.00    +0.127 C 
ATOM     34  N   UNK A  0       25.044 -31.035   5.187  0.00  0.00    -0.326 N 
ATOM     35  H   UNK A  0       24.986 -31.540   4.307  0.00  0.00    +0.148 HD
ATOM     36  C   UNK A  0       24.559 -30.439   9.284  0.00  0.00    +0.333 C 
ATOM     37  O   UNK A  0       23.698 -29.687   9.740  0.00  0.00    -0.279 OA
ATOM     38  C   UNK A  0       25.942 -31.648   6.056  0.00  0.00    +0.149 C 
ATOM     39  N   UNK A  0       26.889 -32.453   5.473  0.00  0.00    -0.199 NA
BRANCH  25  40
ATOM     40  N   UNK A  0       28.722 -33.824   5.681  0.00  0.00    -0.329 N 
ATOM     41  H   UNK A  0       28.434 -34.638   5.156  0.00  0.00    +0.145 HD
ATOM     42  H   UNK A  0       29.443 -33.281   5.216  0.00  0.00    +0.145 HD
ENDBRANCH  25  40
ENDBRANCH  24  32
ENDBRANCH   1  24
TORSDOF 12
ENDMDL
MODEL 3
REMARK VINA RESULT:      -8.7      1.467      2.025
REMARK  Name = *****
REMARK                            x       y       z     vdW  Elec       q    Type
REMARK                         _______ _______ _______ _____ _____    ______ ____
ROOT
ATOM      1  N   UNK A  0       25.526 -28.905   6.195  0.00  0.00    -0.342 N 
ATOM      2  H   UNK A  0       26.448 -29.213   6.503  0.00  0.00    +0.146 HD
ENDROOT
BRANCH   1   3
ATOM      3  C   UNK A  0       25.361 -27.520   6.190  0.00  0.00    +0.027 A 
ATOM      4  C   UNK A  0       26.169 -26.663   6.948  0.00  0.00    +0.024 A 
ATOM      5  C   UNK A  0       25.939 -25.286   6.991  0.00  0.00    +0.015 A 
ATOM      6  C   UNK A  0       24.856 -24.743   6.305  0.00  0.00    +0.037 A 
ATOM      7  C   UNK A  0       24.034 -25.579   5.542  0.00  0.00    +0.015 A 
ATOM      8  C   UNK A  0       24.278 -26.957   5.503  0.00  0.00    +0.024 A 
BRANCH   6   9
ATOM      9  C   UNK A  0       24.575 -23.290   6.484  0.00  0.00    +0.245 C 
ATOM     10  N   GLU A  1       25.626 -22.447   6.177  0.00  0.00    -0.298 N 
ATOM     11  H   GLU A  1       26.558 -22.835   6.091  0.00  0.00    +0.150 HD
ATOM     12  O   UNK A  0       23.470 -22.896   6.806  0.00  0.00    -0.270 OA
BRANCH  10  13
ATOM     13  CA  GLU A  1       25.536 -20.988   6.325  0.00  0.00    +0.182 C 
BRANCH  13  14
ATOM     14  C   GLU A  1       25.842 -20.364   4.948  0.00  0.00    +0.325 C 
ATOM     15  O   GLU A  1       25.049 -20.251   4.027  0.00  0.00    -0.249 OA
BRANCH  14  16
ATOM     16  OXT GLU A  1       27.144 -20.005   4.806  0.00  0.00    -0.479 OA
ATOM     17  HXT GLU A  1       27.341 -19.193   5.319  0.00  0.00    +0.295 HD
ENDBRANCH  14  16
ENDBRANCH  13  14
BRANCH  13  18
ATOM     18  CB  GLU A  1       26.499 -20.526   7.424  0.00  0.00    +0.045 C 
BRANCH  18  19
ATOM     19  CG  GLU A  1       27.486 -21.595   7.893  0.00  0.00    +0.123 C 
BRANCH  19  20
ATOM     20  CD  GLU A  1       28.913 -21.150   7.756  0.00  0.00    +0.305 C 
ATOM     21  OE1 GLU A  1       29.693 -20.931   8.667  0.00  0.00    -0.251 OA
BRANCH  20  22
ATOM     22  OE2 GLU A  1       29.298 -21.030   6.474  0.00  0.00    -0.481 OA
ATOM     23  HE2 GLU A  1       29.663 -20.124   6.412  0.00  0.00    +0.295 HD
ENDBRANCH  20  22
ENDBRANCH  19  20
ENDBRANCH  18  19
ENDBRANCH  13  18
ENDBRANCH  10  13
ENDBRANCH   6   9
ENDBRANCH   1   3
BRANCH   1  24
ATOM     24  C   UNK A  0       24.436 -29.747   6.702  0.00  0.00    +0.126 C 
BRANCH  24  32
ATOM     25  C   UNK A  0       22.627 -29.719  11.805  0.00  0.00    +0.195 C 
ATOM     26  N   UNK A  0       21.815 -30.671  11.292  0.00  0.00    -0.294 N 
ATOM     27  H   UNK A  0       20.906 -30.838  11.690  0.00  0.00    +0.172 HD
ATOM     28  C   UNK A  0       22.085 -31.315  10.121  0.00  0.00    +0.276 C 
ATOM     29  O   UNK A  0       21.247 -32.075   9.646  0.00  0.00    -0.266 OA
ATOM     30  C   UNK A  0       23.400 -30.994   9.480  0.00  0.00    +0.142 C 
ATOM     31  N   UNK A  0       23.843 -31.599   8.284  0.00  0.00    -0.261 N 
ATOM     32  C   UNK A  0       24.957 -30.933   7.553  0.00  0.00    +0.115 C 
ATOM     33  C   UNK A  0       26.022 -30.432   8.545  0.00  0.00    +0.127 C 
ATOM     34  N   UNK A  0       25.373 -29.656   9.587  0.00  0.00    -0.326 N 
ATOM     35  H   UNK A  0       25.961 -29.241  10.304  0.00  0.00    +0.148 HD
ATOM     36  C   UNK A  0       23.265 -32.699   7.671  0.00  0.00    +0.333 C 
ATOM     37  O   UNK A  0       23.660 -33.212   6.624  0.00  0.00    -0.279 OA
ATOM     38  C   UNK A  0       24.143 -30.041  10.112  0.00  0.00    +0.149 C 
ATOM     39  N   UNK A  0       23.757 -29.409  11.268  0.00  0.00    -0.199 NA
BRANCH  25  40
ATOM     40  N   UNK A  0       22.198 -29.093  12.927  0.00  0.00    -0.329 N 
ATOM     41  H   UNK A  0       21.277 -29.327  13.273  0.00  0.00    +0.145 HD
ATOM     42  H   UNK A  0       22.905 -29.066  13.654  0.00  0.00    +0.145 HD
ENDBRANCH  25  40
ENDBRANCH  24  32
ENDBRANCH   1  24
TORSDOF 12
ENDMDL
MODEL 4
REMARK VINA RESULT:      -8.7      1.860      2.961
REMARK  Name = *****
REMARK                            x       y       z     vdW  Elec       q    Type
REMARK                         _______ _______ _______ _____ _____    ______ ____
ROOT
ATOM      1  N   UNK A  0       25.707 -28.891   5.938  0.00  0.00    -0.342 N 
ATOM      2  H   UNK A  0       26.682 -29.150   6.089  0.00  0.00    +0.146 HD
ENDROOT
BRANCH   1   3
ATOM      3  C   UNK A  0       25.468 -27.517   5.993  0.00  0.00    +0.027 A 
ATOM      4  C   UNK A  0       26.416 -26.607   6.477  0.00  0.00    +0.024 A 
ATOM      5  C   UNK A  0       26.129 -25.245   6.597  0.00  0.00    +0.015 A 
ATOM      6  C   UNK A  0       24.859 -24.773   6.275  0.00  0.00    +0.037 A 
ATOM      7  C   UNK A  0       23.897 -25.664   5.790  0.00  0.00    +0.015 A 
ATOM      8  C   UNK A  0       24.197 -27.026   5.670  0.00  0.00    +0.024 A 
BRANCH   6   9
ATOM      9  C   UNK A  0       24.562 -23.337   6.540  0.00  0.00    +0.245 C 
ATOM     10  N   GLU A  1       25.503 -22.445   6.065  0.00  0.00    -0.298 N 
ATOM     11  H   GLU A  1       26.418 -22.791   5.799  0.00  0.00    +0.150 HD
ATOM     12  O   UNK A  0       23.521 -22.997   7.072  0.00  0.00    -0.270 OA
BRANCH  10  13
ATOM     13  CA  GLU A  1       25.387 -20.994   6.265  0.00  0.00    +0.182 C 
BRANCH  13  14
ATOM     14  C   GLU A  1       25.615 -20.319   4.898  0.00  0.00    +0.325 C 
ATOM     15  O   GLU A  1       24.743 -20.023   4.097  0.00  0.00    -0.249 OA
BRANCH  14  16
ATOM     16  OXT GLU A  1       26.931 -20.144   4.606  0.00  0.00    -0.479 OA
ATOM     17  HXT GLU A  1       27.441 -20.959   4.792  0.00  0.00    +0.295 HD
ENDBRANCH  14  16
ENDBRANCH  13  14
BRANCH  13  18
ATOM     18  CB  GLU A  1       26.388 -20.543   7.336  0.00  0.00    +0.045 C 
BRANCH  18  19
ATOM     19  CG  GLU A  1       27.354 -21.634   7.799  0.00  0.00    +0.123 C 
BRANCH  19  20
ATOM     20  CD  GLU A  1       28.790 -21.245   7.598  0.00  0.00    +0.305 C 
ATOM     21  OE1 GLU A  1       29.633 -21.119   8.468  0.00  0.00    -0.251 OA
BRANCH  20  22
ATOM     22  OE2 GLU A  1       29.100 -21.061   6.303  0.00  0.00    -0.481 OA
ATOM     23  HE2 GLU A  1       28.576 -20.278   6.036  0.00  0.00    +0.295 HD
ENDBRANCH  20  22
ENDBRANCH  19  20
ENDBRANCH  18  19
ENDBRANCH  13  18
ENDBRANCH  10  13
ENDBRANCH   6   9
ENDBRANCH   1   3
BRANCH   1  24
ATOM     24  C   UNK A  0       24.760 -29.802   6.590  0.00  0.00    +0.126 C 
BRANCH  24  32
ATOM     25  C   UNK A  0       21.400 -31.391  10.527  0.00  0.00    +0.195 C 
ATOM     26  N   UNK A  0       21.450 -32.536   9.809  0.00  0.00    -0.294 N 
ATOM     27  H   UNK A  0       20.681 -33.184   9.824  0.00  0.00    +0.172 HD
ATOM     28  C   UNK A  0       22.433 -32.791   8.899  0.00  0.00    +0.276 C 
ATOM     29  O   UNK A  0       22.351 -33.789   8.190  0.00  0.00    -0.266 OA
ATOM     30  C   UNK A  0       23.531 -31.776   8.812  0.00  0.00    +0.142 C 
ATOM     31  N   UNK A  0       24.636 -31.908   7.944  0.00  0.00    -0.261 N 
ATOM     32  C   UNK A  0       25.439 -30.684   7.668  0.00  0.00    +0.115 C 
ATOM     33  C   UNK A  0       25.630 -29.868   8.960  0.00  0.00    +0.127 C 
ATOM     34  N   UNK A  0       24.337 -29.670   9.592  0.00  0.00    -0.326 N 
ATOM     35  H   UNK A  0       24.307 -29.124  10.449  0.00  0.00    +0.148 HD
ATOM     36  C   UNK A  0       24.981 -33.051   7.241  0.00  0.00    +0.333 C 
ATOM     37  O   UNK A  0       25.946 -33.148   6.482  0.00  0.00    -0.279 OA
ATOM     38  C   UNK A  0       23.381 -30.681   9.611  0.00  0.00    +0.149 C 
ATOM     39  N   UNK A  0       22.321 -30.492  10.462  0.00  0.00    -0.199 NA
BRANCH  25  40
ATOM     40  N   UNK A  0       20.323 -31.223  11.331  0.00  0.00    -0.329 N 
ATOM     41  H   UNK A  0       20.146 -30.296  11.692  0.00  0.00    +0.145 HD
ATOM     42  H   UNK A  0       19.491 -31.679  10.969  0.00  0.00    +0.145 HD
ENDBRANCH  25  40
ENDBRANCH  24  32
ENDBRANCH   1  24
TORSDOF 12
ENDMDL
MODEL 5
REMARK VINA RESULT:      -8.6      3.433      9.832
REMARK  Name = *****
REMARK                            x       y       z     vdW  Elec       q    Type
REMARK                         _______ _______ _______ _____ _____    ______ ____
ROOT
ATOM      1  N   UNK A  0       25.213 -24.247   6.102  0.00  0.00    -0.342 N 
ATOM      2  H   UNK A  0       24.347 -23.781   5.832  0.00  0.00    +0.146 HD
ENDROOT
BRANCH   1   3
ATOM      3  C   UNK A  0       25.154 -25.639   6.044  0.00  0.00    +0.027 A 
ATOM      4  C   UNK A  0       24.296 -26.320   5.170  0.00  0.00    +0.024 A 
ATOM      5  C   UNK A  0       24.194 -27.713   5.181  0.00  0.00    +0.015 A 
ATOM      6  C   UNK A  0       24.923 -28.454   6.108  0.00  0.00    +0.037 A 
ATOM      7  C   UNK A  0       25.785 -27.796   6.991  0.00  0.00    +0.015 A 
ATOM      8  C   UNK A  0       25.882 -26.399   6.967  0.00  0.00    +0.024 A 
BRANCH   6   9
ATOM      9  C   UNK A  0       24.684 -29.924   6.167  0.00  0.00    +0.245 C 
ATOM     10  N   GLU A  1       25.794 -30.708   5.923  0.00  0.00    -0.298 N 
ATOM     11  H   GLU A  1       26.610 -30.286   5.495  0.00  0.00    +0.150 HD
ATOM     12  O   UNK A  0       23.599 -30.374   6.483  0.00  0.00    -0.270 OA
BRANCH  10  13
ATOM     13  CA  GLU A  1       25.735 -32.177   5.910  0.00  0.00    +0.182 C 
BRANCH  13  14
ATOM     14  C   GLU A  1       26.235 -32.672   7.282  0.00  0.00    +0.325 C 
ATOM     15  O   GLU A  1       25.814 -33.648   7.882  0.00  0.00    -0.249 OA
BRANCH  14  16
ATOM     16  OXT GLU A  1       27.170 -31.854   7.832  0.00  0.00    -0.479 OA
ATOM     17  HXT GLU A  1       27.780 -31.509   7.147  0.00  0.00    +0.295 HD
ENDBRANCH  14  16
ENDBRANCH  13  14
BRANCH  13  18
ATOM     18  CB  GLU A  1       26.565 -32.711   4.736  0.00  0.00    +0.045 C 
BRANCH  18  19
ATOM     19  CG  GLU A  1       25.899 -32.561   3.368  0.00  0.00    +0.123 C 
BRANCH  19  20
ATOM     20  CD  GLU A  1       26.768 -33.065   2.254  0.00  0.00    +0.305 C 
ATOM     21  OE1 GLU A  1       27.818 -33.673   2.374  0.00  0.00    -0.251 OA
BRANCH  20  22
ATOM     22  OE2 GLU A  1       26.257 -32.802   1.038  0.00  0.00    -0.481 OA
ATOM     23  HE2 GLU A  1       26.698 -31.972   0.763  0.00  0.00    +0.295 HD
ENDBRANCH  20  22
ENDBRANCH  19  20
ENDBRANCH  18  19
ENDBRANCH  13  18
ENDBRANCH  10  13
ENDBRANCH   6   9
ENDBRANCH   1   3
BRANCH   1  24
ATOM     24  C   UNK A  0       25.878 -23.612   7.247  0.00  0.00    +0.126 C 
BRANCH  24  32
ATOM     25  C   UNK A  0       28.296 -19.106   5.469  0.00  0.00    +0.195 C 
ATOM     26  N   UNK A  0       27.267 -19.161   4.593  0.00  0.00    -0.294 N 
ATOM     27  H   UNK A  0       27.353 -18.753   3.677  0.00  0.00    +0.172 HD
ATOM     28  C   UNK A  0       26.152 -19.913   4.814  0.00  0.00    +0.276 C 
ATOM     29  O   UNK A  0       25.314 -20.021   3.924  0.00  0.00    -0.266 OA
ATOM     30  C   UNK A  0       26.070 -20.597   6.144  0.00  0.00    +0.142 C 
ATOM     31  N   UNK A  0       24.969 -21.386   6.539  0.00  0.00    -0.261 N 
ATOM     32  C   UNK A  0       25.167 -22.309   7.691  0.00  0.00    +0.115 C 
ATOM     33  C   UNK A  0       25.992 -21.618   8.793  0.00  0.00    +0.127 C 
ATOM     34  N   UNK A  0       27.190 -21.049   8.202  0.00  0.00    -0.326 N 
ATOM     35  H   UNK A  0       27.845 -20.578   8.820  0.00  0.00    +0.148 HD
ATOM     36  C   UNK A  0       23.748 -21.458   5.886  0.00  0.00    +0.333 C 
ATOM     37  O   UNK A  0       22.799 -22.156   6.240  0.00  0.00    -0.279 OA
ATOM     38  C   UNK A  0       27.157 -20.438   6.952  0.00  0.00    +0.149 C 
ATOM     39  N   UNK A  0       28.262 -19.697   6.615  0.00  0.00    -0.199 NA
BRANCH  25  40
ATOM     40  N   UNK A  0       29.382 -18.393   5.089  0.00  0.00    -0.329 N 
ATOM     41  H   UNK A  0       29.810 -18.625   4.202  0.00  0.00    +0.145 HD
ATOM     42  H   UNK A  0       29.263 -17.394   5.228  0.00  0.00    +0.145 HD
ENDBRANCH  25  40
ENDBRANCH  24  32
ENDBRANCH   1  24
TORSDOF 12
ENDMDL
MODEL 6
REMARK VINA RESULT:      -8.6      1.709      2.961
REMARK  Name = *****
REMARK                            x       y       z     vdW  Elec       q    Type
REMARK                         _______ _______ _______ _____ _____    ______ ____
ROOT
ATOM      1  N   UNK A  0       25.163 -29.578   6.726  0.00  0.00    -0.342 N 
ATOM      2  H   UNK A  0       26.067 -30.044   6.660  0.00  0.00    +0.146 HD
ENDROOT
BRANCH   1   3
ATOM      3  C   UNK A  0       25.210 -28.204   6.492  0.00  0.00    +0.027 A 
ATOM      4  C   UNK A  0       26.013 -27.339   7.247  0.00  0.00    +0.024 A 
ATOM      5  C   UNK A  0       25.989 -25.957   7.049  0.00  0.00    +0.015 A 
ATOM      6  C   UNK A  0       25.117 -25.406   6.113  0.00  0.00    +0.037 A 
ATOM      7  C   UNK A  0       24.306 -26.250   5.348  0.00  0.00    +0.015 A 
ATOM      8  C   UNK A  0       24.342 -27.635   5.552  0.00  0.00    +0.024 A 
BRANCH   6   9
ATOM      9  C   UNK A  0       25.034 -23.921   6.027  0.00  0.00    +0.245 C 
ATOM     10  N   GLU A  1       25.269 -23.251   7.212  0.00  0.00    -0.298 N 
ATOM     11  H   GLU A  1       25.239 -23.768   8.083  0.00  0.00    +0.150 HD
ATOM     12  O   UNK A  0       24.846 -23.360   4.964  0.00  0.00    -0.270 OA
BRANCH  10  13
ATOM     13  CA  GLU A  1       25.197 -21.786   7.318  0.00  0.00    +0.182 C 
BRANCH  13  14
ATOM     14  C   GLU A  1       26.114 -21.362   8.484  0.00  0.00    +0.325 C 
ATOM     15  O   GLU A  1       25.765 -20.731   9.468  0.00  0.00    -0.249 OA
BRANCH  14  16
ATOM     16  OXT GLU A  1       27.416 -21.694   8.282  0.00  0.00    -0.479 OA
ATOM     17  HXT GLU A  1       28.012 -21.031   8.687  0.00  0.00    +0.295 HD
ENDBRANCH  14  16
ENDBRANCH  13  14
BRANCH  13  18
ATOM     18  CB  GLU A  1       23.737 -21.359   7.512  0.00  0.00    +0.045 C 
BRANCH  18  19
ATOM     19  CG  GLU A  1       23.299 -20.186   6.636  0.00  0.00    +0.123 C 
BRANCH  19  20
ATOM     20  CD  GLU A  1       22.890 -20.625   5.260  0.00  0.00    +0.305 C 
ATOM     21  OE1 GLU A  1       23.118 -20.040   4.216  0.00  0.00    -0.251 OA
BRANCH  20  22
ATOM     22  OE2 GLU A  1       22.234 -21.799   5.265  0.00  0.00    -0.481 OA
ATOM     23  HE2 GLU A  1       22.033 -21.963   6.210  0.00  0.00    +0.295 HD
ENDBRANCH  20  22
ENDBRANCH  19  20
ENDBRANCH  18  19
ENDBRANCH  13  18
ENDBRANCH  10  13
ENDBRANCH   6   9
ENDBRANCH   1   3
BRANCH   1  24
ATOM     24  C   UNK A  0       24.334 -30.082   7.828  0.00  0.00    +0.126 C 
BRANCH  24  32
ATOM     25  C   UNK A  0       27.739 -29.551  12.004  0.00  0.00    +0.195 C 
ATOM     26  N   UNK A  0       26.621 -29.902  12.678  0.00  0.00    -0.294 N 
ATOM     27  H   UNK A  0       26.485 -29.609  13.631  0.00  0.00    +0.172 HD
ATOM     28  C   UNK A  0       25.552 -30.493  12.073  0.00  0.00    +0.276 C 
ATOM     29  O   UNK A  0       24.520 -30.669  12.714  0.00  0.00    -0.266 OA
ATOM     30  C   UNK A  0       25.722 -30.844  10.627  0.00  0.00    +0.142 C 
ATOM     31  N   UNK A  0       24.723 -31.488   9.866  0.00  0.00    -0.261 N 
ATOM     32  C   UNK A  0       24.851 -31.433   8.383  0.00  0.00    +0.115 C 
ATOM     33  C   UNK A  0       26.319 -31.637   7.967  0.00  0.00    +0.127 C 
ATOM     34  N   UNK A  0       27.160 -30.728   8.726  0.00  0.00    -0.326 N 
ATOM     35  H   UNK A  0       28.158 -30.736   8.537  0.00  0.00    +0.148 HD
ATOM     36  C   UNK A  0       23.575 -32.077  10.371  0.00  0.00    +0.333 C 
ATOM     37  O   UNK A  0       22.710 -32.630   9.693  0.00  0.00    -0.279 OA
ATOM     38  C   UNK A  0       26.908 -30.466  10.070  0.00  0.00    +0.149 C 
ATOM     39  N   UNK A  0       27.909 -29.824  10.755  0.00  0.00    -0.199 NA
BRANCH  25  40
ATOM     40  N   UNK A  0       28.690 -28.890  12.705  0.00  0.00    -0.329 N 
ATOM     41  H   UNK A  0       29.346 -28.322  12.186  0.00  0.00    +0.145 HD
ATOM     42  H   UNK A  0       28.318 -28.424  13.526  0.00  0.00    +0.145 HD
ENDBRANCH  25  40
ENDBRANCH  24  32
ENDBRANCH   1  24
TORSDOF 12
ENDMDL
MODEL 7
REMARK VINA RESULT:      -8.5      2.352      3.622
REMARK  Name = *****
REMARK                            x       y       z     vdW  Elec       q    Type
REMARK                         _______ _______ _______ _____ _____    ______ ____
ROOT
ATOM      1  N   UNK A  0       24.588 -27.769   5.461  0.00  0.00    -0.342 N 
ATOM      2  H   UNK A  0       25.339 -28.107   4.861  0.00  0.00    +0.146 HD
ENDROOT
BRANCH   1   3
ATOM      3  C   UNK A  0       24.789 -26.480   5.956  0.00  0.00    +0.027 A 
ATOM      4  C   UNK A  0       23.738 -25.572   6.138  0.00  0.00    +0.024 A 
ATOM      5  C   UNK A  0       23.969 -24.261   6.561  0.00  0.00    +0.015 A 
ATOM      6  C   UNK A  0       25.273 -23.818   6.767  0.00  0.00    +0.037 A 
ATOM      7  C   UNK A  0       26.338 -24.707   6.590  0.00  0.00    +0.015 A 
ATOM      8  C   UNK A  0       26.094 -26.021   6.171  0.00  0.00    +0.024 A 
BRANCH   6   9
ATOM      9  C   UNK A  0       25.477 -22.378   7.092  0.00  0.00    +0.245 C 
ATOM     10  N   GLU A  1       26.662 -21.835   6.636  0.00  0.00    -0.298 N 
ATOM     11  H   GLU A  1       27.406 -22.457   6.339  0.00  0.00    +0.150 HD
ATOM     12  O   UNK A  0       24.614 -21.731   7.656  0.00  0.00    -0.270 OA
BRANCH  10  13
ATOM     13  CA  GLU A  1       27.041 -20.438   6.893  0.00  0.00    +0.182 C 
BRANCH  13  14
ATOM     14  C   GLU A  1       27.551 -19.845   5.564  0.00  0.00    +0.325 C 
ATOM     15  O   GLU A  1       28.547 -19.152   5.431  0.00  0.00    -0.249 OA
BRANCH  14  16
ATOM     16  OXT GLU A  1       26.723 -20.101   4.518  0.00  0.00    -0.479 OA
ATOM     17  HXT GLU A  1       27.211 -20.063   3.669  0.00  0.00    +0.295 HD
ENDBRANCH  14  16
ENDBRANCH  13  14
BRANCH  13  18
ATOM     18  CB  GLU A  1       28.085 -20.392   8.016  0.00  0.00    +0.045 C 
BRANCH  18  19
ATOM     19  CG  GLU A  1       29.305 -21.282   7.784  0.00  0.00    +0.123 C 
BRANCH  19  20
ATOM     20  CD  GLU A  1       30.565 -20.674   8.328  0.00  0.00    +0.305 C 
ATOM     21  OE1 GLU A  1       30.889 -20.610   9.501  0.00  0.00    -0.251 OA
BRANCH  20  22
ATOM     22  OE2 GLU A  1       31.370 -20.199   7.362  0.00  0.00    -0.481 OA
ATOM     23  HE2 GLU A  1       32.210 -19.993   7.823  0.00  0.00    +0.295 HD
ENDBRANCH  20  22
ENDBRANCH  19  20
ENDBRANCH  18  19
ENDBRANCH  13  18
ENDBRANCH  10  13
ENDBRANCH   6   9
ENDBRANCH   1   3
BRANCH   1  24
ATOM     24  C   UNK A  0       24.061 -28.800   6.362  0.00  0.00    +0.126 C 
BRANCH  24  32
ATOM     25  C   UNK A  0       22.234 -32.648   9.705  0.00  0.00    +0.195 C 
ATOM     26  N   UNK A  0       22.376 -33.386   8.581  0.00  0.00    -0.294 N 
ATOM     27  H   UNK A  0       21.807 -34.202   8.430  0.00  0.00    +0.172 HD
ATOM     28  C   UNK A  0       23.137 -32.980   7.526  0.00  0.00    +0.276 C 
ATOM     29  O   UNK A  0       23.122 -33.634   6.487  0.00  0.00    -0.266 OA
ATOM     30  C   UNK A  0       23.911 -31.713   7.719  0.00  0.00    +0.142 C 
ATOM     31  N   UNK A  0       24.770 -31.175   6.736  0.00  0.00    -0.261 N 
ATOM     32  C   UNK A  0       25.170 -29.748   6.884  0.00  0.00    +0.115 C 
ATOM     33  C   UNK A  0       25.473 -29.429   8.360  0.00  0.00    +0.127 C 
ATOM     34  N   UNK A  0       24.365 -29.882   9.181  0.00  0.00    -0.326 N 
ATOM     35  H   UNK A  0       24.418 -29.715  10.182  0.00  0.00    +0.148 HD
ATOM     36  C   UNK A  0       25.192 -31.825   5.587  0.00  0.00    +0.333 C 
ATOM     37  O   UNK A  0       25.936 -31.340   4.736  0.00  0.00    -0.279 OA
ATOM     38  C   UNK A  0       23.708 -31.078   8.909  0.00  0.00    +0.149 C 
ATOM     39  N   UNK A  0       22.874 -31.545   9.895  0.00  0.00    -0.199 NA
BRANCH  25  40
ATOM     40  N   UNK A  0       21.378 -33.122  10.641  0.00  0.00    -0.329 N 
ATOM     41  H   UNK A  0       20.506 -33.521  10.321  0.00  0.00    +0.145 HD
ATOM     42  H   UNK A  0       21.842 -33.685  11.346  0.00  0.00    +0.145 HD
ENDBRANCH  25  40
ENDBRANCH  24  32
ENDBRANCH   1  24
TORSDOF 12
ENDMDL
MODEL 8
REMARK VINA RESULT:      -8.4      2.444      9.136
REMARK  Name = *****
REMARK                            x       y       z     vdW  Elec       q    Type
REMARK                         _______ _______ _______ _____ _____    ______ ____
ROOT
ATOM      1  N   UNK A  0       24.235 -24.109   6.046  0.00  0.00    -0.342 N 
ATOM      2  H   UNK A  0       23.656 -23.865   6.849  0.00  0.00    +0.146 HD
ENDROOT
BRANCH   1   3
ATOM      3  C   UNK A  0       24.609 -25.452   6.000  0.00  0.00    +0.027 A 
ATOM      4  C   UNK A  0       24.002 -26.373   5.137  0.00  0.00    +0.024 A 
ATOM      5  C   UNK A  0       24.336 -27.729   5.160  0.00  0.00    +0.015 A 
ATOM      6  C   UNK A  0       25.261 -28.199   6.089  0.00  0.00    +0.037 A 
ATOM      7  C   UNK A  0       25.879 -27.298   6.961  0.00  0.00    +0.015 A 
ATOM      8  C   UNK A  0       25.540 -25.940   6.925  0.00  0.00    +0.024 A 
BRANCH   6   9
ATOM      9  C   UNK A  0       25.489 -29.670   6.161  0.00  0.00    +0.245 C 
ATOM     10  N   GLU A  1       25.506 -30.199   7.437  0.00  0.00    -0.298 N 
ATOM     11  H   GLU A  1       25.608 -29.574   8.227  0.00  0.00    +0.150 HD
ATOM     12  O   UNK A  0       25.578 -30.344   5.152  0.00  0.00    -0.270 OA
BRANCH  10  13
ATOM     13  CA  GLU A  1       25.749 -31.626   7.696  0.00  0.00    +0.182 C 
BRANCH  13  14
ATOM     14  C   GLU A  1       24.390 -32.274   8.027  0.00  0.00    +0.325 C 
ATOM     15  O   GLU A  1       23.345 -31.674   8.220  0.00  0.00    -0.249 OA
BRANCH  14  16
ATOM     16  OXT GLU A  1       24.467 -33.623   8.170  0.00  0.00    -0.479 OA
ATOM     17  HXT GLU A  1       23.573 -34.020   8.227  0.00  0.00    +0.295 HD
ENDBRANCH  14  16
ENDBRANCH  13  14
BRANCH  13  18
ATOM     18  CB  GLU A  1       26.778 -31.771   8.824  0.00  0.00    +0.045 C 
BRANCH  18  19
ATOM     19  CG  GLU A  1       26.472 -30.942  10.071  0.00  0.00    +0.123 C 
BRANCH  19  20
ATOM     20  CD  GLU A  1       27.498 -29.873  10.309  0.00  0.00    +0.305 C 
ATOM     21  OE1 GLU A  1       28.362 -29.878  11.169  0.00  0.00    -0.251 OA
BRANCH  20  22
ATOM     22  OE2 GLU A  1       27.403 -28.859   9.432  0.00  0.00    -0.481 OA
ATOM     23  HE2 GLU A  1       26.539 -28.999   8.990  0.00  0.00    +0.295 HD
ENDBRANCH  20  22
ENDBRANCH  19  20
ENDBRANCH  18  19
ENDBRANCH  13  18
ENDBRANCH  10  13
ENDBRANCH   6   9
ENDBRANCH   1   3
BRANCH   1  24
ATOM     24  C   UNK A  0       25.234 -23.083   5.722  0.00  0.00    +0.126 C 
BRANCH  24  32
ATOM     25  C   UNK A  0       29.660 -20.808   7.854  0.00  0.00    +0.195 C 
ATOM     26  N   UNK A  0       29.530 -20.038   6.751  0.00  0.00    -0.294 N 
ATOM     27  H   UNK A  0       30.334 -19.599   6.335  0.00  0.00    +0.172 HD
ATOM     28  C   UNK A  0       28.369 -19.961   6.040  0.00  0.00    +0.276 C 
ATOM     29  O   UNK A  0       28.354 -19.346   4.978  0.00  0.00    -0.266 OA
ATOM     30  C   UNK A  0       27.195 -20.695   6.612  0.00  0.00    +0.142 C 
ATOM     31  N   UNK A  0       25.916 -20.689   6.015  0.00  0.00    -0.261 N 
ATOM     32  C   UNK A  0       24.956 -21.742   6.447  0.00  0.00    +0.115 C 
ATOM     33  C   UNK A  0       25.040 -21.948   7.971  0.00  0.00    +0.127 C 
ATOM     34  N   UNK A  0       26.429 -22.142   8.348  0.00  0.00    -0.326 N 
ATOM     35  H   UNK A  0       26.634 -22.313   9.328  0.00  0.00    +0.148 HD
ATOM     36  C   UNK A  0       25.507 -19.857   4.985  0.00  0.00    +0.333 C 
ATOM     37  O   UNK A  0       24.389 -19.868   4.471  0.00  0.00    -0.279 OA
ATOM     38  C   UNK A  0       27.448 -21.409   7.746  0.00  0.00    +0.149 C 
ATOM     39  N   UNK A  0       28.673 -21.464   8.362  0.00  0.00    -0.199 NA
BRANCH  25  40
ATOM     40  N   UNK A  0       30.891 -20.865   8.415  0.00  0.00    -0.329 N 
ATOM     41  H   UNK A  0       31.150 -20.129   9.058  0.00  0.00    +0.145 HD
ATOM     42  H   UNK A  0       31.124 -21.794   8.754  0.00  0.00    +0.145 HD
ENDBRANCH  25  40
ENDBRANCH  24  32
ENDBRANCH   1  24
TORSDOF 12
ENDMDL
MODEL 9
REMARK VINA RESULT:      -8.4      2.925      9.383
REMARK  Name = *****
REMARK                            x       y       z     vdW  Elec       q    Type
REMARK                         _______ _______ _______ _____ _____    ______ ____
ROOT
ATOM      1  N   UNK A  0       25.070 -24.332   5.808  0.00  0.00    -0.342 N 
ATOM      2  H   UNK A  0       24.145 -23.915   5.716  0.00  0.00    +0.146 HD
ENDROOT
BRANCH   1   3
ATOM      3  C   UNK A  0       25.084 -25.722   5.688  0.00  0.00    +0.027 A 
ATOM      4  C   UNK A  0       24.094 -26.536   6.255  0.00  0.00    +0.024 A 
ATOM      5  C   UNK A  0       24.166 -27.929   6.190  0.00  0.00    +0.015 A 
ATOM      6  C   UNK A  0       25.265 -28.540   5.590  0.00  0.00    +0.037 A 
ATOM      7  C   UNK A  0       26.265 -27.747   5.018  0.00  0.00    +0.015 A 
ATOM      8  C   UNK A  0       26.179 -26.351   5.084  0.00  0.00    +0.024 A 
BRANCH   6   9
ATOM      9  C   UNK A  0       25.360 -30.025   5.658  0.00  0.00    +0.245 C 
ATOM     10  N   GLU A  1       24.928 -30.587   6.844  0.00  0.00    -0.298 N 
ATOM     11  H   GLU A  1       24.810 -29.992   7.656  0.00  0.00    +0.150 HD
ATOM     12  O   UNK A  0       25.725 -30.678   4.699  0.00  0.00    -0.270 OA
BRANCH  10  13
ATOM     13  CA  GLU A  1       24.980 -32.034   7.096  0.00  0.00    +0.182 C 
BRANCH  13  14
ATOM     14  C   GLU A  1       23.598 -32.616   6.737  0.00  0.00    +0.325 C 
ATOM     15  O   GLU A  1       22.876 -33.249   7.491  0.00  0.00    -0.249 OA
BRANCH  14  16
ATOM     16  OXT GLU A  1       23.266 -32.427   5.433  0.00  0.00    -0.479 OA
ATOM     17  HXT GLU A  1       22.334 -32.679   5.269  0.00  0.00    +0.295 HD
ENDBRANCH  14  16
ENDBRANCH  13  14
BRANCH  13  18
ATOM     18  CB  GLU A  1       25.380 -32.284   8.555  0.00  0.00    +0.045 C 
BRANCH  18  19
ATOM     19  CG  GLU A  1       26.856 -32.029   8.861  0.00  0.00    +0.123 C 
BRANCH  19  20
ATOM     20  CD  GLU A  1       27.064 -30.765   9.644  0.00  0.00    +0.305 C 
ATOM     21  OE1 GLU A  1       27.312 -30.685  10.834  0.00  0.00    -0.251 OA
BRANCH  20  22
ATOM     22  OE2 GLU A  1       26.976 -29.663   8.880  0.00  0.00    -0.481 OA
ATOM     23  HE2 GLU A  1       27.884 -29.530   8.537  0.00  0.00    +0.295 HD
ENDBRANCH  20  22
ENDBRANCH  19  20
ENDBRANCH  18  19
ENDBRANCH  13  18
ENDBRANCH  10  13
ENDBRANCH   6   9
ENDBRANCH   1   3
BRANCH   1  24
ATOM     24  C   UNK A  0       25.885 -23.704   6.854  0.00  0.00    +0.126 C 
BRANCH  24  32
ATOM     25  C   UNK A  0       28.479 -19.119   5.603  0.00  0.00    +0.195 C 
ATOM     26  N   UNK A  0       27.458 -19.039   4.720  0.00  0.00    -0.294 N 
ATOM     27  H   UNK A  0       27.567 -18.535   3.856  0.00  0.00    +0.172 HD
ATOM     28  C   UNK A  0       26.315 -19.770   4.849  0.00  0.00    +0.276 C 
ATOM     29  O   UNK A  0       25.482 -19.748   3.948  0.00  0.00    -0.266 OA
ATOM     30  C   UNK A  0       26.196 -20.594   6.094  0.00  0.00    +0.142 C 
ATOM     31  N   UNK A  0       25.063 -21.381   6.393  0.00  0.00    -0.261 N 
ATOM     32  C   UNK A  0       25.217 -22.432   7.436  0.00  0.00    +0.115 C 
ATOM     33  C   UNK A  0       26.054 -21.898   8.612  0.00  0.00    +0.127 C 
ATOM     34  N   UNK A  0       27.278 -21.311   8.096  0.00  0.00    -0.326 N 
ATOM     35  H   UNK A  0       27.943 -20.936   8.767  0.00  0.00    +0.148 HD
ATOM     36  C   UNK A  0       23.847 -21.336   5.728  0.00  0.00    +0.333 C 
ATOM     37  O   UNK A  0       22.870 -22.034   5.997  0.00  0.00    -0.279 OA
ATOM     38  C   UNK A  0       27.279 -20.565   6.921  0.00  0.00    +0.149 C 
ATOM     39  N   UNK A  0       28.413 -19.831   6.675  0.00  0.00    -0.199 NA
BRANCH  25  40
ATOM     40  N   UNK A  0       29.594 -18.408   5.311  0.00  0.00    -0.329 N 
ATOM     41  H   UNK A  0       30.014 -17.865   6.054  0.00  0.00    +0.145 HD
ATOM     42  H   UNK A  0       30.269 -18.943   4.774  0.00  0.00    +0.145 HD
ENDBRANCH  25  40
ENDBRANCH  24  32
ENDBRANCH   1  24
TORSDOF 12
ENDMDL
