MODEL 1
REMARK VINA RESULT:      -6.4      0.000      0.000
REMARK  Name = *****
REMARK                            x       y       z     vdW  Elec       q    Type
REMARK                         _______ _______ _______ _____ _____    ______ ____
ROOT
ATOM      1  N   LIG    1       22.711 -17.825   5.051  0.00  0.00    -0.312 NA
ATOM      2  H   LIG    1       23.685 -17.921   5.343  0.00  0.00    +0.122 HD
ENDROOT
BRANCH   1   3
ATOM      3  C   LIG    1       22.511 -18.670   3.869  0.00  0.00    +0.086 C 
BRANCH   3   4
ATOM      4  C   LIG    1       23.743 -19.528   3.539  0.00  0.00    +0.052 C 
BRANCH   4   7
ATOM      5  C   LIG    1       22.283 -21.560   5.593  0.00  0.00    +0.063 C 
ATOM      6  C   LIG    1       23.690 -21.082   5.590  0.00  0.00    +0.017 C 
ATOM      7  C   LIG    1       24.355 -20.228   4.721  0.00  0.00    -0.018 C 
ATOM      8  C   LIG    1       25.714 -20.132   5.184  0.00  0.00    +0.003 C 
ATOM      9  C   LIG    1       25.816 -20.916   6.333  0.00  0.00    +0.047 C 
ATOM     10  C   LIG    1       27.005 -21.053   7.062  0.00  0.00    +0.026 C 
ATOM     11  C   LIG    1       28.137 -20.383   6.593  0.00  0.00    +0.002 C 
ATOM     12  C   LIG    1       28.074 -19.596   5.447  0.00  0.00    +0.001 C 
ATOM     13  C   LIG    1       26.870 -19.454   4.740  0.00  0.00    +0.010 C 
ATOM     14  N   LIG    1       24.580 -21.468   6.559  0.00  0.00    -0.358 NA
ATOM     15  H   LIG    1       24.366 -22.077   7.336  0.00  0.00    +0.166 HD
ENDBRANCH   4   7
ENDBRANCH   3   4
ENDBRANCH   1   3
BRANCH   1  16
ATOM     16  C   LIG    1       22.448 -16.420   4.740  0.00  0.00    +0.116 C 
BRANCH  16  17
ATOM     17  C   LIG    1       23.681 -15.714   4.220  0.00  0.00    -0.034 C 
ATOM     18  C   LIG    1       23.729 -14.314   4.172  0.00  0.00    +0.005 C 
ATOM     19  C   LIG    1       24.832 -13.653   3.622  0.00  0.00    +0.008 C 
ATOM     20  C   LIG    1       25.902 -14.379   3.092  0.00  0.00    -0.025 C 
ATOM     21  C   LIG    1       25.875 -15.776   3.162  0.00  0.00    +0.008 C 
ATOM     22  C   LIG    1       24.777 -16.438   3.726  0.00  0.00    +0.005 C 
BRANCH  20  23
ATOM     23  C   LIG    1       27.062 -13.682   2.527  0.00  0.00    +0.013 C 
ATOM     24  C   LIG    1       28.054 -13.045   3.171  0.00  0.00    +0.070 C 
BRANCH  24  25
ATOM     25  C   LIG    1       28.250 -12.938   4.637  0.00  0.00    +0.259 C 
ATOM     26  N   LIG    1       29.114 -11.916   4.983  0.00  0.00    -0.194 N 
ATOM     27  H   LIG    1       29.521 -11.245   4.352  0.00  0.00    +0.182 HD
ATOM     28  O   LIG    1       27.748 -13.677   5.467  0.00  0.00    -0.269 OA
BRANCH  26  29
ATOM     29  O   LIG    1       29.378 -11.760   6.359  0.00  0.00    -0.295 OA
ATOM     30  H   LIG    1       30.284 -11.381   6.358  0.00  0.00    +0.241 HD
ENDBRANCH  26  29
ENDBRANCH  24  25
ENDBRANCH  20  23
ENDBRANCH  16  17
ENDBRANCH   1  16
TORSDOF 8
ENDMDL
MODEL 2
REMARK VINA RESULT:      -5.0      2.263      6.574
REMARK  Name = *****
REMARK                            x       y       z     vdW  Elec       q    Type
REMARK                         _______ _______ _______ _____ _____    ______ ____
ROOT
ATOM      1  N   LIG    1       22.541 -16.969   3.535  0.00  0.00    -0.312 NA
ATOM      2  H   LIG    1       23.465 -17.194   3.164  0.00  0.00    +0.122 HD
ENDROOT
BRANCH   1   3
ATOM      3  C   LIG    1       22.710 -15.932   4.559  0.00  0.00    +0.086 C 
BRANCH   3   4
ATOM      4  C   LIG    1       22.859 -14.525   3.959  0.00  0.00    +0.052 C 
BRANCH   4   7
ATOM      5  C   LIG    1       23.140 -11.639   5.397  0.00  0.00    +0.063 C 
ATOM      6  C   LIG    1       24.208 -12.565   4.939  0.00  0.00    +0.017 C 
ATOM      7  C   LIG    1       24.128 -13.812   4.336  0.00  0.00    -0.018 C 
ATOM      8  C   LIG    1       25.478 -14.266   4.128  0.00  0.00    +0.003 C 
ATOM      9  C   LIG    1       26.328 -13.263   4.595  0.00  0.00    +0.047 C 
ATOM     10  C   LIG    1       27.725 -13.360   4.545  0.00  0.00    +0.026 C 
ATOM     11  C   LIG    1       28.278 -14.530   4.018  0.00  0.00    +0.002 C 
ATOM     12  C   LIG    1       27.461 -15.554   3.548  0.00  0.00    +0.001 C 
ATOM     13  C   LIG    1       26.064 -15.432   3.588  0.00  0.00    +0.010 C 
ATOM     14  N   LIG    1       25.536 -12.247   5.068  0.00  0.00    -0.358 NA
ATOM     15  H   LIG    1       25.892 -11.387   5.459  0.00  0.00    +0.166 HD
ENDBRANCH   4   7
ENDBRANCH   3   4
ENDBRANCH   1   3
BRANCH   1  16
ATOM     16  C   LIG    1       21.954 -18.179   4.109  0.00  0.00    +0.116 C 
BRANCH  16  17
ATOM     17  C   LIG    1       23.008 -19.112   4.665  0.00  0.00    -0.034 C 
ATOM     18  C   LIG    1       22.809 -19.751   5.897  0.00  0.00    +0.005 C 
ATOM     19  C   LIG    1       23.809 -20.554   6.456  0.00  0.00    +0.008 C 
ATOM     20  C   LIG    1       25.034 -20.719   5.804  0.00  0.00    -0.025 C 
ATOM     21  C   LIG    1       25.229 -20.108   4.561  0.00  0.00    +0.008 C 
ATOM     22  C   LIG    1       24.223 -19.315   3.994  0.00  0.00    +0.005 C 
BRANCH  20  23
ATOM     23  C   LIG    1       26.074 -21.571   6.389  0.00  0.00    +0.013 C 
ATOM     24  C   LIG    1       27.378 -21.301   6.568  0.00  0.00    +0.070 C 
BRANCH  24  25
ATOM     25  C   LIG    1       28.082 -20.032   6.265  0.00  0.00    +0.259 C 
ATOM     26  N   LIG    1       27.944 -19.652   4.943  0.00  0.00    -0.194 N 
ATOM     27  H   LIG    1       27.372 -20.110   4.252  0.00  0.00    +0.182 HD
ATOM     28  O   LIG    1       28.749 -19.392   7.061  0.00  0.00    -0.269 OA
BRANCH  26  29
ATOM     29  O   LIG    1       28.605 -18.468   4.560  0.00  0.00    -0.295 OA
ATOM     30  H   LIG    1       29.529 -18.641   4.844  0.00  0.00    +0.241 HD
ENDBRANCH  26  29
ENDBRANCH  24  25
ENDBRANCH  20  23
ENDBRANCH  16  17
ENDBRANCH   1  16
TORSDOF 8
ENDMDL
MODEL 3
REMARK VINA RESULT:      -4.4      1.675      2.805
REMARK  Name = *****
REMARK                            x       y       z     vdW  Elec       q    Type
REMARK                         _______ _______ _______ _____ _____    ______ ____
ROOT
ATOM      1  N   LIG    1       22.663 -19.698   5.909  0.00  0.00    -0.312 NA
ATOM      2  H   LIG    1       23.583 -19.285   6.073  0.00  0.00    +0.122 HD
ENDROOT
BRANCH   1   3
ATOM      3  C   LIG    1       22.867 -21.083   5.469  0.00  0.00    +0.086 C 
BRANCH   3   4
ATOM      4  C   LIG    1       24.322 -21.549   5.633  0.00  0.00    +0.052 C 
BRANCH   4   7
ATOM      5  C   LIG    1       24.199 -20.150   2.717  0.00  0.00    +0.063 C 
ATOM      6  C   LIG    1       25.265 -20.071   3.750  0.00  0.00    +0.017 C 
ATOM      7  C   LIG    1       25.346 -20.640   5.013  0.00  0.00    -0.018 C 
ATOM      8  C   LIG    1       26.594 -20.213   5.586  0.00  0.00    +0.003 C 
ATOM      9  C   LIG    1       27.235 -19.415   4.638  0.00  0.00    +0.047 C 
ATOM     10  C   LIG    1       28.488 -18.827   4.854  0.00  0.00    +0.026 C 
ATOM     11  C   LIG    1       29.104 -19.042   6.089  0.00  0.00    +0.002 C 
ATOM     12  C   LIG    1       28.492 -19.827   7.062  0.00  0.00    +0.001 C 
ATOM     13  C   LIG    1       27.246 -20.425   6.822  0.00  0.00    +0.010 C 
ATOM     14  N   LIG    1       26.416 -19.356   3.538  0.00  0.00    -0.358 NA
ATOM     15  H   LIG    1       26.638 -18.849   2.693  0.00  0.00    +0.166 HD
ENDBRANCH   4   7
ENDBRANCH   3   4
ENDBRANCH   1   3
BRANCH   1  16
ATOM     16  C   LIG    1       21.970 -18.920   4.884  0.00  0.00    +0.116 C 
BRANCH  16  17
ATOM     17  C   LIG    1       22.550 -17.529   4.739  0.00  0.00    -0.034 C 
ATOM     18  C   LIG    1       21.946 -16.439   5.381  0.00  0.00    +0.005 C 
ATOM     19  C   LIG    1       22.427 -15.140   5.192  0.00  0.00    +0.008 C 
ATOM     20  C   LIG    1       23.511 -14.902   4.342  0.00  0.00    -0.025 C 
ATOM     21  C   LIG    1       24.137 -15.987   3.721  0.00  0.00    +0.008 C 
ATOM     22  C   LIG    1       23.664 -17.290   3.922  0.00  0.00    +0.005 C 
BRANCH  20  23
ATOM     23  C   LIG    1       24.020 -13.539   4.156  0.00  0.00    +0.013 C 
ATOM     24  C   LIG    1       25.235 -13.146   3.737  0.00  0.00    +0.070 C 
BRANCH  24  25
ATOM     25  C   LIG    1       26.357 -14.011   3.300  0.00  0.00    +0.259 C 
ATOM     26  N   LIG    1       27.155 -14.415   4.352  0.00  0.00    -0.194 N 
ATOM     27  H   LIG    1       26.986 -14.236   5.329  0.00  0.00    +0.182 HD
ATOM     28  O   LIG    1       26.596 -14.318   2.144  0.00  0.00    -0.269 OA
BRANCH  26  29
ATOM     29  O   LIG    1       28.264 -15.221   4.023  0.00  0.00    -0.295 OA
ATOM     30  H   LIG    1       28.881 -14.575   3.617  0.00  0.00    +0.241 HD
ENDBRANCH  26  29
ENDBRANCH  24  25
ENDBRANCH  20  23
ENDBRANCH  16  17
ENDBRANCH   1  16
TORSDOF 8
ENDMDL
MODEL 4
REMARK VINA RESULT:      -4.1      2.851      8.017
REMARK  Name = *****
REMARK                            x       y       z     vdW  Elec       q    Type
REMARK                         _______ _______ _______ _____ _____    ______ ____
ROOT
ATOM      1  N   LIG    1       29.153 -17.485   5.527  0.00  0.00    -0.312 NA
ATOM      2  H   LIG    1       28.750 -17.363   6.458  0.00  0.00    +0.122 HD
ENDROOT
BRANCH   1   3
ATOM      3  C   LIG    1       28.361 -16.685   4.587  0.00  0.00    +0.086 C 
BRANCH   3   4
ATOM      4  C   LIG    1       27.809 -15.399   5.221  0.00  0.00    +0.052 C 
BRANCH   4   7
ATOM      5  C   LIG    1       29.475 -13.225   3.497  0.00  0.00    +0.063 C 
ATOM      6  C   LIG    1       28.009 -13.470   3.529  0.00  0.00    +0.017 C 
ATOM      7  C   LIG    1       27.263 -14.399   4.239  0.00  0.00    -0.018 C 
ATOM      8  C   LIG    1       25.886 -14.201   3.872  0.00  0.00    +0.003 C 
ATOM      9  C   LIG    1       25.847 -13.141   2.966  0.00  0.00    +0.047 C 
ATOM     10  C   LIG    1       24.659 -12.663   2.398  0.00  0.00    +0.026 C 
ATOM     11  C   LIG    1       23.467 -13.301   2.748  0.00  0.00    +0.002 C 
ATOM     12  C   LIG    1       23.467 -14.366   3.645  0.00  0.00    +0.001 C 
ATOM     13  C   LIG    1       24.664 -14.819   4.220  0.00  0.00    +0.010 C 
ATOM     14  N   LIG    1       27.140 -12.714   2.787  0.00  0.00    -0.358 NA
ATOM     15  H   LIG    1       27.404 -11.947   2.185  0.00  0.00    +0.166 HD
ENDBRANCH   4   7
ENDBRANCH   3   4
ENDBRANCH   1   3
BRANCH   1  16
ATOM     16  C   LIG    1       29.108 -18.903   5.175  0.00  0.00    +0.116 C 
BRANCH  16  17
ATOM     17  C   LIG    1       27.769 -19.527   5.503  0.00  0.00    -0.034 C 
ATOM     18  C   LIG    1       27.534 -20.074   6.772  0.00  0.00    +0.005 C 
ATOM     19  C   LIG    1       26.328 -20.721   7.062  0.00  0.00    +0.008 C 
ATOM     20  C   LIG    1       25.340 -20.851   6.082  0.00  0.00    -0.025 C 
ATOM     21  C   LIG    1       25.555 -20.283   4.822  0.00  0.00    +0.008 C 
ATOM     22  C   LIG    1       26.757 -19.621   4.536  0.00  0.00    +0.005 C 
BRANCH  20  23
ATOM     23  C   LIG    1       24.073 -21.520   6.393  0.00  0.00    +0.013 C 
ATOM     24  C   LIG    1       22.845 -21.256   5.914  0.00  0.00    +0.070 C 
BRANCH  24  25
ATOM     25  C   LIG    1       22.476 -20.244   4.896  0.00  0.00    +0.259 C 
ATOM     26  N   LIG    1       22.378 -18.971   5.426  0.00  0.00    -0.194 N 
ATOM     27  H   LIG    1       22.603 -18.703   6.370  0.00  0.00    +0.182 HD
ATOM     28  O   LIG    1       22.242 -20.482   3.723  0.00  0.00    -0.269 OA
BRANCH  26  29
ATOM     29  O   LIG    1       22.005 -17.948   4.530  0.00  0.00    -0.295 OA
ATOM     30  H   LIG    1       22.578 -17.203   4.812  0.00  0.00    +0.241 HD
ENDBRANCH  26  29
ENDBRANCH  24  25
ENDBRANCH  20  23
ENDBRANCH  16  17
ENDBRANCH   1  16
TORSDOF 8
ENDMDL
