MODEL 1
REMARK VINA RESULT:      -3.1      0.000      0.000
REMARK  Name = *****
REMARK                            x       y       z     vdW  Elec       q    Type
REMARK                         _______ _______ _______ _____ _____    ______ ____
ROOT
ATOM      1  C   LIG    1       21.925 -17.979   4.400  0.00  0.00    +0.019 C 
ENDROOT
BRANCH   1   2
ATOM      2  C   LIG    1       23.136 -17.039   4.397  0.00  0.00    +0.042 C 
BRANCH   2   3
ATOM      3  C   LIG    1       22.733 -15.645   4.876  0.00  0.00    +0.229 C 
BRANCH   3   4
ATOM      4  O   LIG    1       23.009 -14.697   3.841  0.00  0.00    -0.492 OA
BRANCH   4  13
ATOM      5  O   LIG    1       29.136 -12.196   6.490  0.00  0.00    -0.276 OA
ATOM      6  C   LIG    1       28.486 -12.544   5.503  0.00  0.00    +0.217 C 
ATOM      7  N   LIG    1       27.224 -13.073   5.636  0.00  0.00    -0.285 N 
ATOM      8  H   LIG    1       26.870 -13.120   6.583  0.00  0.00    +0.155 HD
ATOM      9  C   LIG    1       26.447 -13.528   4.566  0.00  0.00    +0.040 A 
ATOM     10  C   LIG    1       27.017 -13.645   3.300  0.00  0.00    -0.025 A 
ATOM     11  C   LIG    1       26.237 -14.130   2.245  0.00  0.00    +0.009 A 
ATOM     12  C   LIG    1       24.896 -14.463   2.465  0.00  0.00    +0.046 A 
ATOM     13  C   LIG    1       24.324 -14.322   3.731  0.00  0.00    +0.122 A 
ATOM     14  C   LIG    1       28.486 -13.368   3.128  0.00  0.00    +0.046 C 
ATOM     15  C   LIG    1       25.113 -13.876   4.793  0.00  0.00    +0.069 A 
ATOM     16  C   LIG    1       28.957 -12.292   4.097  0.00  0.00    +0.101 C 
ENDBRANCH   4  13
ENDBRANCH   3   4
ENDBRANCH   2   3
ENDBRANCH   1   2
BRANCH   1  17
ATOM     17  C   LIG    1       22.244 -19.350   3.782  0.00  0.00    +0.085 C 
BRANCH  17  18
ATOM     18  N   LIG    1       22.219 -20.453   4.760  0.00  0.00    -0.299 NA
ATOM     19  C   LIG    1       23.115 -21.565   4.339  0.00  0.00    +0.103 C 
ATOM     20  C   LIG    1       24.639 -21.280   4.458  0.00  0.00    +0.120 C 
ATOM     21  N   LIG    1       24.985 -20.805   5.822  0.00  0.00    -0.326 N 
ATOM     22  C   LIG    1       24.119 -19.701   6.287  0.00  0.00    +0.120 C 
ATOM     23  C   LIG    1       22.625 -20.068   6.133  0.00  0.00    +0.103 C 
BRANCH  21  24
ATOM     24  C   LIG    1       26.378 -20.662   6.031  0.00  0.00    +0.050 A 
ATOM     25  C   LIG    1       27.122 -19.613   5.427  0.00  0.00    +0.080 A 
ATOM     26 CL   LIG    1       26.336 -18.503   4.336  0.00  0.00    -0.080 Cl
ATOM     27  C   LIG    1       28.507 -19.494   5.656  0.00  0.00    +0.061 A 
ATOM     28 CL   LIG    1       29.470 -18.236   4.955  0.00  0.00    -0.082 Cl
ATOM     29  C   LIG    1       29.171 -20.413   6.472  0.00  0.00    +0.021 A 
ATOM     30  C   LIG    1       28.463 -21.451   7.061  0.00  0.00    +0.003 A 
ATOM     31  C   LIG    1       27.088 -21.569   6.844  0.00  0.00    +0.025 A 
ENDBRANCH  21  24
ENDBRANCH  17  18
ENDBRANCH   1  17
TORSDOF 7
ENDMDL
