MODEL 1
REMARK VINA RESULT:      -5.3      0.000      0.000
REMARK  Name = *****
REMARK                            x       y       z     vdW  Elec       q    Type
REMARK                         _______ _______ _______ _____ _____    ______ ____
ROOT
ATOM      1  C   LIG    1       25.574 -21.510   6.042  0.00  0.00    +0.120 C 
ENDROOT
BRANCH   1   2
ATOM      2  C   LIG    1       26.907 -20.794   6.140  0.00  0.00    -0.033 A 
ATOM      3  C   LIG    1       27.896 -21.249   7.026  0.00  0.00    +0.005 A 
ATOM      4  C   LIG    1       29.153 -20.640   7.062  0.00  0.00    +0.000 A 
ATOM      5  C   LIG    1       29.428 -19.556   6.231  0.00  0.00    +0.000 A 
ATOM      6  C   LIG    1       28.440 -19.066   5.379  0.00  0.00    +0.000 A 
ATOM      7  C   LIG    1       27.186 -19.681   5.332  0.00  0.00    +0.005 A 
ENDBRANCH   1   2
BRANCH   1   8
ATOM      8  N   LIG    1       24.410 -20.603   6.013  0.00  0.00    -0.290 NA
ATOM      9  C   LIG    1       23.446 -20.968   7.055  0.00  0.00    +0.106 C 
BRANCH   8  10
ATOM     10  C   LIG    1       23.758 -20.542   4.691  0.00  0.00    +0.173 C 
BRANCH  10  12
ATOM     11  C   LIG    1       22.104 -18.467   4.385  0.00  0.00    +0.005 C 
ATOM     12  C   LIG    1       22.819 -19.422   4.544  0.00  0.00    -0.090 C 
ENDBRANCH  10  12
ENDBRANCH   8  10
ENDBRANCH   1   8
TORSDOF 4
ENDMDL
MODEL 2
REMARK VINA RESULT:      -5.1      0.921      1.610
REMARK  Name = *****
REMARK                            x       y       z     vdW  Elec       q    Type
REMARK                         _______ _______ _______ _____ _____    ______ ____
ROOT
ATOM      1  C   LIG    1       25.491 -19.800   4.531  0.00  0.00    +0.120 C 
ENDROOT
BRANCH   1   2
ATOM      2  C   LIG    1       26.705 -20.072   5.396  0.00  0.00    -0.033 A 
ATOM      3  C   LIG    1       26.701 -21.131   6.317  0.00  0.00    +0.005 A 
ATOM      4  C   LIG    1       27.845 -21.434   7.060  0.00  0.00    +0.000 A 
ATOM      5  C   LIG    1       28.998 -20.667   6.908  0.00  0.00    +0.000 A 
ATOM      6  C   LIG    1       29.003 -19.585   6.030  0.00  0.00    +0.000 A 
ATOM      7  C   LIG    1       27.863 -19.288   5.277  0.00  0.00    +0.005 A 
ENDBRANCH   1   2
BRANCH   1   8
ATOM      8  N   LIG    1       24.412 -20.796   4.684  0.00  0.00    -0.290 NA
ATOM      9  C   LIG    1       23.924 -21.232   3.373  0.00  0.00    +0.106 C 
BRANCH   8  10
ATOM     10  C   LIG    1       23.300 -20.316   5.527  0.00  0.00    +0.173 C 
BRANCH  10  12
ATOM     11  C   LIG    1       21.983 -18.236   4.494  0.00  0.00    +0.005 C 
ATOM     12  C   LIG    1       22.550 -19.199   4.938  0.00  0.00    -0.090 C 
ENDBRANCH  10  12
ENDBRANCH   8  10
ENDBRANCH   1   8
TORSDOF 4
ENDMDL
MODEL 3
REMARK VINA RESULT:      -5.1      0.838      1.682
REMARK  Name = *****
REMARK                            x       y       z     vdW  Elec       q    Type
REMARK                         _______ _______ _______ _____ _____    ______ ____
ROOT
ATOM      1  C   LIG    1       24.663 -21.306   5.189  0.00  0.00    +0.120 C 
ENDROOT
BRANCH   1   2
ATOM      2  C   LIG    1       26.047 -20.815   5.570  0.00  0.00    -0.033 A 
ATOM      3  C   LIG    1       26.666 -19.791   4.838  0.00  0.00    +0.005 A 
ATOM      4  C   LIG    1       27.906 -19.283   5.233  0.00  0.00    +0.000 A 
ATOM      5  C   LIG    1       28.552 -19.809   6.350  0.00  0.00    +0.000 A 
ATOM      6  C   LIG    1       27.968 -20.857   7.060  0.00  0.00    +0.000 A 
ATOM      7  C   LIG    1       26.722 -21.358   6.674  0.00  0.00    +0.005 A 
ENDBRANCH   1   2
BRANCH   1   8
ATOM      8  N   LIG    1       23.569 -20.623   5.907  0.00  0.00    -0.290 NA
ATOM      9  C   LIG    1       23.133 -21.417   7.058  0.00  0.00    +0.106 C 
BRANCH   8  10
ATOM     10  C   LIG    1       22.426 -20.289   5.034  0.00  0.00    +0.173 C 
BRANCH  10  12
ATOM     11  C   LIG    1       22.329 -17.686   4.446  0.00  0.00    +0.005 C 
ATOM     12  C   LIG    1       22.350 -18.867   4.676  0.00  0.00    -0.090 C 
ENDBRANCH  10  12
ENDBRANCH   8  10
ENDBRANCH   1   8
TORSDOF 4
ENDMDL
MODEL 4
REMARK VINA RESULT:      -4.3      1.310      5.019
REMARK  Name = *****
REMARK                            x       y       z     vdW  Elec       q    Type
REMARK                         _______ _______ _______ _____ _____    ______ ____
ROOT
ATOM      1  C   LIG    1       26.240 -20.276   4.688  0.00  0.00    +0.120 C 
ENDROOT
BRANCH   1   2
ATOM      2  C   LIG    1       24.747 -20.044   4.562  0.00  0.00    -0.033 A 
ATOM      3  C   LIG    1       23.836 -21.031   4.970  0.00  0.00    +0.005 A 
ATOM      4  C   LIG    1       22.461 -20.790   4.928  0.00  0.00    +0.000 A 
ATOM      5  C   LIG    1       21.979 -19.571   4.456  0.00  0.00    +0.000 A 
ATOM      6  C   LIG    1       22.871 -18.599   4.006  0.00  0.00    +0.000 A 
ATOM      7  C   LIG    1       24.248 -18.833   4.058  0.00  0.00    +0.005 A 
ENDBRANCH   1   2
BRANCH   1   8
ATOM      8  N   LIG    1       26.639 -20.923   5.953  0.00  0.00    -0.290 NA
ATOM      9  C   LIG    1       25.813 -20.440   7.062  0.00  0.00    +0.106 C 
BRANCH   8  10
ATOM     10  C   LIG    1       28.075 -20.762   6.255  0.00  0.00    +0.173 C 
BRANCH  10  12
ATOM     11  C   LIG    1       29.116 -18.417   5.515  0.00  0.00    +0.005 C 
ATOM     12  C   LIG    1       28.617 -19.453   5.870  0.00  0.00    -0.090 C 
ENDBRANCH  10  12
ENDBRANCH   8  10
ENDBRANCH   1   8
TORSDOF 4
ENDMDL
MODEL 5
REMARK VINA RESULT:      -4.3      3.719      5.032
REMARK  Name = *****
REMARK                            x       y       z     vdW  Elec       q    Type
REMARK                         _______ _______ _______ _____ _____    ______ ____
ROOT
ATOM      1  C   LIG    1       25.719 -17.622   3.033  0.00  0.00    +0.120 C 
ENDROOT
BRANCH   1   2
ATOM      2  C   LIG    1       25.883 -16.186   3.494  0.00  0.00    -0.033 A 
ATOM      3  C   LIG    1       24.759 -15.400   3.788  0.00  0.00    +0.005 A 
ATOM      4  C   LIG    1       24.908 -14.104   4.288  0.00  0.00    +0.000 A 
ATOM      5  C   LIG    1       26.181 -13.571   4.476  0.00  0.00    +0.000 A 
ATOM      6  C   LIG    1       27.306 -14.324   4.146  0.00  0.00    +0.000 A 
ATOM      7  C   LIG    1       27.159 -15.626   3.657  0.00  0.00    +0.005 A 
ENDBRANCH   1   2
BRANCH   1   8
ATOM      8  N   LIG    1       25.091 -18.503   4.036  0.00  0.00    -0.290 NA
ATOM      9  C   LIG    1       25.942 -19.666   4.305  0.00  0.00    +0.106 C 
BRANCH   8  10
ATOM     10  C   LIG    1       23.727 -18.924   3.662  0.00  0.00    +0.173 C 
BRANCH  10  12
ATOM     11  C   LIG    1       22.562 -20.405   5.554  0.00  0.00    +0.005 C 
ATOM     12  C   LIG    1       23.049 -19.721   4.693  0.00  0.00    -0.090 C 
ENDBRANCH  10  12
ENDBRANCH   8  10
ENDBRANCH   1   8
TORSDOF 4
ENDMDL
MODEL 6
REMARK VINA RESULT:      -4.2      5.730      8.040
REMARK  Name = *****
REMARK                            x       y       z     vdW  Elec       q    Type
REMARK                         _______ _______ _______ _____ _____    ______ ____
ROOT
ATOM      1  C   LIG    1       25.071 -15.514   3.799  0.00  0.00    +0.120 C 
ENDROOT
BRANCH   1   2
ATOM      2  C   LIG    1       24.743 -14.074   3.455  0.00  0.00    -0.033 A 
ATOM      3  C   LIG    1       24.940 -13.590   2.152  0.00  0.00    +0.005 A 
ATOM      4  C   LIG    1       24.565 -12.288   1.812  0.00  0.00    +0.000 A 
ATOM      5  C   LIG    1       24.013 -11.447   2.776  0.00  0.00    +0.000 A 
ATOM      6  C   LIG    1       23.854 -11.900   4.085  0.00  0.00    +0.000 A 
ATOM      7  C   LIG    1       24.216 -13.206   4.423  0.00  0.00    +0.005 A 
ENDBRANCH   1   2
BRANCH   1   8
ATOM      8  N   LIG    1       26.416 -15.940   3.364  0.00  0.00    -0.290 NA
ATOM      9  C   LIG    1       26.498 -17.402   3.303  0.00  0.00    +0.106 C 
BRANCH   8  10
ATOM     10  C   LIG    1       27.496 -15.387   4.204  0.00  0.00    +0.173 C 
BRANCH  10  12
ATOM     11  C   LIG    1       28.311 -12.934   3.533  0.00  0.00    +0.005 C 
ATOM     12  C   LIG    1       27.937 -14.048   3.795  0.00  0.00    -0.090 C 
ENDBRANCH  10  12
ENDBRANCH   8  10
ENDBRANCH   1   8
TORSDOF 4
ENDMDL
MODEL 7
REMARK VINA RESULT:      -4.2      3.717      4.969
REMARK  Name = *****
REMARK                            x       y       z     vdW  Elec       q    Type
REMARK                         _______ _______ _______ _____ _____    ______ ____
ROOT
ATOM      1  C   LIG    1       25.716 -17.665   3.039  0.00  0.00    +0.120 C 
ENDROOT
BRANCH   1   2
ATOM      2  C   LIG    1       25.883 -16.234   3.513  0.00  0.00    -0.033 A 
ATOM      3  C   LIG    1       27.162 -15.676   3.658  0.00  0.00    +0.005 A 
ATOM      4  C   LIG    1       27.317 -14.335   4.018  0.00  0.00    +0.000 A 
ATOM      5  C   LIG    1       26.196 -13.543   4.259  0.00  0.00    +0.000 A 
ATOM      6  C   LIG    1       24.921 -14.096   4.162  0.00  0.00    +0.000 A 
ATOM      7  C   LIG    1       24.763 -15.434   3.790  0.00  0.00    +0.005 A 
ENDBRANCH   1   2
BRANCH   1   8
ATOM      8  N   LIG    1       25.084 -18.553   4.034  0.00  0.00    -0.290 NA
ATOM      9  C   LIG    1       25.937 -19.714   4.304  0.00  0.00    +0.106 C 
BRANCH   8  10
ATOM     10  C   LIG    1       23.724 -18.977   3.648  0.00  0.00    +0.173 C 
BRANCH  10  12
ATOM     11  C   LIG    1       22.540 -20.466   5.522  0.00  0.00    +0.005 C 
ATOM     12  C   LIG    1       23.038 -19.772   4.675  0.00  0.00    -0.090 C 
ENDBRANCH  10  12
ENDBRANCH   8  10
ENDBRANCH   1   8
TORSDOF 4
ENDMDL
MODEL 8
REMARK VINA RESULT:      -4.0      6.070      7.180
REMARK  Name = *****
REMARK                            x       y       z     vdW  Elec       q    Type
REMARK                         _______ _______ _______ _____ _____    ______ ____
ROOT
ATOM      1  C   LIG    1       25.344 -14.970   3.730  0.00  0.00    +0.120 C 
ENDROOT
BRANCH   1   2
ATOM      2  C   LIG    1       26.577 -14.144   4.039  0.00  0.00    -0.033 A 
ATOM      3  C   LIG    1       27.567 -13.949   3.064  0.00  0.00    +0.005 A 
ATOM      4  C   LIG    1       28.665 -13.124   3.320  0.00  0.00    +0.000 A 
ATOM      5  C   LIG    1       28.799 -12.504   4.561  0.00  0.00    +0.000 A 
ATOM      6  C   LIG    1       27.846 -12.725   5.554  0.00  0.00    +0.000 A 
ATOM      7  C   LIG    1       26.740 -13.540   5.296  0.00  0.00    +0.005 A 
ENDBRANCH   1   2
BRANCH   1   8
ATOM      8  N   LIG    1       24.075 -14.303   4.079  0.00  0.00    -0.290 NA
ATOM      9  C   LIG    1       23.135 -15.261   4.668  0.00  0.00    +0.106 C 
BRANCH   8  10
ATOM     10  C   LIG    1       23.461 -13.597   2.938  0.00  0.00    +0.173 C 
BRANCH  10  12
ATOM     11  C   LIG    1       24.818 -11.447   2.119  0.00  0.00    +0.005 C 
ATOM     12  C   LIG    1       24.196 -12.394   2.523  0.00  0.00    -0.090 C 
ENDBRANCH  10  12
ENDBRANCH   8  10
ENDBRANCH   1   8
TORSDOF 4
ENDMDL
MODEL 9
REMARK VINA RESULT:      -3.8      5.091      7.030
REMARK  Name = *****
REMARK                            x       y       z     vdW  Elec       q    Type
REMARK                         _______ _______ _______ _____ _____    ______ ____
ROOT
ATOM      1  C   LIG    1       27.314 -15.072   3.634  0.00  0.00    +0.120 C 
ENDROOT
BRANCH   1   2
ATOM      2  C   LIG    1       26.171 -14.086   3.485  0.00  0.00    -0.033 A 
ATOM      3  C   LIG    1       25.912 -13.477   2.247  0.00  0.00    +0.005 A 
ATOM      4  C   LIG    1       24.813 -12.630   2.087  0.00  0.00    +0.000 A 
ATOM      5  C   LIG    1       23.975 -12.363   3.167  0.00  0.00    +0.000 A 
ATOM      6  C   LIG    1       24.246 -12.925   4.413  0.00  0.00    +0.000 A 
ATOM      7  C   LIG    1       25.338 -13.783   4.572  0.00  0.00    +0.005 A 
ENDBRANCH   1   2
BRANCH   1   8
ATOM      8  N   LIG    1       26.888 -16.420   4.057  0.00  0.00    -0.290 NA
ATOM      9  C   LIG    1       28.053 -17.257   4.359  0.00  0.00    +0.106 C 
BRANCH   8  10
ATOM     10  C   LIG    1       26.006 -17.081   3.076  0.00  0.00    +0.173 C 
BRANCH  10  12
ATOM     11  C   LIG    1       25.108 -19.478   3.836  0.00  0.00    +0.005 C 
ATOM     12  C   LIG    1       25.552 -18.414   3.492  0.00  0.00    -0.090 C 
ENDBRANCH  10  12
ENDBRANCH   8  10
ENDBRANCH   1   8
TORSDOF 4
ENDMDL
