MODEL 1
REMARK VINA RESULT:       5.3      0.000      0.000
REMARK  Name = *****
REMARK                            x       y       z     vdW  Elec       q    Type
REMARK                         _______ _______ _______ _____ _____    ______ ____
ROOT
ATOM      1  C   LIG    1       22.866 -19.837   4.862  0.00  0.00    +0.065 C 
ATOM      2  C   LIG    1       23.744 -18.928   3.986  0.00  0.00    +0.096 C 
ATOM      3  C   LIG    1       25.246 -19.173   4.168  0.00  0.00    +0.065 C 
ATOM      4  C   LIG    1       25.698 -19.904   5.216  0.00  0.00    +0.016 C 
ATOM      5  C   LIG    1       27.145 -20.162   5.560  0.00  0.00    +0.061 C 
ATOM      6  N   LIG    1       24.789 -20.506   6.071  0.00  0.00    -0.321 N 
ATOM      7  H   LIG    1       25.171 -21.151   6.759  0.00  0.00    +0.152 HD
ATOM      8  C   LIG    1       23.420 -20.575   5.853  0.00  0.00    +0.016 C 
ATOM      9  C   LIG    1       22.695 -21.528   6.775  0.00  0.00    +0.061 C 
ENDROOT
BRANCH   2  10
ATOM     10  C   LIG    1       23.377 -17.446   4.189  0.00  0.00    -0.029 A 
ATOM     11  C   LIG    1       22.586 -17.032   5.273  0.00  0.00    +0.088 A 
ATOM     12  C   LIG    1       22.270 -15.673   5.433  0.00  0.00    +0.273 A 
ATOM     13  C   LIG    1       22.750 -14.712   4.535  0.00  0.00    +0.084 A 
ATOM     14  C   LIG    1       23.530 -15.118   3.455  0.00  0.00    +0.007 A 
ATOM     15  C   LIG    1       23.830 -16.472   3.278  0.00  0.00    +0.005 A 
BRANCH  12  16
ATOM     16  N   LIG    1       21.414 -15.253   6.550  0.00  0.00    +0.080 N 
ATOM     17  O   LIG    1       20.520 -16.028   6.916  0.00  0.00    -0.576 OA
ATOM     18  O   LIG    1       21.634 -14.145   7.061  0.00  0.00    +0.041 OA
ENDBRANCH  12  16
ENDBRANCH   2  10
BRANCH   1  19
ATOM     19  C   LIG    1       21.413 -19.895   4.516  0.00  0.00    +0.337 C 
ATOM     20  O   LIG    1       20.710 -20.880   4.566  0.00  0.00    -0.245 OA
BRANCH  19  22
ATOM     21  C   LIG    1       19.969 -18.611   3.144  0.00  0.00    +0.280 C 
ATOM     22  O   LIG    1       21.012 -18.659   4.116  0.00  0.00    -0.465 OA
ENDBRANCH  19  22
ENDBRANCH   1  19
BRANCH   3  23
ATOM     23  C   LIG    1       26.075 -18.644   3.051  0.00  0.00    +0.338 C 
ATOM     24  O   LIG    1       26.727 -19.356   2.299  0.00  0.00    -0.245 OA
BRANCH  23  25
ATOM     25  O   LIG    1       26.087 -17.295   3.032  0.00  0.00    -0.460 OA
BRANCH  25  26
ATOM     26  C   LIG    1       27.119 -16.650   3.790  0.00  0.00    +0.247 C 
BRANCH  26  27
ATOM     27  C   LIG    1       27.260 -15.186   3.354  0.00  0.00    +0.125 C 
BRANCH  27  28
ATOM     28  N   LIG    1       27.826 -14.272   4.362  0.00  0.00    -0.298 NA
ATOM     29  C   LIG    1       28.761 -13.361   3.685  0.00  0.00    +0.105 C 
BRANCH  28  30
ATOM     30  C   LIG    1       26.775 -13.532   5.092  0.00  0.00    +0.119 C 
BRANCH  30  31
ATOM     31  C   LIG    1       25.778 -12.797   4.218  0.00  0.00    -0.033 A 
ATOM     32  C   LIG    1       24.668 -12.136   4.768  0.00  0.00    +0.005 A 
ATOM     33  C   LIG    1       23.774 -11.447   3.952  0.00  0.00    +0.000 A 
ATOM     34  C   LIG    1       23.951 -11.448   2.571  0.00  0.00    +0.000 A 
ATOM     35  C   LIG    1       25.023 -12.137   2.006  0.00  0.00    +0.000 A 
ATOM     36  C   LIG    1       25.931 -12.813   2.825  0.00  0.00    +0.005 A 
ENDBRANCH  30  31
ENDBRANCH  28  30
ENDBRANCH  27  28
ENDBRANCH  26  27
ENDBRANCH  25  26
ENDBRANCH  23  25
ENDBRANCH   3  23
TORSDOF 11
ENDMDL
MODEL 2
REMARK VINA RESULT:       6.9      1.509      2.152
REMARK  Name = *****
REMARK                            x       y       z     vdW  Elec       q    Type
REMARK                         _______ _______ _______ _____ _____    ______ ____
ROOT
ATOM      1  C   LIG    1       22.809 -19.859   4.800  0.00  0.00    +0.065 C 
ATOM      2  C   LIG    1       23.704 -18.960   3.934  0.00  0.00    +0.096 C 
ATOM      3  C   LIG    1       25.200 -19.239   4.109  0.00  0.00    +0.065 C 
ATOM      4  C   LIG    1       25.639 -19.993   5.147  0.00  0.00    +0.016 C 
ATOM      5  C   LIG    1       27.081 -20.286   5.484  0.00  0.00    +0.061 C 
ATOM      6  N   LIG    1       24.719 -20.585   5.996  0.00  0.00    -0.321 N 
ATOM      7  H   LIG    1       25.088 -21.246   6.676  0.00  0.00    +0.152 HD
ATOM      8  C   LIG    1       23.348 -20.622   5.781  0.00  0.00    +0.016 C 
ATOM      9  C   LIG    1       22.605 -21.571   6.693  0.00  0.00    +0.061 C 
ENDROOT
BRANCH   2  10
ATOM     10  C   LIG    1       23.370 -17.472   4.156  0.00  0.00    -0.029 A 
ATOM     11  C   LIG    1       23.786 -16.487   3.246  0.00  0.00    +0.088 A 
ATOM     12  C   LIG    1       23.466 -15.139   3.473  0.00  0.00    +0.273 A 
ATOM     13  C   LIG    1       22.713 -14.758   4.592  0.00  0.00    +0.084 A 
ATOM     14  C   LIG    1       22.304 -15.730   5.501  0.00  0.00    +0.007 A 
ATOM     15  C   LIG    1       22.638 -17.071   5.291  0.00  0.00    +0.005 A 
BRANCH  12  16
ATOM     16  N   LIG    1       23.934 -14.112   2.534  0.00  0.00    +0.080 N 
ATOM     17  O   LIG    1       23.108 -13.283   2.127  0.00  0.00    -0.576 OA
ATOM     18  O   LIG    1       25.127 -14.136   2.201  0.00  0.00    +0.041 OA
ENDBRANCH  12  16
ENDBRANCH   2  10
BRANCH   1  19
ATOM     19  C   LIG    1       21.354 -19.883   4.457  0.00  0.00    +0.337 C 
ATOM     20  O   LIG    1       20.630 -20.853   4.496  0.00  0.00    -0.245 OA
BRANCH  19  22
ATOM     21  C   LIG    1       19.943 -18.551   3.095  0.00  0.00    +0.280 C 
ATOM     22  O   LIG    1       20.979 -18.633   4.072  0.00  0.00    -0.465 OA
ENDBRANCH  19  22
ENDBRANCH   1  19
BRANCH   3  23
ATOM     23  C   LIG    1       26.039 -18.714   2.997  0.00  0.00    +0.338 C 
ATOM     24  O   LIG    1       26.541 -19.426   2.137  0.00  0.00    -0.245 OA
BRANCH  23  25
ATOM     25  O   LIG    1       26.245 -17.385   3.109  0.00  0.00    -0.460 OA
BRANCH  25  26
ATOM     26  C   LIG    1       27.478 -16.975   3.715  0.00  0.00    +0.247 C 
BRANCH  26  27
ATOM     27  C   LIG    1       27.305 -15.610   4.394  0.00  0.00    +0.125 C 
BRANCH  27  28
ATOM     28  N   LIG    1       28.066 -14.498   3.795  0.00  0.00    -0.298 NA
ATOM     29  C   LIG    1       27.621 -14.332   2.403  0.00  0.00    +0.105 C 
BRANCH  28  30
ATOM     30  C   LIG    1       27.921 -13.248   4.568  0.00  0.00    +0.119 C 
BRANCH  30  31
ATOM     31  C   LIG    1       26.511 -12.697   4.647  0.00  0.00    -0.033 A 
ATOM     32  C   LIG    1       25.961 -11.935   3.603  0.00  0.00    +0.005 A 
ATOM     33  C   LIG    1       24.656 -11.455   3.683  0.00  0.00    +0.000 A 
ATOM     34  C   LIG    1       23.898 -11.691   4.827  0.00  0.00    +0.000 A 
ATOM     35  C   LIG    1       24.445 -12.407   5.890  0.00  0.00    +0.000 A 
ATOM     36  C   LIG    1       25.747 -12.904   5.804  0.00  0.00    +0.005 A 
ENDBRANCH  30  31
ENDBRANCH  28  30
ENDBRANCH  27  28
ENDBRANCH  26  27
ENDBRANCH  25  26
ENDBRANCH  23  25
ENDBRANCH   3  23
TORSDOF 11
ENDMDL
