MODEL 1
REMARK VINA RESULT:      -4.4      0.000      0.000
REMARK  Name = *****
REMARK                            x       y       z     vdW  Elec       q    Type
REMARK                         _______ _______ _______ _____ _____    ______ ____
ROOT
ATOM      1  C   LIG    1       26.050 -13.383   4.401  0.00  0.00    +0.342 C 
ENDROOT
BRANCH   1   3
ATOM      2  O   LIG    1       23.039 -14.907   4.348  0.00  0.00    -0.256 OA
ATOM      3  P   LIG    1       24.417 -14.210   4.372  0.00  0.00    +0.368 P 
BRANCH   3   4
ATOM      4  O   LIG    1       24.072 -13.444   2.944  0.00  0.00    -0.322 OA
ATOM      5  H   LIG    1       24.827 -13.625   2.342  0.00  0.00    +0.220 HD
ENDBRANCH   3   4
BRANCH   3   6
ATOM      6  O   LIG    1       25.126 -15.509   3.647  0.00  0.00    -0.322 OA
ATOM      7  H   LIG    1       25.261 -15.288   2.702  0.00  0.00    +0.220 HD
ENDBRANCH   3   6
ENDBRANCH   1   3
BRANCH   1   8
ATOM      8  P   LIG    1       27.315 -13.945   3.265  0.00  0.00    +0.368 P 
ATOM      9  O   LIG    1       26.950 -14.282   1.850  0.00  0.00    -0.256 OA
BRANCH   8  10
ATOM     10  O   LIG    1       27.992 -15.222   3.966  0.00  0.00    -0.322 OA
ATOM     11  H   LIG    1       27.490 -15.509   4.755  0.00  0.00    +0.220 HD
ENDBRANCH   8  10
BRANCH   8  12
ATOM     12  O   LIG    1       28.538 -12.914   3.320  0.00  0.00    -0.322 OA
ATOM     13  H   LIG    1       28.313 -12.055   2.913  0.00  0.00    +0.220 HD
ENDBRANCH   8  12
ENDBRANCH   1   8
BRANCH   1  14
ATOM     14  O   LIG    1       26.596 -13.343   5.748  0.00  0.00    -0.370 OA
ATOM     15  H   LIG    1       25.870 -12.949   6.281  0.00  0.00    +0.211 HD
ENDBRANCH   1  14
TORSDOF 7
ENDMDL
MODEL 2
REMARK VINA RESULT:      -3.9      1.223      2.572
REMARK  Name = *****
REMARK                            x       y       z     vdW  Elec       q    Type
REMARK                         _______ _______ _______ _____ _____    ______ ____
ROOT
ATOM      1  C   LIG    1       25.829 -14.041   3.236  0.00  0.00    +0.342 C 
ENDROOT
BRANCH   1   3
ATOM      2  O   LIG    1       23.575 -11.624   3.917  0.00  0.00    -0.256 OA
ATOM      3  P   LIG    1       24.607 -12.731   3.605  0.00  0.00    +0.368 P 
BRANCH   3   4
ATOM      4  O   LIG    1       23.906 -12.988   2.126  0.00  0.00    -0.322 OA
ATOM      5  H   LIG    1       22.978 -13.257   2.301  0.00  0.00    +0.220 HD
ENDBRANCH   3   4
BRANCH   3   6
ATOM      6  O   LIG    1       23.683 -13.857   4.376  0.00  0.00    -0.322 OA
ATOM      7  H   LIG    1       23.800 -13.732   5.340  0.00  0.00    +0.220 HD
ENDBRANCH   3   6
ENDBRANCH   1   3
BRANCH   1   8
ATOM      8  P   LIG    1       27.356 -14.079   4.171  0.00  0.00    +0.368 P 
ATOM      9  O   LIG    1       27.384 -13.546   5.572  0.00  0.00    -0.256 OA
BRANCH   8  10
ATOM     10  O   LIG    1       28.434 -13.296   3.275  0.00  0.00    -0.322 OA
ATOM     11  H   LIG    1       28.944 -13.909   2.707  0.00  0.00    +0.220 HD
ENDBRANCH   8  10
BRANCH   8  12
ATOM     12  O   LIG    1       27.955 -15.561   4.101  0.00  0.00    -0.322 OA
ATOM     13  H   LIG    1       27.315 -16.231   4.412  0.00  0.00    +0.220 HD
ENDBRANCH   8  12
ENDBRANCH   1   8
BRANCH   1  14
ATOM     14  O   LIG    1       26.134 -14.091   1.814  0.00  0.00    -0.370 OA
ATOM     15  H   LIG    1       25.281 -14.351   1.402  0.00  0.00    +0.211 HD
ENDBRANCH   1  14
TORSDOF 7
ENDMDL
MODEL 3
REMARK VINA RESULT:      -3.8      1.112      3.965
REMARK  Name = *****
REMARK                            x       y       z     vdW  Elec       q    Type
REMARK                         _______ _______ _______ _____ _____    ______ ____
ROOT
ATOM      1  C   LIG    1       25.906 -14.322   3.142  0.00  0.00    +0.342 C 
ENDROOT
BRANCH   1   3
ATOM      2  O   LIG    1       28.837 -12.948   4.095  0.00  0.00    -0.256 OA
ATOM      3  P   LIG    1       27.495 -13.577   3.659  0.00  0.00    +0.368 P 
BRANCH   3   4
ATOM      4  O   LIG    1       26.893 -13.392   5.191  0.00  0.00    -0.322 OA
ATOM      5  H   LIG    1       27.564 -13.768   5.801  0.00  0.00    +0.220 HD
ENDBRANCH   3   4
BRANCH   3   6
ATOM      6  O   LIG    1       28.076 -15.094   3.938  0.00  0.00    -0.322 OA
ATOM      7  H   LIG    1       28.187 -15.199   4.905  0.00  0.00    +0.220 HD
ENDBRANCH   3   6
ENDBRANCH   1   3
BRANCH   1   8
ATOM      8  P   LIG    1       24.382 -13.541   3.665  0.00  0.00    +0.368 P 
ATOM      9  O   LIG    1       24.422 -12.431   4.672  0.00  0.00    -0.256 OA
BRANCH   8  10
ATOM     10  O   LIG    1       23.449 -14.729   4.208  0.00  0.00    -0.322 OA
ATOM     11  H   LIG    1       23.528 -14.837   5.178  0.00  0.00    +0.220 HD
ENDBRANCH   8  10
BRANCH   8  12
ATOM     12  O   LIG    1       23.560 -13.112   2.360  0.00  0.00    -0.322 OA
ATOM     13  H   LIG    1       23.363 -13.875   1.783  0.00  0.00    +0.220 HD
ENDBRANCH   8  12
ENDBRANCH   1   8
BRANCH   1  14
ATOM     14  O   LIG    1       25.858 -15.739   3.468  0.00  0.00    -0.370 OA
ATOM     15  H   LIG    1       26.487 -15.826   4.219  0.00  0.00    +0.211 HD
ENDBRANCH   1  14
TORSDOF 7
ENDMDL
MODEL 4
REMARK VINA RESULT:      -3.8      1.243      3.971
REMARK  Name = *****
REMARK                            x       y       z     vdW  Elec       q    Type
REMARK                         _______ _______ _______ _____ _____    ______ ____
ROOT
ATOM      1  C   LIG    1       26.230 -13.261   2.821  0.00  0.00    +0.342 C 
ENDROOT
BRANCH   1   3
ATOM      2  O   LIG    1       28.753 -12.589   4.959  0.00  0.00    -0.256 OA
ATOM      3  P   LIG    1       27.598 -12.897   3.980  0.00  0.00    +0.368 P 
BRANCH   3   4
ATOM      4  O   LIG    1       26.595 -13.249   5.251  0.00  0.00    -0.322 OA
ATOM      5  H   LIG    1       26.992 -14.018   5.715  0.00  0.00    +0.220 HD
ENDBRANCH   3   4
BRANCH   3   6
ATOM      6  O   LIG    1       28.118 -14.450   3.801  0.00  0.00    -0.322 OA
ATOM      7  H   LIG    1       27.410 -15.043   4.129  0.00  0.00    +0.220 HD
ENDBRANCH   3   6
ENDBRANCH   1   3
BRANCH   1   8
ATOM      8  P   LIG    1       24.578 -13.464   3.481  0.00  0.00    +0.368 P 
ATOM      9  O   LIG    1       24.196 -14.749   4.151  0.00  0.00    -0.256 OA
BRANCH   8  10
ATOM     10  O   LIG    1       23.581 -13.177   2.255  0.00  0.00    -0.322 OA
ATOM     11  H   LIG    1       22.814 -12.636   2.532  0.00  0.00    +0.220 HD
ENDBRANCH   8  10
BRANCH   8  12
ATOM     12  O   LIG    1       24.247 -12.204   4.411  0.00  0.00    -0.322 OA
ATOM     13  H   LIG    1       24.271 -11.363   3.914  0.00  0.00    +0.220 HD
ENDBRANCH   8  12
ENDBRANCH   1   8
BRANCH   1  14
ATOM     14  O   LIG    1       26.550 -14.394   1.968  0.00  0.00    -0.370 OA
ATOM     15  H   LIG    1       26.704 -13.986   1.087  0.00  0.00    +0.211 HD
ENDBRANCH   1  14
TORSDOF 7
ENDMDL
MODEL 5
REMARK VINA RESULT:      -3.6      1.176      2.039
REMARK  Name = *****
REMARK                            x       y       z     vdW  Elec       q    Type
REMARK                         _______ _______ _______ _____ _____    ______ ____
ROOT
ATOM      1  C   LIG    1       26.100 -13.704   3.031  0.00  0.00    +0.342 C 
ENDROOT
BRANCH   1   3
ATOM      2  O   LIG    1       23.220 -14.671   4.503  0.00  0.00    -0.256 OA
ATOM      3  P   LIG    1       24.538 -14.228   3.829  0.00  0.00    +0.368 P 
BRANCH   3   4
ATOM      4  O   LIG    1       24.608 -12.893   4.808  0.00  0.00    -0.322 OA
ATOM      5  H   LIG    1       24.646 -13.227   5.731  0.00  0.00    +0.220 HD
ENDBRANCH   3   4
BRANCH   3   6
ATOM      6  O   LIG    1       23.708 -13.458   2.632  0.00  0.00    -0.322 OA
ATOM      7  H   LIG    1       24.280 -12.746   2.279  0.00  0.00    +0.220 HD
ENDBRANCH   3   6
ENDBRANCH   1   3
BRANCH   1   8
ATOM      8  P   LIG    1       27.607 -13.728   3.997  0.00  0.00    +0.368 P 
ATOM      9  O   LIG    1       28.809 -12.972   3.521  0.00  0.00    -0.256 OA
BRANCH   8  10
ATOM     10  O   LIG    1       27.981 -15.280   4.178  0.00  0.00    -0.322 OA
ATOM     11  H   LIG    1       28.270 -15.477   5.092  0.00  0.00    +0.220 HD
ENDBRANCH   8  10
BRANCH   8  12
ATOM     12  O   LIG    1       27.243 -13.350   5.510  0.00  0.00    -0.322 OA
ATOM     13  H   LIG    1       26.572 -12.642   5.560  0.00  0.00    +0.220 HD
ENDBRANCH   8  12
ENDBRANCH   1   8
BRANCH   1  14
ATOM     14  O   LIG    1       25.955 -12.403   2.397  0.00  0.00    -0.370 OA
ATOM     15  H   LIG    1       26.635 -12.413   1.687  0.00  0.00    +0.211 HD
ENDBRANCH   1  14
TORSDOF 7
ENDMDL
MODEL 6
REMARK VINA RESULT:      -3.5      0.903      3.719
REMARK  Name = *****
REMARK                            x       y       z     vdW  Elec       q    Type
REMARK                         _______ _______ _______ _____ _____    ______ ____
ROOT
ATOM      1  C   LIG    1       26.212 -13.618   4.792  0.00  0.00    +0.342 C 
ENDROOT
BRANCH   1   3
ATOM      2  O   LIG    1       29.348 -13.208   3.613  0.00  0.00    -0.256 OA
ATOM      3  P   LIG    1       27.913 -13.396   4.153  0.00  0.00    +0.368 P 
BRANCH   3   4
ATOM      4  O   LIG    1       28.064 -15.040   4.026  0.00  0.00    -0.322 OA
ATOM      5  H   LIG    1       27.844 -15.270   3.096  0.00  0.00    +0.220 HD
ENDBRANCH   3   4
BRANCH   3   6
ATOM      6  O   LIG    1       27.284 -13.214   2.640  0.00  0.00    -0.322 OA
ATOM      7  H   LIG    1       26.699 -13.979   2.464  0.00  0.00    +0.220 HD
ENDBRANCH   3   6
ENDBRANCH   1   3
BRANCH   1   8
ATOM      8  P   LIG    1       24.941 -14.186   3.666  0.00  0.00    +0.368 P 
ATOM      9  O   LIG    1       24.409 -13.260   2.614  0.00  0.00    -0.256 OA
BRANCH   8  10
ATOM     10  O   LIG    1       23.735 -14.698   4.595  0.00  0.00    -0.322 OA
ATOM     11  H   LIG    1       23.034 -15.132   4.069  0.00  0.00    +0.220 HD
ENDBRANCH   8  10
BRANCH   8  12
ATOM     12  O   LIG    1       25.415 -15.577   3.030  0.00  0.00    -0.322 OA
ATOM     13  H   LIG    1       25.232 -16.333   3.621  0.00  0.00    +0.220 HD
ENDBRANCH   8  12
ENDBRANCH   1   8
BRANCH   1  14
ATOM     14  O   LIG    1       25.748 -12.423   5.479  0.00  0.00    -0.370 OA
ATOM     15  H   LIG    1       26.409 -11.739   5.228  0.00  0.00    +0.211 HD
ENDBRANCH   1  14
TORSDOF 7
ENDMDL
MODEL 7
REMARK VINA RESULT:      -3.5      1.424      2.253
REMARK  Name = *****
REMARK                            x       y       z     vdW  Elec       q    Type
REMARK                         _______ _______ _______ _____ _____    ______ ____
ROOT
ATOM      1  C   LIG    1       25.052 -14.435   4.183  0.00  0.00    +0.342 C 
ENDROOT
BRANCH   1   3
ATOM      2  O   LIG    1       23.565 -11.447   3.682  0.00  0.00    -0.256 OA
ATOM      3  P   LIG    1       24.246 -12.815   3.912  0.00  0.00    +0.368 P 
BRANCH   3   4
ATOM      4  O   LIG    1       25.609 -12.283   3.135  0.00  0.00    -0.322 OA
ATOM      5  H   LIG    1       25.617 -11.305   3.224  0.00  0.00    +0.220 HD
ENDBRANCH   3   4
BRANCH   3   6
ATOM      6  O   LIG    1       23.557 -13.425   2.545  0.00  0.00    -0.322 OA
ATOM      7  H   LIG    1       22.615 -13.608   2.740  0.00  0.00    +0.220 HD
ENDBRANCH   3   6
ENDBRANCH   1   3
BRANCH   1   8
ATOM      8  P   LIG    1       26.530 -14.823   3.251  0.00  0.00    +0.368 P 
ATOM      9  O   LIG    1       26.636 -14.407   1.815  0.00  0.00    -0.256 OA
BRANCH   8  10
ATOM     10  O   LIG    1       26.711 -16.415   3.366  0.00  0.00    -0.322 OA
ATOM     11  H   LIG    1       25.977 -16.894   2.930  0.00  0.00    +0.220 HD
ENDBRANCH   8  10
BRANCH   8  12
ATOM     12  O   LIG    1       27.802 -14.336   4.092  0.00  0.00    -0.322 OA
ATOM     13  H   LIG    1       27.560 -13.686   4.780  0.00  0.00    +0.220 HD
ENDBRANCH   8  12
ENDBRANCH   1   8
BRANCH   1  14
ATOM     14  O   LIG    1       24.099 -15.525   4.052  0.00  0.00    -0.370 OA
ATOM     15  H   LIG    1       23.742 -15.633   4.962  0.00  0.00    +0.211 HD
ENDBRANCH   1  14
TORSDOF 7
ENDMDL
MODEL 8
REMARK VINA RESULT:      -3.4      5.702      7.443
REMARK  Name = *****
REMARK                            x       y       z     vdW  Elec       q    Type
REMARK                         _______ _______ _______ _____ _____    ______ ____
ROOT
ATOM      1  C   LIG    1       24.465 -20.760   4.544  0.00  0.00    +0.342 C 
ENDROOT
BRANCH   1   3
ATOM      2  O   LIG    1       25.793 -17.932   3.268  0.00  0.00    -0.256 OA
ATOM      3  P   LIG    1       25.185 -19.226   3.853  0.00  0.00    +0.368 P 
BRANCH   3   4
ATOM      4  O   LIG    1       26.660 -19.659   4.470  0.00  0.00    -0.322 OA
ATOM      5  H   LIG    1       27.109 -20.187   3.774  0.00  0.00    +0.220 HD
ENDBRANCH   3   4
BRANCH   3   6
ATOM      6  O   LIG    1       25.413 -20.018   2.425  0.00  0.00    -0.322 OA
ATOM      7  H   LIG    1       26.355 -20.282   2.376  0.00  0.00    +0.220 HD
ENDBRANCH   3   6
ENDBRANCH   1   3
BRANCH   1   8
ATOM      8  P   LIG    1       23.033 -20.629   5.611  0.00  0.00    +0.368 P 
ATOM      9  O   LIG    1       23.149 -20.986   7.062  0.00  0.00    -0.256 OA
BRANCH   8  10
ATOM     10  O   LIG    1       21.894 -21.528   4.923  0.00  0.00    -0.322 OA
ATOM     11  H   LIG    1       21.489 -22.149   5.562  0.00  0.00    +0.220 HD
ENDBRANCH   8  10
BRANCH   8  12
ATOM     12  O   LIG    1       22.393 -19.173   5.421  0.00  0.00    -0.322 OA
ATOM     13  H   LIG    1       21.925 -18.870   6.223  0.00  0.00    +0.220 HD
ENDBRANCH   8  12
ENDBRANCH   1   8
BRANCH   1  14
ATOM     14  O   LIG    1       25.480 -21.570   5.199  0.00  0.00    -0.370 OA
ATOM     15  H   LIG    1       25.726 -21.040   5.990  0.00  0.00    +0.211 HD
ENDBRANCH   1  14
TORSDOF 7
ENDMDL
MODEL 9
REMARK VINA RESULT:      -3.3      1.503      3.317
REMARK  Name = *****
REMARK                            x       y       z     vdW  Elec       q    Type
REMARK                         _______ _______ _______ _____ _____    ______ ____
ROOT
ATOM      1  C   LIG    1       25.807 -13.623   4.248  0.00  0.00    +0.342 C 
ENDROOT
BRANCH   1   3
ATOM      2  O   LIG    1       26.459 -16.675   2.964  0.00  0.00    -0.256 OA
ATOM      3  P   LIG    1       26.160 -15.278   3.552  0.00  0.00    +0.368 P 
BRANCH   3   4
ATOM      4  O   LIG    1       26.372 -14.588   2.060  0.00  0.00    -0.322 OA
ATOM      5  H   LIG    1       25.934 -13.709   2.095  0.00  0.00    +0.220 HD
ENDBRANCH   3   4
BRANCH   3   6
ATOM      6  O   LIG    1       27.736 -15.091   3.997  0.00  0.00    -0.322 OA
ATOM      7  H   LIG    1       28.283 -15.651   3.409  0.00  0.00    +0.220 HD
ENDBRANCH   3   6
ENDBRANCH   1   3
BRANCH   1   8
ATOM      8  P   LIG    1       24.499 -12.645   3.514  0.00  0.00    +0.368 P 
ATOM      9  O   LIG    1       23.761 -11.641   4.347  0.00  0.00    -0.256 OA
BRANCH   8  10
ATOM     10  O   LIG    1       23.459 -13.703   2.898  0.00  0.00    -0.322 OA
ATOM     11  H   LIG    1       23.106 -13.403   2.036  0.00  0.00    +0.220 HD
ENDBRANCH   8  10
BRANCH   8  12
ATOM     12  O   LIG    1       25.058 -11.985   2.167  0.00  0.00    -0.322 OA
ATOM     13  H   LIG    1       25.955 -11.617   2.282  0.00  0.00    +0.220 HD
ENDBRANCH   8  12
ENDBRANCH   1   8
BRANCH   1  14
ATOM     14  O   LIG    1       27.016 -12.820   4.337  0.00  0.00    -0.370 OA
ATOM     15  H   LIG    1       27.114 -12.446   3.433  0.00  0.00    +0.211 HD
ENDBRANCH   1  14
TORSDOF 7
ENDMDL
