MODEL 1
REMARK VINA RESULT:      15.6      0.000      0.000
REMARK  Name = *****
REMARK                            x       y       z     vdW  Elec       q    Type
REMARK                         _______ _______ _______ _____ _____    ______ ____
ROOT
ATOM      1  C   LIG    1       23.720 -14.201   3.965  0.00  0.00    +0.182 C 
ATOM      2  C   LIG    1       23.496 -12.848   4.685  0.00  0.00    +0.163 C 
ATOM      3  C   LIG    1       22.269 -12.777   5.584  0.00  0.00    +0.084 C 
ATOM      4  C   LIG    1       22.361 -13.893   6.600  0.00  0.00    +0.042 C 
ATOM      5  C   LIG    1       22.182 -15.220   5.868  0.00  0.00    +0.084 C 
ATOM      6  C   LIG    1       23.238 -15.480   4.747  0.00  0.00    +0.169 C 
ENDROOT
BRANCH   3   7
ATOM      7  N   LIG    1       22.232 -11.450   6.224  0.00  0.00    -0.325 NA
ATOM      8  H   LIG    1       23.036 -11.345   6.845  0.00  0.00    +0.118 HD
ATOM      9  H   LIG    1       22.320 -10.714   5.521  0.00  0.00    +0.118 HD
ENDBRANCH   3   7
BRANCH   5  10
ATOM     10  N   LIG    1       22.183 -16.281   6.902  0.00  0.00    -0.325 NA
ATOM     11  H   LIG    1       22.770 -15.985   7.686  0.00  0.00    +0.118 HD
ATOM     12  H   LIG    1       22.630 -17.119   6.525  0.00  0.00    +0.118 HD
ENDBRANCH   5  10
BRANCH   2  13
ATOM     13  O   LIG    1       23.356 -11.785   3.724  0.00  0.00    -0.388 OA
ATOM     14  H   LIG    1       22.786 -11.119   4.156  0.00  0.00    +0.210 HD
ENDBRANCH   2  13
BRANCH   6  15
ATOM     15  O   LIG    1       22.731 -16.413   3.744  0.00  0.00    -0.342 OA
BRANCH  15  16
ATOM     16  C   LIG    1       22.958 -17.821   3.957  0.00  0.00    +0.270 C 
ATOM     17  C   LIG    1       22.420 -18.682   2.774  0.00  0.00    +0.139 C 
ATOM     18  C   LIG    1       22.631 -20.175   3.099  0.00  0.00    +0.167 C 
ATOM     19  C   LIG    1       21.971 -20.537   4.435  0.00  0.00    +0.175 C 
ATOM     20  C   LIG    1       22.426 -19.585   5.560  0.00  0.00    +0.178 C 
ATOM     21  O   LIG    1       22.307 -18.192   5.191  0.00  0.00    -0.342 OA
BRANCH  17  22
ATOM     22  N   LIG    1       21.008 -18.362   2.437  0.00  0.00    -0.321 NA
ATOM     23  H   LIG    1       20.589 -19.218   2.049  0.00  0.00    +0.119 HD
ATOM     24  H   LIG    1       20.516 -18.231   3.327  0.00  0.00    +0.119 HD
ENDBRANCH  17  22
BRANCH  19  25
ATOM     25  O   LIG    1       20.543 -20.461   4.275  0.00  0.00    -0.387 OA
ATOM     26  H   LIG    1       20.304 -19.522   4.173  0.00  0.00    +0.210 HD
ENDBRANCH  19  25
BRANCH  18  27
ATOM     27  O   LIG    1       24.028 -20.497   3.151  0.00  0.00    -0.387 OA
ATOM     28  H   LIG    1       24.506 -19.818   2.639  0.00  0.00    +0.210 HD
ENDBRANCH  18  27
BRANCH  20  29
ATOM     29  C   LIG    1       23.829 -19.929   6.095  0.00  0.00    +0.190 C 
BRANCH  29  30
ATOM     30  O   LIG    1       23.752 -21.020   7.014  0.00  0.00    -0.392 OA
ATOM     31  H   LIG    1       23.997 -21.821   6.510  0.00  0.00    +0.209 HD
ENDBRANCH  29  30
ENDBRANCH  20  29
ENDBRANCH  15  16
ENDBRANCH   6  15
BRANCH   1  32
ATOM     32  O   LIG    1       25.148 -14.398   3.733  0.00  0.00    -0.340 OA
BRANCH  32  35
ATOM     33  C   LIG    1       27.881 -15.098   4.943  0.00  0.00    +0.186 C 
ATOM     34  C   LIG    1       26.553 -14.760   5.637  0.00  0.00    +0.202 C 
ATOM     35  C   LIG    1       25.986 -13.732   4.675  0.00  0.00    +0.282 C 
ATOM     36  O   LIG    1       27.095 -13.081   4.037  0.00  0.00    -0.341 OA
ATOM     37  C   LIG    1       28.316 -13.705   4.500  0.00  0.00    +0.178 C 
BRANCH  34  38
ATOM     38  O   LIG    1       26.633 -14.061   6.891  0.00  0.00    -0.384 OA
ATOM     39  H   LIG    1       26.359 -13.149   6.652  0.00  0.00    +0.210 HD
ENDBRANCH  34  38
BRANCH  33  40
ATOM     40  O   LIG    1       28.822 -15.968   5.580  0.00  0.00    -0.341 OA
BRANCH  40  45
ATOM     41  C   LIG    1       28.875 -19.522   5.662  0.00  0.00    +0.166 C 
ATOM     42  C   LIG    1       27.346 -19.578   5.550  0.00  0.00    +0.175 C 
ATOM     43  C   LIG    1       26.800 -18.323   4.809  0.00  0.00    +0.167 C 
ATOM     44  C   LIG    1       27.911 -17.615   3.991  0.00  0.00    +0.139 C 
ATOM     45  C   LIG    1       29.074 -17.236   4.976  0.00  0.00    +0.270 C 
ATOM     46  O   LIG    1       29.155 -18.177   6.038  0.00  0.00    -0.343 OA
BRANCH  44  47
ATOM     47  N   LIG    1       27.392 -16.500   3.173  0.00  0.00    -0.321 NA
ATOM     48  H   LIG    1       26.881 -15.877   3.806  0.00  0.00    +0.119 HD
ATOM     49  H   LIG    1       28.183 -15.955   2.824  0.00  0.00    +0.119 HD
ENDBRANCH  44  47
BRANCH  43  50
ATOM     50  O   LIG    1       25.713 -18.712   3.956  0.00  0.00    -0.387 OA
ATOM     51  H   LIG    1       25.042 -18.005   4.031  0.00  0.00    +0.210 HD
ENDBRANCH  43  50
BRANCH  42  52
ATOM     52  O   LIG    1       26.737 -19.592   6.856  0.00  0.00    -0.387 OA
ATOM     53  H   LIG    1       26.039 -20.265   6.837  0.00  0.00    +0.210 HD
ENDBRANCH  42  52
BRANCH  41  54
ATOM     54  C   LIG    1       29.475 -20.443   6.747  0.00  0.00    +0.112 C 
BRANCH  54  55
ATOM     55  N   LIG    1       28.580 -21.568   7.061  0.00  0.00    -0.328 NA
ATOM     56  H   LIG    1       27.634 -21.392   6.695  0.00  0.00    +0.118 HD
ATOM     57  H   LIG    1       28.893 -22.399   6.558  0.00  0.00    +0.118 HD
ENDBRANCH  54  55
ENDBRANCH  41  54
ENDBRANCH  40  45
ENDBRANCH  33  40
BRANCH  37  58
ATOM     58  C   LIG    1       29.342 -13.680   3.374  0.00  0.00    +0.190 C 
BRANCH  58  59
ATOM     59  O   LIG    1       29.114 -12.531   2.553  0.00  0.00    -0.392 OA
ATOM     60  H   LIG    1       28.175 -12.532   2.305  0.00  0.00    +0.209 HD
ENDBRANCH  58  59
ENDBRANCH  37  58
ENDBRANCH  32  35
ENDBRANCH   1  32
TORSDOF 22
ENDMDL
