MODEL 1
REMARK VINA RESULT:      -8.6      0.000      0.000
REMARK  Name = *****
REMARK                            x       y       z     vdW  Elec       q    Type
REMARK                         _______ _______ _______ _____ _____    ______ ____
ROOT
ATOM      1  C   LIG    1       26.206 -20.087   5.828  0.00  0.00    +0.063 C 
ATOM      2  C   LIG    1       25.377 -21.358   6.095  0.00  0.00    -0.030 A 
ATOM      3  C   LIG    1       23.967 -21.355   5.878  0.00  0.00    -0.020 A 
ATOM      4  C   LIG    1       23.230 -22.541   6.101  0.00  0.00    +0.089 A 
ATOM      5  C   LIG    1       23.872 -23.699   6.545  0.00  0.00    +0.177 A 
ATOM      6  C   LIG    1       25.238 -23.693   6.767  0.00  0.00    +0.160 A 
ATOM      7 CL   LIG    1       21.520 -22.641   5.826  0.00  0.00    -0.079 Cl
ATOM      8  C   LIG    1       23.289 -20.084   5.403  0.00  0.00    +0.052 C 
ATOM      9  C   LIG    1       23.708 -19.695   3.982  0.00  0.00    +0.085 C 
ATOM     10  N   LIG    1       24.942 -18.910   3.929  0.00  0.00    -0.315 NA
ATOM     11  H   LIG    1       25.076 -18.581   2.973  0.00  0.00    +0.122 HD
ATOM     12  C   LIG    1       25.988 -22.547   6.548  0.00  0.00    +0.053 A 
ATOM     13  C   LIG    1       26.141 -19.665   4.329  0.00  0.00    +0.093 C 
ENDROOT
BRANCH   1  17
ATOM     14  C   LIG    1       30.316 -20.168   7.209  0.00  0.00    +0.117 A 
ATOM     15  C   LIG    1       29.385 -21.008   7.807  0.00  0.00    +0.045 A 
ATOM     16  C   LIG    1       28.059 -20.994   7.371  0.00  0.00    +0.008 A 
ATOM     17  C   LIG    1       27.656 -20.141   6.327  0.00  0.00    -0.038 A 
ATOM     18  C   LIG    1       28.616 -19.292   5.747  0.00  0.00    +0.008 A 
ATOM     19  C   LIG    1       29.943 -19.308   6.184  0.00  0.00    +0.045 A 
BRANCH  14  20
ATOM     20  O   LIG    1       31.600 -20.215   7.667  0.00  0.00    -0.507 OA
ATOM     21  H   LIG    1       31.995 -19.334   7.569  0.00  0.00    +0.292 HD
ENDBRANCH  14  20
ENDBRANCH   1  17
BRANCH   6  22
ATOM     22  O   LIG    1       25.867 -24.825   7.201  0.00  0.00    -0.503 OA
ATOM     23  H   LIG    1       25.302 -25.561   6.888  0.00  0.00    +0.292 HD
ENDBRANCH   6  22
BRANCH   5  24
ATOM     24  O   LIG    1       23.206 -24.877   6.779  0.00  0.00    -0.502 OA
ATOM     25  H   LIG    1       23.874 -25.516   7.095  0.00  0.00    +0.292 HD
ENDBRANCH   5  24
TORSDOF 4
ENDMDL
MODEL 2
REMARK VINA RESULT:      -7.9      2.896      3.907
REMARK  Name = *****
REMARK                            x       y       z     vdW  Elec       q    Type
REMARK                         _______ _______ _______ _____ _____    ______ ____
ROOT
ATOM      1  C   LIG    1       27.393 -20.758   7.409  0.00  0.00    +0.063 C 
ATOM      2  C   LIG    1       26.570 -20.464   6.141  0.00  0.00    -0.030 A 
ATOM      3  C   LIG    1       25.451 -21.283   5.805  0.00  0.00    -0.020 A 
ATOM      4  C   LIG    1       24.691 -20.978   4.653  0.00  0.00    +0.089 A 
ATOM      5  C   LIG    1       25.041 -19.896   3.842  0.00  0.00    +0.177 A 
ATOM      6  C   LIG    1       26.135 -19.112   4.164  0.00  0.00    +0.160 A 
ATOM      7 CL   LIG    1       23.292 -21.894   4.190  0.00  0.00    -0.079 Cl
ATOM      8  C   LIG    1       25.093 -22.457   6.697  0.00  0.00    +0.052 C 
ATOM      9  C   LIG    1       24.605 -22.014   8.079  0.00  0.00    +0.085 C 
ATOM     10  N   LIG    1       25.688 -21.777   9.034  0.00  0.00    -0.315 NA
ATOM     11  H   LIG    1       25.278 -21.620   9.956  0.00  0.00    +0.122 HD
ATOM     12  C   LIG    1       26.893 -19.383   5.294  0.00  0.00    +0.053 A 
ATOM     13  C   LIG    1       26.529 -20.617   8.700  0.00  0.00    +0.093 C 
ENDROOT
BRANCH   1  17
ATOM     14  C   LIG    1       31.083 -18.518   7.828  0.00  0.00    +0.117 A 
ATOM     15  C   LIG    1       30.919 -19.353   6.730  0.00  0.00    +0.045 A 
ATOM     16  C   LIG    1       29.736 -20.079   6.581  0.00  0.00    +0.008 A 
ATOM     17  C   LIG    1       28.703 -19.968   7.530  0.00  0.00    -0.038 A 
ATOM     18  C   LIG    1       28.899 -19.124   8.638  0.00  0.00    +0.008 A 
ATOM     19  C   LIG    1       30.083 -18.398   8.785  0.00  0.00    +0.045 A 
BRANCH  14  20
ATOM     20  O   LIG    1       32.255 -17.828   7.932  0.00  0.00    -0.507 OA
ATOM     21  H   LIG    1       32.085 -17.002   8.413  0.00  0.00    +0.292 HD
ENDBRANCH  14  20
ENDBRANCH   1  17
BRANCH   6  22
ATOM     22  O   LIG    1       26.477 -18.054   3.372  0.00  0.00    -0.503 OA
ATOM     23  H   LIG    1       26.473 -17.280   3.970  0.00  0.00    +0.292 HD
ENDBRANCH   6  22
BRANCH   5  24
ATOM     24  O   LIG    1       24.339 -19.555   2.712  0.00  0.00    -0.502 OA
ATOM     25  H   LIG    1       23.392 -19.639   2.937  0.00  0.00    +0.292 HD
ENDBRANCH   5  24
TORSDOF 4
ENDMDL
MODEL 3
REMARK VINA RESULT:      -7.4      2.588      5.345
REMARK  Name = *****
REMARK                            x       y       z     vdW  Elec       q    Type
REMARK                         _______ _______ _______ _____ _____    ______ ____
ROOT
ATOM      1  C   LIG    1       24.374 -21.736   5.019  0.00  0.00    +0.063 C 
ATOM      2  C   LIG    1       25.481 -20.674   4.889  0.00  0.00    -0.030 A 
ATOM      3  C   LIG    1       25.242 -19.473   4.156  0.00  0.00    -0.020 A 
ATOM      4  C   LIG    1       26.261 -18.497   4.073  0.00  0.00    +0.089 A 
ATOM      5  C   LIG    1       27.497 -18.713   4.689  0.00  0.00    +0.177 A 
ATOM      6  C   LIG    1       27.729 -19.884   5.387  0.00  0.00    +0.160 A 
ATOM      7 CL   LIG    1       26.046 -16.992   3.238  0.00  0.00    -0.079 Cl
ATOM      8  C   LIG    1       23.895 -19.263   3.489  0.00  0.00    +0.052 C 
ATOM      9  C   LIG    1       22.760 -19.104   4.505  0.00  0.00    +0.085 C 
ATOM     10  N   LIG    1       22.198 -20.377   4.959  0.00  0.00    -0.315 NA
ATOM     11  H   LIG    1       21.369 -20.182   5.521  0.00  0.00    +0.122 HD
ATOM     12  C   LIG    1       26.743 -20.855   5.492  0.00  0.00    +0.053 A 
ATOM     13  C   LIG    1       23.128 -21.178   5.772  0.00  0.00    +0.093 C 
ENDROOT
BRANCH   1  17
ATOM     14  C   LIG    1       25.673 -25.548   6.631  0.00  0.00    +0.117 A 
ATOM     15  C   LIG    1       25.658 -24.432   7.460  0.00  0.00    +0.045 A 
ATOM     16  C   LIG    1       25.240 -23.199   6.954  0.00  0.00    +0.008 A 
ATOM     17  C   LIG    1       24.828 -23.076   5.615  0.00  0.00    -0.038 A 
ATOM     18  C   LIG    1       24.863 -24.218   4.795  0.00  0.00    +0.008 A 
ATOM     19  C   LIG    1       25.281 -25.452   5.302  0.00  0.00    +0.045 A 
BRANCH  14  20
ATOM     20  O   LIG    1       26.088 -26.730   7.168  0.00  0.00    -0.507 OA
ATOM     21  H   LIG    1       26.127 -27.394   6.459  0.00  0.00    +0.292 HD
ENDBRANCH  14  20
ENDBRANCH   1  17
BRANCH   6  22
ATOM     22  O   LIG    1       28.936 -20.096   5.989  0.00  0.00    -0.503 OA
ATOM     23  H   LIG    1       29.269 -19.201   6.205  0.00  0.00    +0.292 HD
ENDBRANCH   6  22
BRANCH   5  24
ATOM     24  O   LIG    1       28.522 -17.800   4.640  0.00  0.00    -0.502 OA
ATOM     25  H   LIG    1       29.065 -18.034   3.862  0.00  0.00    +0.292 HD
ENDBRANCH   5  24
TORSDOF 4
ENDMDL
MODEL 4
REMARK VINA RESULT:      -7.3      6.877      9.276
REMARK  Name = *****
REMARK                            x       y       z     vdW  Elec       q    Type
REMARK                         _______ _______ _______ _____ _____    ______ ____
ROOT
ATOM      1  C   LIG    1       24.752 -29.514   6.373  0.00  0.00    +0.063 C 
ATOM      2  C   LIG    1       25.249 -29.814   7.800  0.00  0.00    -0.030 A 
ATOM      3  C   LIG    1       25.021 -31.096   8.385  0.00  0.00    -0.020 A 
ATOM      4  C   LIG    1       25.511 -31.360   9.685  0.00  0.00    +0.089 A 
ATOM      5  C   LIG    1       26.196 -30.373  10.396  0.00  0.00    +0.177 A 
ATOM      6  C   LIG    1       26.403 -29.127   9.830  0.00  0.00    +0.160 A 
ATOM      7 CL   LIG    1       25.315 -32.901  10.459  0.00  0.00    -0.079 Cl
ATOM      8  C   LIG    1       24.268 -32.151   7.597  0.00  0.00    +0.052 C 
ATOM      9  C   LIG    1       25.048 -32.630   6.370  0.00  0.00    +0.085 C 
ATOM     10  N   LIG    1       24.857 -31.789   5.188  0.00  0.00    -0.315 NA
ATOM     11  H   LIG    1       25.295 -32.247   4.389  0.00  0.00    +0.122 HD
ATOM     12  C   LIG    1       25.942 -28.843   8.553  0.00  0.00    +0.053 A 
ATOM     13  C   LIG    1       25.435 -30.441   5.322  0.00  0.00    +0.093 C 
ENDROOT
BRANCH   1  17
ATOM     14  C   LIG    1       25.029 -25.373   5.115  0.00  0.00    +0.117 A 
ATOM     15  C   LIG    1       24.149 -25.713   6.136  0.00  0.00    +0.045 A 
ATOM     16  C   LIG    1       24.051 -27.042   6.552  0.00  0.00    +0.008 A 
ATOM     17  C   LIG    1       24.840 -28.041   5.953  0.00  0.00    -0.038 A 
ATOM     18  C   LIG    1       25.714 -27.671   4.914  0.00  0.00    +0.008 A 
ATOM     19  C   LIG    1       25.811 -26.341   4.499  0.00  0.00    +0.045 A 
BRANCH  14  20
ATOM     20  O   LIG    1       25.091 -24.063   4.741  0.00  0.00    -0.507 OA
ATOM     21  H   LIG    1       25.612 -23.578   5.402  0.00  0.00    +0.292 HD
ENDBRANCH  14  20
ENDBRANCH   1  17
BRANCH   6  22
ATOM     22  O   LIG    1       27.073 -28.161  10.525  0.00  0.00    -0.503 OA
ATOM     23  H   LIG    1       26.836 -27.322  10.081  0.00  0.00    +0.292 HD
ENDBRANCH   6  22
BRANCH   5  24
ATOM     24  O   LIG    1       26.692 -30.575  11.661  0.00  0.00    -0.502 OA
ATOM     25  H   LIG    1       26.309 -31.417  11.978  0.00  0.00    +0.292 HD
ENDBRANCH   5  24
TORSDOF 4
ENDMDL
MODEL 5
REMARK VINA RESULT:      -7.2      3.429      6.340
REMARK  Name = *****
REMARK                            x       y       z     vdW  Elec       q    Type
REMARK                         _______ _______ _______ _____ _____    ______ ____
ROOT
ATOM      1  C   LIG    1       25.022 -21.222   6.258  0.00  0.00    +0.063 C 
ATOM      2  C   LIG    1       26.494 -20.782   6.368  0.00  0.00    -0.030 A 
ATOM      3  C   LIG    1       27.366 -21.414   7.304  0.00  0.00    -0.020 A 
ATOM      4  C   LIG    1       28.720 -21.015   7.368  0.00  0.00    +0.089 A 
ATOM      5  C   LIG    1       29.198 -20.000   6.535  0.00  0.00    +0.177 A 
ATOM      6  C   LIG    1       28.346 -19.381   5.638  0.00  0.00    +0.160 A 
ATOM      7 CL   LIG    1       29.860 -21.755   8.446  0.00  0.00    -0.079 Cl
ATOM      8  C   LIG    1       26.824 -22.509   8.204  0.00  0.00    +0.052 C 
ATOM      9  C   LIG    1       26.429 -23.765   7.422  0.00  0.00    +0.085 C 
ATOM     10  N   LIG    1       25.072 -23.713   6.876  0.00  0.00    -0.315 NA
ATOM     11  H   LIG    1       24.843 -24.630   6.492  0.00  0.00    +0.122 HD
ATOM     12  C   LIG    1       27.014 -19.759   5.547  0.00  0.00    +0.053 A 
ATOM     13  C   LIG    1       24.901 -22.711   5.811  0.00  0.00    +0.093 C 
ENDROOT
BRANCH   1  17
ATOM     14  C   LIG    1       22.474 -18.627   3.896  0.00  0.00    +0.117 A 
ATOM     15  C   LIG    1       23.722 -18.984   3.400  0.00  0.00    +0.045 A 
ATOM     16  C   LIG    1       24.552 -19.821   4.149  0.00  0.00    +0.008 A 
ATOM     17  C   LIG    1       24.135 -20.311   5.399  0.00  0.00    -0.038 A 
ATOM     18  C   LIG    1       22.872 -19.925   5.884  0.00  0.00    +0.008 A 
ATOM     19  C   LIG    1       22.042 -19.088   5.133  0.00  0.00    +0.045 A 
BRANCH  14  20
ATOM     20  O   LIG    1       21.698 -17.808   3.130  0.00  0.00    -0.507 OA
ATOM     21  H   LIG    1       21.131 -18.359   2.567  0.00  0.00    +0.292 HD
ENDBRANCH  14  20
ENDBRANCH   1  17
BRANCH   6  22
ATOM     22  O   LIG    1       28.812 -18.389   4.823  0.00  0.00    -0.503 OA
ATOM     23  H   LIG    1       29.671 -18.128   5.212  0.00  0.00    +0.292 HD
ENDBRANCH   6  22
BRANCH   5  24
ATOM     24  O   LIG    1       30.503 -19.573   6.555  0.00  0.00    -0.502 OA
ATOM     25  H   LIG    1       30.644 -19.152   7.426  0.00  0.00    +0.292 HD
ENDBRANCH   5  24
TORSDOF 4
ENDMDL
MODEL 6
REMARK VINA RESULT:      -6.9      3.903      5.617
REMARK  Name = *****
REMARK                            x       y       z     vdW  Elec       q    Type
REMARK                         _______ _______ _______ _____ _____    ______ ____
ROOT
ATOM      1  C   LIG    1       24.792 -23.355   7.118  0.00  0.00    +0.063 C 
ATOM      2  C   LIG    1       24.272 -22.359   6.064  0.00  0.00    -0.030 A 
ATOM      3  C   LIG    1       23.784 -21.080   6.464  0.00  0.00    -0.020 A 
ATOM      4  C   LIG    1       23.339 -20.170   5.477  0.00  0.00    +0.089 A 
ATOM      5  C   LIG    1       23.362 -20.524   4.127  0.00  0.00    +0.177 A 
ATOM      6  C   LIG    1       23.824 -21.772   3.745  0.00  0.00    +0.160 A 
ATOM      7 CL   LIG    1       22.767 -18.579   5.868  0.00  0.00    -0.079 Cl
ATOM      8  C   LIG    1       23.762 -20.718   7.937  0.00  0.00    +0.052 C 
ATOM      9  C   LIG    1       25.169 -20.585   8.526  0.00  0.00    +0.085 C 
ATOM     10  N   LIG    1       25.739 -21.856   8.974  0.00  0.00    -0.315 NA
ATOM     11  H   LIG    1       26.609 -21.664   9.471  0.00  0.00    +0.122 HD
ATOM     12  C   LIG    1       24.275 -22.681   4.690  0.00  0.00    +0.053 A 
ATOM     13  C   LIG    1       26.032 -22.792   7.876  0.00  0.00    +0.093 C 
ENDROOT
BRANCH   1  17
ATOM     14  C   LIG    1       25.617 -27.360   5.671  0.00  0.00    +0.117 A 
ATOM     15  C   LIG    1       24.297 -26.959   5.839  0.00  0.00    +0.045 A 
ATOM     16  C   LIG    1       24.017 -25.672   6.303  0.00  0.00    +0.008 A 
ATOM     17  C   LIG    1       25.058 -24.773   6.595  0.00  0.00    -0.038 A 
ATOM     18  C   LIG    1       26.386 -25.208   6.427  0.00  0.00    +0.008 A 
ATOM     19  C   LIG    1       26.665 -26.495   5.963  0.00  0.00    +0.045 A 
BRANCH  14  20
ATOM     20  O   LIG    1       25.843 -28.625   5.217  0.00  0.00    -0.507 OA
ATOM     21  H   LIG    1       24.992 -29.091   5.165  0.00  0.00    +0.292 HD
ENDBRANCH  14  20
ENDBRANCH   1  17
BRANCH   6  22
ATOM     22  O   LIG    1       23.846 -22.119   2.424  0.00  0.00    -0.503 OA
ATOM     23  H   LIG    1       23.041 -22.660   2.294  0.00  0.00    +0.292 HD
ENDBRANCH   6  22
BRANCH   5  24
ATOM     24  O   LIG    1       22.941 -19.681   3.128  0.00  0.00    -0.502 OA
ATOM     25  H   LIG    1       23.475 -19.897   2.338  0.00  0.00    +0.292 HD
ENDBRANCH   5  24
TORSDOF 4
ENDMDL
MODEL 7
REMARK VINA RESULT:      -6.4      2.468      5.609
REMARK  Name = *****
REMARK                            x       y       z     vdW  Elec       q    Type
REMARK                         _______ _______ _______ _____ _____    ______ ____
ROOT
ATOM      1  C   LIG    1       24.836 -21.737   4.761  0.00  0.00    +0.063 C 
ATOM      2  C   LIG    1       26.073 -21.077   5.397  0.00  0.00    -0.030 A 
ATOM      3  C   LIG    1       26.584 -19.852   4.873  0.00  0.00    -0.020 A 
ATOM      4  C   LIG    1       27.703 -19.248   5.490  0.00  0.00    +0.089 A 
ATOM      5  C   LIG    1       28.314 -19.852   6.592  0.00  0.00    +0.177 A 
ATOM      6  C   LIG    1       27.823 -21.046   7.089  0.00  0.00    +0.160 A 
ATOM      7 CL   LIG    1       28.367 -17.740   4.946  0.00  0.00    -0.079 Cl
ATOM      8  C   LIG    1       25.909 -19.218   3.671  0.00  0.00    +0.052 C 
ATOM      9  C   LIG    1       24.496 -18.722   3.989  0.00  0.00    +0.085 C 
ATOM     10  N   LIG    1       23.470 -19.758   3.863  0.00  0.00    -0.315 NA
ATOM     11  H   LIG    1       22.553 -19.319   3.958  0.00  0.00    +0.122 HD
ATOM     12  C   LIG    1       26.721 -21.657   6.509  0.00  0.00    +0.053 A 
ATOM     13  C   LIG    1       23.577 -20.823   4.873  0.00  0.00    +0.093 C 
ENDROOT
BRANCH   1  17
ATOM     14  C   LIG    1       24.049 -25.782   6.113  0.00  0.00    +0.117 A 
ATOM     15  C   LIG    1       23.484 -24.716   6.802  0.00  0.00    +0.045 A 
ATOM     16  C   LIG    1       23.727 -23.409   6.377  0.00  0.00    +0.008 A 
ATOM     17  C   LIG    1       24.534 -23.159   5.253  0.00  0.00    -0.038 A 
ATOM     18  C   LIG    1       25.104 -24.256   4.580  0.00  0.00    +0.008 A 
ATOM     19  C   LIG    1       24.859 -25.564   5.006  0.00  0.00    +0.045 A 
BRANCH  14  20
ATOM     20  O   LIG    1       23.785 -27.041   6.565  0.00  0.00    -0.507 OA
ATOM     21  H   LIG    1       24.123 -27.122   7.471  0.00  0.00    +0.292 HD
ENDBRANCH  14  20
ENDBRANCH   1  17
BRANCH   6  22
ATOM     22  O   LIG    1       28.420 -21.637   8.166  0.00  0.00    -0.503 OA
ATOM     23  H   LIG    1       29.067 -20.977   8.488  0.00  0.00    +0.292 HD
ENDBRANCH   6  22
BRANCH   5  24
ATOM     24  O   LIG    1       29.403 -19.310   7.229  0.00  0.00    -0.502 OA
ATOM     25  H   LIG    1       30.140 -19.940   7.105  0.00  0.00    +0.292 HD
ENDBRANCH   5  24
TORSDOF 4
ENDMDL
MODEL 8
REMARK VINA RESULT:      -6.4      8.845     10.450
REMARK  Name = *****
REMARK                            x       y       z     vdW  Elec       q    Type
REMARK                         _______ _______ _______ _____ _____    ______ ____
ROOT
ATOM      1  C   LIG    1       26.197 -30.727  10.092  0.00  0.00    +0.063 C 
ATOM      2  C   LIG    1       25.826 -30.486   8.617  0.00  0.00    -0.030 A 
ATOM      3  C   LIG    1       26.107 -31.481   7.634  0.00  0.00    -0.020 A 
ATOM      4  C   LIG    1       25.732 -31.252   6.290  0.00  0.00    +0.089 A 
ATOM      5  C   LIG    1       25.106 -30.058   5.925  0.00  0.00    +0.177 A 
ATOM      6  C   LIG    1       24.848 -29.090   6.880  0.00  0.00    +0.160 A 
ATOM      7 CL   LIG    1       25.998 -32.421   5.036  0.00  0.00    -0.079 Cl
ATOM      8  C   LIG    1       26.793 -32.768   8.052  0.00  0.00    +0.052 C 
ATOM      9  C   LIG    1       25.912 -33.631   8.959  0.00  0.00    +0.085 C 
ATOM     10  N   LIG    1       25.999 -33.270  10.375  0.00  0.00    -0.315 NA
ATOM     11  H   LIG    1       25.495 -33.971  10.919  0.00  0.00    +0.122 HD
ATOM     12  C   LIG    1       25.197 -29.292   8.207  0.00  0.00    +0.053 A 
ATOM     13  C   LIG    1       25.430 -31.948  10.685  0.00  0.00    +0.093 C 
ENDROOT
BRANCH   1  17
ATOM     14  C   LIG    1       25.783 -27.293  12.709  0.00  0.00    +0.117 A 
ATOM     15  C   LIG    1       26.923 -27.411  11.923  0.00  0.00    +0.045 A 
ATOM     16  C   LIG    1       27.068 -28.511  11.074  0.00  0.00    +0.008 A 
ATOM     17  C   LIG    1       26.069 -29.497  11.002  0.00  0.00    -0.038 A 
ATOM     18  C   LIG    1       24.930 -29.359  11.817  0.00  0.00    +0.008 A 
ATOM     19  C   LIG    1       24.786 -28.258  12.665  0.00  0.00    +0.045 A 
BRANCH  14  20
ATOM     20  O   LIG    1       25.684 -26.203  13.522  0.00  0.00    -0.507 OA
ATOM     21  H   LIG    1       26.289 -25.517  13.195  0.00  0.00    +0.292 HD
ENDBRANCH  14  20
ENDBRANCH   1  17
BRANCH   6  22
ATOM     22  O   LIG    1       24.236 -27.922   6.523  0.00  0.00    -0.503 OA
ATOM     23  H   LIG    1       23.912 -28.076   5.612  0.00  0.00    +0.292 HD
ENDBRANCH   6  22
BRANCH   5  24
ATOM     24  O   LIG    1       24.722 -29.783   4.636  0.00  0.00    -0.502 OA
ATOM     25  H   LIG    1       24.894 -28.832   4.490  0.00  0.00    +0.292 HD
ENDBRANCH   5  24
TORSDOF 4
ENDMDL
MODEL 9
REMARK VINA RESULT:      -6.4      9.472     11.358
REMARK  Name = *****
REMARK                            x       y       z     vdW  Elec       q    Type
REMARK                         _______ _______ _______ _____ _____    ______ ____
ROOT
ATOM      1  C   LIG    1       23.909 -26.544  13.590  0.00  0.00    +0.063 C 
ATOM      2  C   LIG    1       24.460 -27.862  13.014  0.00  0.00    -0.030 A 
ATOM      3  C   LIG    1       25.791 -27.921  12.501  0.00  0.00    -0.020 A 
ATOM      4  C   LIG    1       26.286 -29.148  12.003  0.00  0.00    +0.089 A 
ATOM      5  C   LIG    1       25.478 -30.287  11.997  0.00  0.00    +0.177 A 
ATOM      6  C   LIG    1       24.183 -30.221  12.483  0.00  0.00    +0.160 A 
ATOM      7 CL   LIG    1       27.903 -29.323  11.399  0.00  0.00    -0.079 Cl
ATOM      8  C   LIG    1       26.649 -26.670  12.511  0.00  0.00    +0.052 C 
ATOM      9  C   LIG    1       27.004 -26.217  13.930  0.00  0.00    +0.085 C 
ATOM     10  N   LIG    1       25.982 -25.372  14.548  0.00  0.00    -0.315 NA
ATOM     11  H   LIG    1       26.351 -25.006  15.426  0.00  0.00    +0.122 HD
ATOM     12  C   LIG    1       23.674 -29.033  12.986  0.00  0.00    +0.053 A 
ATOM     13  C   LIG    1       24.723 -26.079  14.836  0.00  0.00    +0.093 C 
ENDROOT
BRANCH   1  17
ATOM     14  C   LIG    1       19.664 -26.501  14.478  0.00  0.00    +0.117 A 
ATOM     15  C   LIG    1       20.079 -26.684  13.165  0.00  0.00    +0.045 A 
ATOM     16  C   LIG    1       21.443 -26.702  12.865  0.00  0.00    +0.008 A 
ATOM     17  C   LIG    1       22.402 -26.543  13.881  0.00  0.00    -0.038 A 
ATOM     18  C   LIG    1       21.955 -26.348  15.200  0.00  0.00    +0.008 A 
ATOM     19  C   LIG    1       20.591 -26.331  15.500  0.00  0.00    +0.045 A 
BRANCH  14  20
ATOM     20  O   LIG    1       18.323 -26.490  14.724  0.00  0.00    -0.507 OA
ATOM     21  H   LIG    1       17.922 -25.765  14.218  0.00  0.00    +0.292 HD
ENDBRANCH  14  20
ENDBRANCH   1  17
BRANCH   6  22
ATOM     22  O   LIG    1       23.392 -31.334  12.477  0.00  0.00    -0.503 OA
ATOM     23  H   LIG    1       22.496 -31.004  12.262  0.00  0.00    +0.292 HD
ENDBRANCH   6  22
BRANCH   5  24
ATOM     24  O   LIG    1       25.907 -31.503  11.525  0.00  0.00    -0.502 OA
ATOM     25  H   LIG    1       26.102 -31.379  10.575  0.00  0.00    +0.292 HD
ENDBRANCH   5  24
TORSDOF 4
ENDMDL
