MODEL 1
REMARK VINA RESULT:      -5.1      0.000      0.000
REMARK  Name = *****
REMARK                            x       y       z     vdW  Elec       q    Type
REMARK                         _______ _______ _______ _____ _____    ______ ____
ROOT
ATOM      1  C   LIG    1       24.013 -20.913   4.372  0.00  0.00    +0.104 C 
ATOM      2  C   LIG    1       24.880 -21.231   5.597  0.00  0.00    +0.046 C 
ATOM      3  C   LIG    1       23.784 -21.537   6.606  0.00  0.00    +0.236 C 
ATOM      4  O   LIG    1       22.740 -20.602   6.324  0.00  0.00    -0.464 OA
ATOM      5  C   LIG    1       22.836 -20.216   5.017  0.00  0.00    +0.311 C 
ATOM      6  O   LIG    1       22.056 -19.452   4.469  0.00  0.00    -0.251 OA
ENDROOT
BRANCH   1   8
ATOM      7  C   LIG    1       25.124 -18.733   3.687  0.00  0.00    +0.004 C 
ATOM      8  C   LIG    1       24.623 -20.096   3.235  0.00  0.00    +0.012 C 
ENDBRANCH   1   8
BRANCH   2   9
ATOM      9  C   LIG    1       25.794 -20.069   6.044  0.00  0.00    +0.062 C 
BRANCH   9  10
ATOM     10  C   LIG    1       27.216 -20.457   6.308  0.00  0.00    +0.038 A 
ATOM     11  N   LIG    1       28.344 -19.766   5.926  0.00  0.00    -0.337 N 
ATOM     12  C   LIG    1       28.438 -18.527   5.195  0.00  0.00    +0.150 C 
ATOM     13  C   LIG    1       29.433 -20.454   6.388  0.00  0.00    +0.199 A 
ATOM     14  N   LIG    1       29.080 -21.522   7.062  0.00  0.00    -0.244 NA
ATOM     15  C   LIG    1       27.712 -21.527   7.032  0.00  0.00    +0.133 A 
ENDBRANCH   9  10
ENDBRANCH   2   9
TORSDOF 3
ENDMDL
MODEL 2
REMARK VINA RESULT:      -4.2      4.917      6.758
REMARK  Name = *****
REMARK                            x       y       z     vdW  Elec       q    Type
REMARK                         _______ _______ _______ _____ _____    ______ ____
ROOT
ATOM      1  C   LIG    1       25.257 -13.443   3.937  0.00  0.00    +0.104 C 
ATOM      2  C   LIG    1       25.543 -14.950   3.993  0.00  0.00    +0.046 C 
ATOM      3  C   LIG    1       26.661 -15.029   2.965  0.00  0.00    +0.236 C 
ATOM      4  O   LIG    1       26.293 -14.109   1.935  0.00  0.00    -0.464 OA
ATOM      5  C   LIG    1       25.473 -13.156   2.469  0.00  0.00    +0.311 C 
ATOM      6  O   LIG    1       25.025 -12.208   1.842  0.00  0.00    -0.251 OA
ENDROOT
BRANCH   1   8
ATOM      7  C   LIG    1       23.990 -11.552   5.065  0.00  0.00    +0.004 C 
ATOM      8  C   LIG    1       23.908 -12.935   4.439  0.00  0.00    +0.012 C 
ENDBRANCH   1   8
BRANCH   2   9
ATOM      9  C   LIG    1       24.333 -15.837   3.626  0.00  0.00    +0.062 C 
BRANCH   9  10
ATOM     10  C   LIG    1       24.598 -17.310   3.677  0.00  0.00    +0.038 A 
ATOM     11  N   LIG    1       23.696 -18.301   3.995  0.00  0.00    -0.337 N 
ATOM     12  C   LIG    1       22.305 -18.173   4.350  0.00  0.00    +0.150 C 
ATOM     13  C   LIG    1       24.342 -19.503   3.898  0.00  0.00    +0.199 A 
ATOM     14  N   LIG    1       25.588 -19.352   3.515  0.00  0.00    -0.244 NA
ATOM     15  C   LIG    1       25.753 -18.003   3.360  0.00  0.00    +0.133 A 
ENDBRANCH   9  10
ENDBRANCH   2   9
TORSDOF 3
ENDMDL
MODEL 3
REMARK VINA RESULT:      -3.9      4.353      5.995
REMARK  Name = *****
REMARK                            x       y       z     vdW  Elec       q    Type
REMARK                         _______ _______ _______ _____ _____    ______ ____
ROOT
ATOM      1  C   LIG    1       25.295 -14.174   3.987  0.00  0.00    +0.104 C 
ATOM      2  C   LIG    1       26.298 -15.332   4.071  0.00  0.00    +0.046 C 
ATOM      3  C   LIG    1       27.592 -14.553   3.889  0.00  0.00    +0.236 C 
ATOM      4  O   LIG    1       27.293 -13.544   2.922  0.00  0.00    -0.464 OA
ATOM      5  C   LIG    1       25.952 -13.288   2.954  0.00  0.00    +0.311 C 
ATOM      6  O   LIG    1       25.400 -12.442   2.268  0.00  0.00    -0.251 OA
ENDROOT
BRANCH   1   8
ATOM      7  C   LIG    1       23.112 -15.216   4.766  0.00  0.00    +0.004 C 
ATOM      8  C   LIG    1       23.841 -14.490   3.646  0.00  0.00    +0.012 C 
ENDBRANCH   1   8
BRANCH   2   9
ATOM      9  C   LIG    1       26.101 -16.419   2.991  0.00  0.00    +0.062 C 
BRANCH   9  10
ATOM     10  C   LIG    1       25.835 -17.792   3.526  0.00  0.00    +0.038 A 
ATOM     11  N   LIG    1       26.704 -18.580   4.248  0.00  0.00    -0.337 N 
ATOM     12  C   LIG    1       28.054 -18.288   4.660  0.00  0.00    +0.150 C 
ATOM     13  C   LIG    1       26.055 -19.744   4.557  0.00  0.00    +0.199 A 
ATOM     14  N   LIG    1       24.823 -19.745   4.107  0.00  0.00    -0.244 NA
ATOM     15  C   LIG    1       24.670 -18.538   3.481  0.00  0.00    +0.133 A 
ENDBRANCH   9  10
ENDBRANCH   2   9
TORSDOF 3
ENDMDL
MODEL 4
REMARK VINA RESULT:      -3.7      3.321      4.912
REMARK  Name = *****
REMARK                            x       y       z     vdW  Elec       q    Type
REMARK                         _______ _______ _______ _____ _____    ______ ____
ROOT
ATOM      1  C   LIG    1       23.772 -20.154   4.253  0.00  0.00    +0.104 C 
ATOM      2  C   LIG    1       24.384 -18.977   3.481  0.00  0.00    +0.046 C 
ATOM      3  C   LIG    1       25.856 -19.339   3.603  0.00  0.00    +0.236 C 
ATOM      4  O   LIG    1       26.007 -19.868   4.921  0.00  0.00    -0.464 OA
ATOM      5  C   LIG    1       24.804 -20.364   5.337  0.00  0.00    +0.311 C 
ATOM      6  O   LIG    1       24.626 -20.919   6.410  0.00  0.00    -0.251 OA
ENDROOT
BRANCH   1   8
ATOM      7  C   LIG    1       21.601 -21.324   4.865  0.00  0.00    +0.004 C 
ATOM      8  C   LIG    1       22.359 -20.007   4.813  0.00  0.00    +0.012 C 
ENDBRANCH   1   8
BRANCH   2   9
ATOM      9  C   LIG    1       24.059 -17.591   4.079  0.00  0.00    +0.062 C 
BRANCH   9  10
ATOM     10  C   LIG    1       25.016 -16.504   3.698  0.00  0.00    +0.038 A 
ATOM     11  N   LIG    1       24.799 -15.147   3.780  0.00  0.00    -0.337 N 
ATOM     12  C   LIG    1       23.626 -14.448   4.241  0.00  0.00    +0.150 C 
ATOM     13  C   LIG    1       25.936 -14.515   3.355  0.00  0.00    +0.199 A 
ATOM     14  N   LIG    1       26.874 -15.373   3.033  0.00  0.00    -0.244 NA
ATOM     15  C   LIG    1       26.323 -16.605   3.255  0.00  0.00    +0.133 A 
ENDBRANCH   9  10
ENDBRANCH   2   9
TORSDOF 3
ENDMDL
MODEL 5
REMARK VINA RESULT:      -3.2      1.252      2.288
REMARK  Name = *****
REMARK                            x       y       z     vdW  Elec       q    Type
REMARK                         _______ _______ _______ _____ _____    ______ ____
ROOT
ATOM      1  C   LIG    1       23.536 -19.743   5.296  0.00  0.00    +0.104 C 
ATOM      2  C   LIG    1       25.001 -19.743   4.837  0.00  0.00    +0.046 C 
ATOM      3  C   LIG    1       24.793 -19.937   3.343  0.00  0.00    +0.236 C 
ATOM      4  O   LIG    1       23.700 -20.850   3.229  0.00  0.00    -0.464 OA
ATOM      5  C   LIG    1       22.932 -20.761   4.355  0.00  0.00    +0.311 C 
ATOM      6  O   LIG    1       21.902 -21.391   4.535  0.00  0.00    -0.251 OA
ENDROOT
BRANCH   1   8
ATOM      7  C   LIG    1       23.188 -21.536   7.062  0.00  0.00    +0.004 C 
ATOM      8  C   LIG    1       23.228 -20.046   6.760  0.00  0.00    +0.012 C 
ENDBRANCH   1   8
BRANCH   2   9
ATOM      9  C   LIG    1       25.861 -20.859   5.469  0.00  0.00    +0.062 C 
BRANCH   9  10
ATOM     10  C   LIG    1       27.218 -20.421   5.926  0.00  0.00    +0.038 A 
ATOM     11  N   LIG    1       27.938 -19.343   5.461  0.00  0.00    -0.337 N 
ATOM     12  C   LIG    1       27.575 -18.389   4.442  0.00  0.00    +0.150 C 
ATOM     13  C   LIG    1       29.111 -19.289   6.162  0.00  0.00    +0.199 A 
ATOM     14  N   LIG    1       29.181 -20.240   7.062  0.00  0.00    -0.244 NA
ATOM     15  C   LIG    1       28.011 -20.937   6.936  0.00  0.00    +0.133 A 
ENDBRANCH   9  10
ENDBRANCH   2   9
TORSDOF 3
ENDMDL
MODEL 6
REMARK VINA RESULT:      -3.2      3.145      4.795
REMARK  Name = *****
REMARK                            x       y       z     vdW  Elec       q    Type
REMARK                         _______ _______ _______ _____ _____    ______ ____
ROOT
ATOM      1  C   LIG    1       24.804 -19.632   4.774  0.00  0.00    +0.104 C 
ATOM      2  C   LIG    1       24.435 -18.193   4.389  0.00  0.00    +0.046 C 
ATOM      3  C   LIG    1       22.977 -18.405   4.007  0.00  0.00    +0.236 C 
ATOM      4  O   LIG    1       22.941 -19.669   3.342  0.00  0.00    -0.464 OA
ATOM      5  C   LIG    1       23.996 -20.423   3.772  0.00  0.00    +0.311 C 
ATOM      6  O   LIG    1       24.210 -21.571   3.412  0.00  0.00    -0.251 OA
ENDROOT
BRANCH   1   8
ATOM      7  C   LIG    1       26.782 -20.414   6.165  0.00  0.00    +0.004 C 
ATOM      8  C   LIG    1       26.278 -20.031   4.782  0.00  0.00    +0.012 C 
ENDBRANCH   1   8
BRANCH   2   9
ATOM      9  C   LIG    1       25.275 -17.613   3.231  0.00  0.00    +0.062 C 
BRANCH   9  10
ATOM     10  C   LIG    1       25.885 -16.273   3.509  0.00  0.00    +0.038 A 
ATOM     11  N   LIG    1       25.216 -15.108   3.810  0.00  0.00    -0.337 N 
ATOM     12  C   LIG    1       23.796 -14.890   3.930  0.00  0.00    +0.150 C 
ATOM     13  C   LIG    1       26.150 -14.130   4.013  0.00  0.00    +0.199 A 
ATOM     14  N   LIG    1       27.371 -14.594   3.891  0.00  0.00    -0.244 NA
ATOM     15  C   LIG    1       27.220 -15.921   3.594  0.00  0.00    +0.133 A 
ENDBRANCH   9  10
ENDBRANCH   2   9
TORSDOF 3
ENDMDL
MODEL 7
REMARK VINA RESULT:      -3.0      5.019      6.983
REMARK  Name = *****
REMARK                            x       y       z     vdW  Elec       q    Type
REMARK                         _______ _______ _______ _____ _____    ______ ____
ROOT
ATOM      1  C   LIG    1       25.507 -13.220   4.216  0.00  0.00    +0.104 C 
ATOM      2  C   LIG    1       24.825 -14.248   3.302  0.00  0.00    +0.046 C 
ATOM      3  C   LIG    1       23.944 -13.311   2.489  0.00  0.00    +0.236 C 
ATOM      4  O   LIG    1       23.486 -12.325   3.416  0.00  0.00    -0.464 OA
ATOM      5  C   LIG    1       24.382 -12.236   4.443  0.00  0.00    +0.311 C 
ATOM      6  O   LIG    1       24.285 -11.449   5.372  0.00  0.00    -0.251 OA
ENDROOT
BRANCH   1   8
ATOM      7  C   LIG    1       27.602 -13.333   5.649  0.00  0.00    +0.004 C 
ATOM      8  C   LIG    1       26.132 -13.704   5.522  0.00  0.00    +0.012 C 
ENDBRANCH   1   8
BRANCH   2   9
ATOM      9  C   LIG    1       24.015 -15.325   4.055  0.00  0.00    +0.062 C 
BRANCH   9  10
ATOM     10  C   LIG    1       24.466 -16.732   3.812  0.00  0.00    +0.038 A 
ATOM     11  N   LIG    1       23.721 -17.878   3.980  0.00  0.00    -0.337 N 
ATOM     12  C   LIG    1       22.355 -18.008   4.421  0.00  0.00    +0.150 C 
ATOM     13  C   LIG    1       24.504 -18.942   3.625  0.00  0.00    +0.199 A 
ATOM     14  N   LIG    1       25.689 -18.555   3.216  0.00  0.00    -0.244 NA
ATOM     15  C   LIG    1       25.672 -17.191   3.312  0.00  0.00    +0.133 A 
ENDBRANCH   9  10
ENDBRANCH   2   9
TORSDOF 3
ENDMDL
MODEL 8
REMARK VINA RESULT:      -3.0      3.982      5.735
REMARK  Name = *****
REMARK                            x       y       z     vdW  Elec       q    Type
REMARK                         _______ _______ _______ _____ _____    ______ ____
ROOT
ATOM      1  C   LIG    1       23.553 -18.759   3.772  0.00  0.00    +0.104 C 
ATOM      2  C   LIG    1       24.397 -17.548   3.352  0.00  0.00    +0.046 C 
ATOM      3  C   LIG    1       25.744 -18.233   3.176  0.00  0.00    +0.236 C 
ATOM      4  O   LIG    1       25.817 -19.198   4.228  0.00  0.00    -0.464 OA
ATOM      5  C   LIG    1       24.548 -19.539   4.602  0.00  0.00    +0.311 C 
ATOM      6  O   LIG    1       24.285 -20.374   5.453  0.00  0.00    -0.251 OA
ENDROOT
BRANCH   1   8
ATOM      7  C   LIG    1       21.025 -18.569   3.600  0.00  0.00    +0.004 C 
ATOM      8  C   LIG    1       22.241 -18.514   4.513  0.00  0.00    +0.012 C 
ENDBRANCH   1   8
BRANCH   2   9
ATOM      9  C   LIG    1       24.438 -16.412   4.397  0.00  0.00    +0.062 C 
BRANCH   9  10
ATOM     10  C   LIG    1       24.670 -15.046   3.829  0.00  0.00    +0.038 A 
ATOM     11  N   LIG    1       25.880 -14.493   3.476  0.00  0.00    -0.337 N 
ATOM     12  C   LIG    1       27.196 -15.075   3.563  0.00  0.00    +0.150 C 
ATOM     13  C   LIG    1       25.640 -13.241   2.979  0.00  0.00    +0.199 A 
ATOM     14  N   LIG    1       24.358 -12.965   2.964  0.00  0.00    -0.244 NA
ATOM     15  C   LIG    1       23.747 -14.079   3.472  0.00  0.00    +0.133 A 
ENDBRANCH   9  10
ENDBRANCH   2   9
TORSDOF 3
ENDMDL
MODEL 9
REMARK VINA RESULT:      -2.9      3.278      5.453
REMARK  Name = *****
REMARK                            x       y       z     vdW  Elec       q    Type
REMARK                         _______ _______ _______ _____ _____    ______ ____
ROOT
ATOM      1  C   LIG    1       26.119 -20.841   5.502  0.00  0.00    +0.104 C 
ATOM      2  C   LIG    1       24.662 -21.283   5.305  0.00  0.00    +0.046 C 
ATOM      3  C   LIG    1       24.557 -21.125   3.796  0.00  0.00    +0.236 C 
ATOM      4  O   LIG    1       25.306 -19.947   3.486  0.00  0.00    -0.464 OA
ATOM      5  C   LIG    1       26.240 -19.750   4.463  0.00  0.00    +0.311 C 
ATOM      6  O   LIG    1       27.059 -18.844   4.455  0.00  0.00    -0.251 OA
ENDROOT
BRANCH   1   8
ATOM      7  C   LIG    1       28.073 -20.389   7.062  0.00  0.00    +0.004 C 
ATOM      8  C   LIG    1       26.562 -20.379   6.888  0.00  0.00    +0.012 C 
ENDBRANCH   1   8
BRANCH   2   9
ATOM      9  C   LIG    1       23.632 -20.422   6.068  0.00  0.00    +0.062 C 
BRANCH   9  10
ATOM     10  C   LIG    1       22.656 -19.694   5.196  0.00  0.00    +0.038 A 
ATOM     11  N   LIG    1       21.538 -20.221   4.590  0.00  0.00    -0.337 N 
ATOM     12  C   LIG    1       21.037 -21.572   4.641  0.00  0.00    +0.150 C 
ATOM     13  C   LIG    1       20.916 -19.211   3.907  0.00  0.00    +0.199 A 
ATOM     14  N   LIG    1       21.544 -18.069   4.056  0.00  0.00    -0.244 NA
ATOM     15  C   LIG    1       22.613 -18.351   4.862  0.00  0.00    +0.133 A 
ENDBRANCH   9  10
ENDBRANCH   2   9
TORSDOF 3
ENDMDL
