MODEL 1
REMARK VINA RESULT:       7.4      0.000      0.000
REMARK  Name = *****
REMARK                            x       y       z     vdW  Elec       q    Type
REMARK                         _______ _______ _______ _____ _____    ______ ____
ROOT
ATOM      1  CA  LIG    1       27.516 -17.740   3.953  0.00  0.00    +0.191 C 
ATOM      2  C   LIG    1       27.251 -16.541   2.977  0.00  0.00    +0.169 C 
ATOM      3  N   LIG    1       27.579 -15.678   4.098  0.00  0.00    -0.249 N 
ATOM      4  CA  LIG    1       27.169 -14.391   4.316  0.00  0.00    +0.127 C 
ATOM      5  C   LIG    1       26.332 -13.757   3.443  0.00  0.00    +0.013 C 
ATOM      6  C   LIG    1       25.954 -14.435   2.131  0.00  0.00    +0.109 C 
ATOM      7  S   LIG    1       25.564 -16.196   2.428  0.00  0.00    -0.131 S 
ATOM      8  C   LIG    1       28.325 -16.621   4.748  0.00  0.00    +0.244 C 
ATOM      9  O   LIG    1       29.159 -16.561   5.602  0.00  0.00    -0.273 OA
ENDROOT
BRANCH   1  11
ATOM     10  C   LIG    1       25.857 -19.579   4.491  0.00  0.00    +0.268 C 
ATOM     11  N   LIG    1       26.354 -18.302   4.716  0.00  0.00    -0.296 N 
ATOM     12  H   LIG    1       25.790 -17.715   5.324  0.00  0.00    +0.150 HD
ATOM     13  O   LIG    1       26.337 -20.336   3.659  0.00  0.00    -0.268 OA
BRANCH  10  15
ATOM     14  N   LIG    1       24.815 -20.549   6.565  0.00  0.00    -0.078 NA
ATOM     15  C   LIG    1       24.671 -20.030   5.375  0.00  0.00    +0.190 C 
BRANCH  15  16
ATOM     16  C   LIG    1       23.269 -19.941   4.923  0.00  0.00    +0.107 A 
ATOM     17  N   LIG    1       22.785 -18.743   4.372  0.00  0.00    -0.223 NA
ATOM     18  C   LIG    1       21.553 -18.872   3.956  0.00  0.00    +0.156 A 
ATOM     19  S   LIG    1       20.845 -20.402   4.254  0.00  0.00    -0.060 S 
ATOM     20  C   LIG    1       22.315 -20.941   4.963  0.00  0.00    +0.078 A 
BRANCH  18  21
ATOM     21  N   LIG    1       20.876 -17.882   3.354  0.00  0.00    -0.338 N 
ATOM     22  H   LIG    1       20.100 -17.480   3.867  0.00  0.00    +0.144 HD
ATOM     23  H   LIG    1       20.772 -17.889   2.348  0.00  0.00    +0.144 HD
ENDBRANCH  18  21
ENDBRANCH  15  16
BRANCH  14  25
ATOM     24  C   LIG    1       26.843 -21.533   6.320  0.00  0.00    +0.313 C 
ATOM     25  O   LIG    1       26.116 -20.559   7.061  0.00  0.00    -0.396 OA
ENDBRANCH  14  25
ENDBRANCH  10  15
ENDBRANCH   1  11
BRANCH   4  26
ATOM     26  C   LIG    1       27.566 -13.754   5.618  0.00  0.00    +0.351 C 
ATOM     27  O   LIG    1       28.497 -12.989   5.783  0.00  0.00    -0.244 OA
BRANCH  26  28
ATOM     28  OXT LIG    1       26.684 -14.007   6.592  0.00  0.00    -0.476 OA
ATOM     29  HXT LIG    1       25.799 -14.149   6.196  0.00  0.00    +0.295 HD
ENDBRANCH  26  28
ENDBRANCH   4  26
BRANCH   5  30
ATOM     30  C   LIG    1       25.768 -12.342   3.593  0.00  0.00    +0.168 C 
BRANCH  30  31
ATOM     31  N   LIG    1       24.214 -12.167   3.641  0.00  0.00    +0.244 N 
ATOM     32  C   LIG    1       23.525 -13.554   3.694  0.00  0.00    +0.133 C 
ATOM     33  C   LIG    1       23.011 -13.729   5.113  0.00  0.00    +0.056 C 
ATOM     34  C   LIG    1       23.490 -12.534   5.909  0.00  0.00    +0.056 C 
ATOM     35  C   LIG    1       23.712 -11.447   4.886  0.00  0.00    +0.133 C 
ATOM     36  C   LIG    1       23.697 -11.448   2.406  0.00  0.00    +0.192 C 
ENDBRANCH  30  31
ENDBRANCH   5  30
TORSDOF 9
ENDMDL
MODEL 2
REMARK VINA RESULT:      10.1      2.985      7.288
REMARK  Name = *****
REMARK                            x       y       z     vdW  Elec       q    Type
REMARK                         _______ _______ _______ _____ _____    ______ ____
ROOT
ATOM      1  CA  LIG    1       22.882 -18.222   2.880  0.00  0.00    +0.191 C 
ATOM      2  C   LIG    1       24.113 -19.194   2.929  0.00  0.00    +0.169 C 
ATOM      3  N   LIG    1       23.585 -19.645   4.204  0.00  0.00    -0.249 N 
ATOM      4  CA  LIG    1       24.272 -20.203   5.249  0.00  0.00    +0.127 C 
ATOM      5  C   LIG    1       25.625 -20.380   5.191  0.00  0.00    +0.013 C 
ATOM      6  C   LIG    1       26.372 -20.085   3.895  0.00  0.00    +0.109 C 
ATOM      7  S   LIG    1       25.771 -18.518   3.171  0.00  0.00    -0.131 S 
ATOM      8  C   LIG    1       22.300 -19.266   3.934  0.00  0.00    +0.244 C 
ATOM      9  O   LIG    1       21.240 -19.574   4.392  0.00  0.00    -0.273 OA
ENDROOT
BRANCH   1  11
ATOM     10  C   LIG    1       22.758 -16.516   4.750  0.00  0.00    +0.268 C 
ATOM     11  N   LIG    1       23.049 -16.837   3.431  0.00  0.00    -0.296 N 
ATOM     12  H   LIG    1       23.240 -16.048   2.820  0.00  0.00    +0.150 HD
ATOM     13  O   LIG    1       22.351 -17.341   5.556  0.00  0.00    -0.268 OA
BRANCH  10  15
ATOM     14  N   LIG    1       22.351 -14.460   6.141  0.00  0.00    -0.078 NA
ATOM     15  C   LIG    1       23.007 -15.050   5.180  0.00  0.00    +0.190 C 
BRANCH  15  16
ATOM     16  C   LIG    1       23.993 -14.185   4.504  0.00  0.00    +0.107 A 
ATOM     17  N   LIG    1       25.179 -14.739   3.993  0.00  0.00    -0.223 NA
ATOM     18  C   LIG    1       25.891 -13.844   3.361  0.00  0.00    +0.156 A 
ATOM     19  S   LIG    1       25.248 -12.258   3.388  0.00  0.00    -0.060 S 
ATOM     20  C   LIG    1       23.896 -12.823   4.285  0.00  0.00    +0.078 A 
BRANCH  18  21
ATOM     21  N   LIG    1       27.049 -14.130   2.748  0.00  0.00    -0.338 N 
ATOM     22  H   LIG    1       26.994 -14.679   1.898  0.00  0.00    +0.144 HD
ATOM     23  H   LIG    1       27.884 -14.271   3.300  0.00  0.00    +0.144 HD
ENDBRANCH  18  21
ENDBRANCH  15  16
BRANCH  14  25
ATOM     24  C   LIG    1       20.279 -14.540   7.060  0.00  0.00    +0.313 C 
ATOM     25  O   LIG    1       21.483 -15.275   6.863  0.00  0.00    -0.396 OA
ENDBRANCH  14  25
ENDBRANCH  10  15
ENDBRANCH   1  11
BRANCH   4  26
ATOM     26  C   LIG    1       23.502 -20.484   6.507  0.00  0.00    +0.351 C 
ATOM     27  O   LIG    1       23.411 -21.563   7.062  0.00  0.00    -0.244 OA
BRANCH  26  28
ATOM     28  OXT LIG    1       23.016 -19.367   7.061  0.00  0.00    -0.476 OA
ATOM     29  HXT LIG    1       22.079 -19.257   6.797  0.00  0.00    +0.295 HD
ENDBRANCH  26  28
ENDBRANCH   4  26
BRANCH   5  30
ATOM     30  C   LIG    1       26.513 -20.948   6.300  0.00  0.00    +0.168 C 
BRANCH  30  31
ATOM     31  N   LIG    1       28.013 -20.504   6.348  0.00  0.00    +0.244 N 
ATOM     32  C   LIG    1       28.540 -20.264   4.910  0.00  0.00    +0.133 C 
ATOM     33  C   LIG    1       28.658 -18.759   4.737  0.00  0.00    +0.056 C 
ATOM     34  C   LIG    1       28.100 -18.123   5.992  0.00  0.00    +0.056 C 
ATOM     35  C   LIG    1       28.242 -19.178   7.062  0.00  0.00    +0.133 C 
ATOM     36  C   LIG    1       28.889 -21.571   6.983  0.00  0.00    +0.192 C 
ENDBRANCH  30  31
ENDBRANCH   5  30
TORSDOF 9
ENDMDL
