MODEL 1
REMARK VINA RESULT:      -4.1      0.000      0.000
REMARK  Name = *****
REMARK                            x       y       z     vdW  Elec       q    Type
REMARK                         _______ _______ _______ _____ _____    ______ ____
ROOT
ATOM      1  C   LIG    1       24.466 -29.897   7.208  0.00  0.00    -0.000 A 
ATOM      2  C   LIG    1       23.958 -29.293   6.060  0.00  0.00    +0.010 A 
ATOM      3  C   LIG    1       24.236 -27.947   5.788  0.00  0.00    +0.009 A 
ATOM      4  C   LIG    1       25.018 -27.162   6.656  0.00  0.00    -0.018 A 
ATOM      5  C   LIG    1       25.523 -27.790   7.802  0.00  0.00    +0.009 A 
ATOM      6  C   LIG    1       25.258 -29.132   8.071  0.00  0.00    +0.010 A 
ENDROOT
BRANCH   1  10
ATOM      7  C   LIG    1       23.458 -33.056   8.629  0.00  0.00    +0.128 A 
ATOM      8  N   LIG    1       23.261 -31.730   8.373  0.00  0.00    -0.340 N 
ATOM      9  H   LIG    1       22.606 -31.147   8.871  0.00  0.00    +0.167 HD
ATOM     10  C   LIG    1       24.228 -31.302   7.497  0.00  0.00    +0.066 A 
ATOM     11  C   LIG    1       24.846 -32.473   7.105  0.00  0.00    +0.139 A 
ATOM     12  N   LIG    1       24.350 -33.554   7.795  0.00  0.00    -0.238 NA
BRANCH   7  15
ATOM     13  C   LIG    1       24.101 -33.220  11.752  0.00  0.00    +0.237 C 
ATOM     14  N   LIG    1       22.908 -33.100  11.047  0.00  0.00    -0.290 N 
ATOM     15  C   LIG    1       22.754 -33.764   9.738  0.00  0.00    +0.142 C 
ATOM     16  C   LIG    1       21.235 -33.825   9.512  0.00  0.00    +0.032 C 
ATOM     17  C   LIG    1       20.663 -32.777  10.452  0.00  0.00    +0.021 C 
ATOM     18  C   LIG    1       21.603 -32.854  11.630  0.00  0.00    +0.108 C 
ATOM     19  O   LIG    1       25.171 -33.430  11.174  0.00  0.00    -0.274 OA
BRANCH  13  20
ATOM     20  C   LIG    1       24.063 -33.120  13.307  0.00  0.00    +0.165 C 
BRANCH  20  22
ATOM     21  C   LIG    1       26.232 -32.371  14.258  0.00  0.00    +0.401 C 
ATOM     22  N   LIG    1       25.048 -32.085  13.635  0.00  0.00    -0.270 N 
ATOM     23  H   LIG    1       24.961 -31.180  13.188  0.00  0.00    +0.153 HD
ATOM     24  O   LIG    1       26.489 -33.393  14.836  0.00  0.00    -0.227 OA
BRANCH  21  26
ATOM     25  C   LIG    1       26.623 -30.431  13.044  0.00  0.00    +0.282 C 
ATOM     26  O   LIG    1       27.099 -31.347  14.031  0.00  0.00    -0.454 OA
ENDBRANCH  21  26
ENDBRANCH  20  22
BRANCH  20  27
ATOM     27  C   LIG    1       22.683 -32.770  13.902  0.00  0.00    +0.012 C 
ATOM     28  C   LIG    1       22.649 -31.325  14.420  0.00  0.00    +0.009 C 
ATOM     29  C   LIG    1       22.280 -33.672  15.063  0.00  0.00    +0.009 C 
ENDBRANCH  20  27
ENDBRANCH  13  20
ENDBRANCH   7  15
ENDBRANCH   1  10
BRANCH   4  30
ATOM     30  C   LIG    1       25.280 -25.730   6.400  0.00  0.00    -0.018 A 
ATOM     31  C   LIG    1       24.838 -25.086   5.229  0.00  0.00    +0.009 A 
ATOM     32  C   LIG    1       25.146 -23.746   4.962  0.00  0.00    +0.010 A 
ATOM     33  C   LIG    1       25.893 -22.996   5.870  0.00  0.00    -0.000 A 
ATOM     34  C   LIG    1       26.310 -23.619   7.053  0.00  0.00    +0.010 A 
ATOM     35  C   LIG    1       26.019 -24.960   7.307  0.00  0.00    +0.009 A 
BRANCH  33  36
ATOM     36  C   LIG    1       26.211 -21.595   5.616  0.00  0.00    +0.066 A 
ATOM     37  N   LIG    1       27.350 -20.981   6.079  0.00  0.00    -0.340 N 
ATOM     38  H   LIG    1       28.096 -21.423   6.595  0.00  0.00    +0.167 HD
ATOM     39  C   LIG    1       27.279 -19.645   5.795  0.00  0.00    +0.128 A 
ATOM     40  N   LIG    1       26.213 -19.386   5.064  0.00  0.00    -0.238 NA
ATOM     41  C   LIG    1       25.565 -20.585   4.927  0.00  0.00    +0.139 A 
BRANCH  39  42
ATOM     42  C   LIG    1       28.305 -18.692   6.320  0.00  0.00    +0.142 C 
ATOM     43  N   LIG    1       29.470 -19.439   6.779  0.00  0.00    -0.290 N 
ATOM     44  C   LIG    1       29.503 -19.921   8.078  0.00  0.00    +0.237 C 
ATOM     45  O   LIG    1       28.478 -19.964   8.761  0.00  0.00    -0.274 OA
ATOM     46  C   LIG    1       30.597 -19.234   5.888  0.00  0.00    +0.108 C 
ATOM     47  C   LIG    1       30.002 -18.618   4.632  0.00  0.00    +0.021 C 
ATOM     48  C   LIG    1       28.866 -17.782   5.213  0.00  0.00    +0.032 C 
BRANCH  44  49
ATOM     49  C   LIG    1       30.915 -20.120   8.710  0.00  0.00    +0.165 C 
BRANCH  49  50
ATOM     50  N   LIG    1       31.087 -19.124   9.789  0.00  0.00    -0.270 N 
ATOM     51  H   LIG    1       30.706 -19.314  10.703  0.00  0.00    +0.153 HD
ATOM     52  C   LIG    1       31.812 -17.969   9.687  0.00  0.00    +0.401 C 
ATOM     53  O   LIG    1       32.089 -17.374   8.662  0.00  0.00    -0.227 OA
BRANCH  52  54
ATOM     54  O   LIG    1       32.203 -17.544  10.916  0.00  0.00    -0.454 OA
ATOM     55  C   LIG    1       31.297 -16.587  11.490  0.00  0.00    +0.282 C 
ENDBRANCH  52  54
ENDBRANCH  49  50
BRANCH  49  56
ATOM     56  C   LIG    1       31.150 -21.569   9.239  0.00  0.00    +0.012 C 
ATOM     57  C   LIG    1       32.027 -22.428   8.323  0.00  0.00    +0.009 C 
ATOM     58  C   LIG    1       29.821 -22.318   9.459  0.00  0.00    +0.009 C 
ENDBRANCH  49  56
ENDBRANCH  44  49
ENDBRANCH  39  42
ENDBRANCH  33  36
ENDBRANCH   4  30
TORSDOF 13
ENDMDL
MODEL 2
REMARK VINA RESULT:      -4.0      1.238     13.248
REMARK  Name = *****
REMARK                            x       y       z     vdW  Elec       q    Type
REMARK                         _______ _______ _______ _____ _____    ______ ____
ROOT
ATOM      1  C   LIG    1       25.811 -23.104   5.813  0.00  0.00    -0.000 A 
ATOM      2  C   LIG    1       24.934 -23.888   5.067  0.00  0.00    +0.010 A 
ATOM      3  C   LIG    1       24.706 -25.225   5.420  0.00  0.00    +0.009 A 
ATOM      4  C   LIG    1       25.352 -25.821   6.518  0.00  0.00    -0.018 A 
ATOM      5  C   LIG    1       26.226 -25.014   7.259  0.00  0.00    +0.009 A 
ATOM      6  C   LIG    1       26.448 -23.681   6.917  0.00  0.00    +0.010 A 
ENDROOT
BRANCH   1  10
ATOM      7  C   LIG    1       27.036 -19.718   5.600  0.00  0.00    +0.128 A 
ATOM      8  N   LIG    1       27.220 -21.060   5.764  0.00  0.00    -0.340 N 
ATOM      9  H   LIG    1       28.049 -21.474   6.163  0.00  0.00    +0.167 HD
ATOM     10  C   LIG    1       26.038 -21.703   5.495  0.00  0.00    +0.066 A 
ATOM     11  C   LIG    1       25.242 -20.704   4.972  0.00  0.00    +0.139 A 
ATOM     12  N   LIG    1       25.874 -19.484   5.022  0.00  0.00    -0.238 NA
BRANCH   7  15
ATOM     13  C   LIG    1       28.806 -19.606   8.253  0.00  0.00    +0.237 C 
ATOM     14  N   LIG    1       29.087 -19.294   6.928  0.00  0.00    -0.290 N 
ATOM     15  C   LIG    1       28.037 -18.715   6.068  0.00  0.00    +0.142 C 
ATOM     16  C   LIG    1       28.803 -18.076   4.899  0.00  0.00    +0.032 C 
ATOM     17  C   LIG    1       30.168 -18.745   4.920  0.00  0.00    +0.021 C 
ATOM     18  C   LIG    1       30.396 -18.965   6.396  0.00  0.00    +0.108 C 
ATOM     19  O   LIG    1       27.659 -19.875   8.622  0.00  0.00    -0.274 OA
BRANCH  13  20
ATOM     20  C   LIG    1       29.970 -19.575   9.291  0.00  0.00    +0.165 C 
BRANCH  20  22
ATOM     21  C   LIG    1       31.304 -21.653   9.022  0.00  0.00    +0.401 C 
ATOM     22  N   LIG    1       31.041 -20.358   8.668  0.00  0.00    -0.270 N 
ATOM     23  H   LIG    1       31.442 -20.019   7.801  0.00  0.00    +0.153 HD
ATOM     24  O   LIG    1       30.909 -22.200  10.017  0.00  0.00    -0.227 OA
BRANCH  21  26
ATOM     25  C   LIG    1       32.309 -23.612   8.287  0.00  0.00    +0.282 C 
ATOM     26  O   LIG    1       32.004 -22.244   8.015  0.00  0.00    -0.454 OA
ENDBRANCH  21  26
ENDBRANCH  20  22
BRANCH  20  27
ATOM     27  C   LIG    1       30.469 -18.164   9.664  0.00  0.00    +0.012 C 
ATOM     28  C   LIG    1       31.856 -17.888   9.067  0.00  0.00    +0.009 C 
ATOM     29  C   LIG    1       30.575 -17.940  11.169  0.00  0.00    +0.009 C 
ENDBRANCH  20  27
ENDBRANCH  13  20
ENDBRANCH   7  15
ENDBRANCH   1  10
BRANCH   4  30
ATOM     30  C   LIG    1       25.152 -27.242   6.873  0.00  0.00    -0.018 A 
ATOM     31  C   LIG    1       24.358 -28.102   6.091  0.00  0.00    +0.009 A 
ATOM     32  C   LIG    1       24.119 -29.430   6.466  0.00  0.00    +0.010 A 
ATOM     33  C   LIG    1       24.683 -29.950   7.631  0.00  0.00    -0.000 A 
ATOM     34  C   LIG    1       25.500 -29.111   8.398  0.00  0.00    +0.010 A 
ATOM     35  C   LIG    1       25.721 -27.782   8.032  0.00  0.00    +0.009 A 
BRANCH  33  36
ATOM     36  C   LIG    1       24.456 -31.335   8.031  0.00  0.00    +0.066 A 
ATOM     37  N   LIG    1       23.702 -31.695   9.122  0.00  0.00    -0.340 N 
ATOM     38  H   LIG    1       23.198 -31.067   9.729  0.00  0.00    +0.167 HD
ATOM     39  C   LIG    1       23.805 -33.046   9.305  0.00  0.00    +0.128 A 
ATOM     40  N   LIG    1       24.485 -33.594   8.318  0.00  0.00    -0.238 NA
ATOM     41  C   LIG    1       24.866 -32.551   7.515  0.00  0.00    +0.139 A 
BRANCH  39  42
ATOM     42  C   LIG    1       23.218 -33.705  10.513  0.00  0.00    +0.142 C 
ATOM     43  N   LIG    1       23.433 -32.857  11.679  0.00  0.00    -0.290 N 
ATOM     44  C   LIG    1       24.610 -32.973  12.401  0.00  0.00    +0.237 C 
ATOM     45  O   LIG    1       25.578 -33.576  11.934  0.00  0.00    -0.274 OA
ATOM     46  C   LIG    1       22.182 -32.269  12.124  0.00  0.00    +0.108 C 
ATOM     47  C   LIG    1       21.213 -32.481  10.972  0.00  0.00    +0.021 C 
ATOM     48  C   LIG    1       21.687 -33.820  10.419  0.00  0.00    +0.032 C 
BRANCH  44  49
ATOM     49  C   LIG    1       24.546 -32.572  13.906  0.00  0.00    +0.165 C 
BRANCH  49  50
ATOM     50  N   LIG    1       25.355 -31.350  14.098  0.00  0.00    -0.270 N 
ATOM     51  H   LIG    1       24.937 -30.448  13.932  0.00  0.00    +0.153 HD
ATOM     52  C   LIG    1       26.635 -31.321  14.579  0.00  0.00    +0.401 C 
ATOM     53  O   LIG    1       27.441 -32.232  14.553  0.00  0.00    -0.227 OA
BRANCH  52  54
ATOM     54  O   LIG    1       26.914 -30.102  15.110  0.00  0.00    -0.454 OA
ATOM     55  C   LIG    1       25.911 -29.119  14.810  0.00  0.00    +0.282 C 
ENDBRANCH  52  54
ENDBRANCH  49  50
BRANCH  49  56
ATOM     56  C   LIG    1       23.088 -32.368  14.424  0.00  0.00    +0.012 C 
ATOM     57  C   LIG    1       22.840 -30.994  15.054  0.00  0.00    +0.009 C 
ATOM     58  C   LIG    1       22.696 -33.440  15.460  0.00  0.00    +0.009 C 
ENDBRANCH  49  56
ENDBRANCH  44  49
ENDBRANCH  39  42
ENDBRANCH  33  36
ENDBRANCH   4  30
TORSDOF 13
ENDMDL
MODEL 3
REMARK VINA RESULT:      -4.0      1.242      1.965
REMARK  Name = *****
REMARK                            x       y       z     vdW  Elec       q    Type
REMARK                         _______ _______ _______ _____ _____    ______ ____
ROOT
ATOM      1  C   LIG    1       24.388 -30.053   7.511  0.00  0.00    -0.000 A 
ATOM      2  C   LIG    1       23.998 -29.562   6.267  0.00  0.00    +0.010 A 
ATOM      3  C   LIG    1       24.253 -28.228   5.922  0.00  0.00    +0.009 A 
ATOM      4  C   LIG    1       24.894 -27.343   6.808  0.00  0.00    -0.018 A 
ATOM      5  C   LIG    1       25.284 -27.858   8.052  0.00  0.00    +0.009 A 
ATOM      6  C   LIG    1       25.041 -29.187   8.396  0.00  0.00    +0.010 A 
ENDROOT
BRANCH   1  10
ATOM      7  C   LIG    1       23.276 -33.146   8.996  0.00  0.00    +0.128 A 
ATOM      8  N   LIG    1       23.065 -31.867   8.572  0.00  0.00    -0.340 N 
ATOM      9  H   LIG    1       22.284 -31.296   8.858  0.00  0.00    +0.167 HD
ATOM     10  C   LIG    1       24.173 -31.442   7.883  0.00  0.00    +0.066 A 
ATOM     11  C   LIG    1       24.928 -32.591   7.751  0.00  0.00    +0.139 A 
ATOM     12  N   LIG    1       24.355 -33.644   8.425  0.00  0.00    -0.238 NA
BRANCH   7  15
ATOM     13  C   LIG    1       23.433 -33.269  12.182  0.00  0.00    +0.237 C 
ATOM     14  N   LIG    1       22.365 -33.125  11.303  0.00  0.00    -0.290 N 
ATOM     15  C   LIG    1       22.388 -33.809   9.996  0.00  0.00    +0.142 C 
ATOM     16  C   LIG    1       20.920 -33.825   9.542  0.00  0.00    +0.032 C 
ATOM     17  C   LIG    1       20.249 -32.741  10.369  0.00  0.00    +0.021 C 
ATOM     18  C   LIG    1       20.996 -32.824  11.677  0.00  0.00    +0.108 C 
ATOM     19  O   LIG    1       24.570 -33.525  11.776  0.00  0.00    -0.274 OA
BRANCH  13  20
ATOM     20  C   LIG    1       23.164 -33.137  13.712  0.00  0.00    +0.165 C 
BRANCH  20  22
ATOM     21  C   LIG    1       25.282 -32.487  14.835  0.00  0.00    +0.401 C 
ATOM     22  N   LIG    1       24.135 -32.141  14.173  0.00  0.00    -0.270 N 
ATOM     23  H   LIG    1       24.078 -31.203  13.795  0.00  0.00    +0.153 HD
ATOM     24  O   LIG    1       25.501 -33.554  15.344  0.00  0.00    -0.227 OA
BRANCH  21  26
ATOM     25  C   LIG    1       26.203 -30.887  13.428  0.00  0.00    +0.282 C 
ATOM     26  O   LIG    1       26.166 -31.457  14.737  0.00  0.00    -0.454 OA
ENDBRANCH  21  26
ENDBRANCH  20  22
BRANCH  20  27
ATOM     27  C   LIG    1       21.727 -32.714  14.084  0.00  0.00    +0.012 C 
ATOM     28  C   LIG    1       21.729 -31.487  15.006  0.00  0.00    +0.009 C 
ATOM     29  C   LIG    1       20.941 -33.809  14.797  0.00  0.00    +0.009 C 
ENDBRANCH  20  27
ENDBRANCH  13  20
ENDBRANCH   7  15
ENDBRANCH   1  10
BRANCH   4  30
ATOM     30  C   LIG    1       25.128 -25.923   6.471  0.00  0.00    -0.018 A 
ATOM     31  C   LIG    1       24.554 -25.321   5.336  0.00  0.00    +0.009 A 
ATOM     32  C   LIG    1       24.831 -23.993   4.985  0.00  0.00    +0.010 A 
ATOM     33  C   LIG    1       25.681 -23.215   5.771  0.00  0.00    -0.000 A 
ATOM     34  C   LIG    1       26.232 -23.797   6.919  0.00  0.00    +0.010 A 
ATOM     35  C   LIG    1       25.970 -25.126   7.256  0.00  0.00    +0.009 A 
BRANCH  33  36
ATOM     36  C   LIG    1       25.971 -21.827   5.429  0.00  0.00    +0.066 A 
ATOM     37  N   LIG    1       27.002 -21.108   5.987  0.00  0.00    -0.340 N 
ATOM     38  H   LIG    1       27.682 -21.458   6.643  0.00  0.00    +0.167 HD
ATOM     39  C   LIG    1       26.914 -19.810   5.566  0.00  0.00    +0.128 A 
ATOM     40  N   LIG    1       25.956 -19.680   4.671  0.00  0.00    -0.238 NA
ATOM     41  C   LIG    1       25.389 -20.922   4.561  0.00  0.00    +0.139 A 
BRANCH  39  42
ATOM     42  C   LIG    1       27.809 -18.756   6.136  0.00  0.00    +0.142 C 
ATOM     43  N   LIG    1       28.878 -19.389   6.900  0.00  0.00    -0.290 N 
ATOM     44  C   LIG    1       28.674 -19.694   8.236  0.00  0.00    +0.237 C 
ATOM     45  O   LIG    1       27.539 -19.687   8.717  0.00  0.00    -0.274 OA
ATOM     46  C   LIG    1       30.149 -19.258   6.211  0.00  0.00    +0.108 C 
ATOM     47  C   LIG    1       29.791 -18.837   4.795  0.00  0.00    +0.021 C 
ATOM     48  C   LIG    1       28.555 -17.978   5.037  0.00  0.00    +0.032 C 
BRANCH  44  49
ATOM     49  C   LIG    1       29.944 -19.751   9.138  0.00  0.00    +0.165 C 
BRANCH  49  50
ATOM     50  N   LIG    1       30.865 -20.765   8.584  0.00  0.00    -0.270 N 
ATOM     51  H   LIG    1       31.252 -20.631   7.663  0.00  0.00    +0.153 HD
ATOM     52  C   LIG    1       31.326 -21.862   9.258  0.00  0.00    +0.401 C 
ATOM     53  O   LIG    1       30.798 -22.404  10.211  0.00  0.00    -0.227 OA
BRANCH  52  54
ATOM     54  O   LIG    1       32.493 -22.297   8.714  0.00  0.00    -0.454 OA
ATOM     55  C   LIG    1       32.373 -23.588   8.096  0.00  0.00    +0.282 C 
ENDBRANCH  52  54
ENDBRANCH  49  50
BRANCH  49  56
ATOM     56  C   LIG    1       30.652 -18.368   9.286  0.00  0.00    +0.012 C 
ATOM     57  C   LIG    1       32.033 -18.306   8.628  0.00  0.00    +0.009 C 
ATOM     58  C   LIG    1       30.816 -17.967  10.765  0.00  0.00    +0.009 C 
ENDBRANCH  49  56
ENDBRANCH  44  49
ENDBRANCH  39  42
ENDBRANCH  33  36
ENDBRANCH   4  30
TORSDOF 13
ENDMDL
MODEL 4
REMARK VINA RESULT:      -3.9      0.709     13.448
REMARK  Name = *****
REMARK                            x       y       z     vdW  Elec       q    Type
REMARK                         _______ _______ _______ _____ _____    ______ ____
ROOT
ATOM      1  C   LIG    1       25.626 -23.222   5.768  0.00  0.00    -0.000 A 
ATOM      2  C   LIG    1       24.812 -23.995   4.943  0.00  0.00    +0.010 A 
ATOM      3  C   LIG    1       24.534 -25.328   5.275  0.00  0.00    +0.009 A 
ATOM      4  C   LIG    1       25.066 -25.931   6.429  0.00  0.00    -0.018 A 
ATOM      5  C   LIG    1       25.878 -25.135   7.248  0.00  0.00    +0.009 A 
ATOM      6  C   LIG    1       26.149 -23.805   6.928  0.00  0.00    +0.010 A 
ENDROOT
BRANCH   1  10
ATOM      7  C   LIG    1       26.960 -19.874   5.616  0.00  0.00    +0.128 A 
ATOM      8  N   LIG    1       27.100 -21.223   5.763  0.00  0.00    -0.340 N 
ATOM      9  H   LIG    1       27.910 -21.669   6.165  0.00  0.00    +0.167 HD
ATOM     10  C   LIG    1       25.901 -21.825   5.473  0.00  0.00    +0.066 A 
ATOM     11  C   LIG    1       25.142 -20.794   4.955  0.00  0.00    +0.139 A 
ATOM     12  N   LIG    1       25.813 -19.596   5.028  0.00  0.00    -0.238 NA
BRANCH   7  15
ATOM     13  C   LIG    1       29.338 -20.236   7.714  0.00  0.00    +0.237 C 
ATOM     14  N   LIG    1       29.253 -19.555   6.505  0.00  0.00    -0.290 N 
ATOM     15  C   LIG    1       27.987 -18.910   6.108  0.00  0.00    +0.142 C 
ATOM     16  C   LIG    1       28.392 -17.896   5.027  0.00  0.00    +0.032 C 
ATOM     17  C   LIG    1       29.754 -18.369   4.545  0.00  0.00    +0.021 C 
ATOM     18  C   LIG    1       30.362 -18.936   5.804  0.00  0.00    +0.108 C 
ATOM     19  O   LIG    1       28.340 -20.735   8.242  0.00  0.00    -0.274 OA
BRANCH  13  20
ATOM     20  C   LIG    1       30.723 -20.331   8.423  0.00  0.00    +0.165 C 
BRANCH  20  22
ATOM     21  C   LIG    1       31.372 -18.034   9.112  0.00  0.00    +0.401 C 
ATOM     22  N   LIG    1       30.729 -19.214   9.372  0.00  0.00    -0.270 N 
ATOM     23  H   LIG    1       30.056 -19.223  10.129  0.00  0.00    +0.153 HD
ATOM     24  O   LIG    1       32.198 -17.862   8.255  0.00  0.00    -0.227 OA
BRANCH  21  26
ATOM     25  C   LIG    1       30.581 -17.543  11.238  0.00  0.00    +0.282 C 
ATOM     26  O   LIG    1       30.851 -17.070   9.918  0.00  0.00    -0.454 OA
ENDBRANCH  21  26
ENDBRANCH  20  22
BRANCH  20  27
ATOM     27  C   LIG    1       30.991 -21.666   9.148  0.00  0.00    +0.012 C 
ATOM     28  C   LIG    1       31.362 -21.436  10.620  0.00  0.00    +0.009 C 
ATOM     29  C   LIG    1       32.121 -22.477   8.522  0.00  0.00    +0.009 C 
ENDBRANCH  20  27
ENDBRANCH  13  20
ENDBRANCH   7  15
ENDBRANCH   1  10
BRANCH   4  30
ATOM     30  C   LIG    1       24.814 -27.349   6.764  0.00  0.00    -0.018 A 
ATOM     31  C   LIG    1       24.049 -28.188   5.932  0.00  0.00    +0.009 A 
ATOM     32  C   LIG    1       23.759 -29.512   6.286  0.00  0.00    +0.010 A 
ATOM     33  C   LIG    1       24.242 -30.049   7.479  0.00  0.00    -0.000 A 
ATOM     34  C   LIG    1       25.031 -29.230   8.297  0.00  0.00    +0.010 A 
ATOM     35  C   LIG    1       25.302 -27.906   7.952  0.00  0.00    +0.009 A 
BRANCH  33  36
ATOM     36  C   LIG    1       23.962 -31.430   7.858  0.00  0.00    +0.066 A 
ATOM     37  N   LIG    1       23.172 -31.777   8.928  0.00  0.00    -0.340 N 
ATOM     38  H   LIG    1       22.674 -31.139   9.530  0.00  0.00    +0.167 HD
ATOM     39  C   LIG    1       23.228 -33.133   9.098  0.00  0.00    +0.128 A 
ATOM     40  N   LIG    1       23.912 -33.691   8.120  0.00  0.00    -0.238 NA
ATOM     41  C   LIG    1       24.345 -32.652   7.338  0.00  0.00    +0.139 A 
BRANCH  39  42
ATOM     42  C   LIG    1       22.592 -33.785  10.285  0.00  0.00    +0.142 C 
ATOM     43  N   LIG    1       22.830 -32.970  11.470  0.00  0.00    -0.290 N 
ATOM     44  C   LIG    1       23.989 -33.156  12.205  0.00  0.00    +0.237 C 
ATOM     45  O   LIG    1       24.935 -33.796  11.740  0.00  0.00    -0.274 OA
ATOM     46  C   LIG    1       21.602 -32.331  11.909  0.00  0.00    +0.108 C 
ATOM     47  C   LIG    1       20.641 -32.474  10.740  0.00  0.00    +0.021 C 
ATOM     48  C   LIG    1       21.059 -33.824  10.167  0.00  0.00    +0.032 C 
BRANCH  44  49
ATOM     49  C   LIG    1       23.922 -32.780  13.717  0.00  0.00    +0.165 C 
BRANCH  49  50
ATOM     50  N   LIG    1       24.530 -31.444  13.893  0.00  0.00    -0.270 N 
ATOM     51  H   LIG    1       23.951 -30.622  13.811  0.00  0.00    +0.153 HD
ATOM     52  C   LIG    1       25.828 -31.210  14.253  0.00  0.00    +0.401 C 
ATOM     53  O   LIG    1       26.770 -31.968  14.108  0.00  0.00    -0.227 OA
BRANCH  52  54
ATOM     54  O   LIG    1       25.950 -29.980  14.816  0.00  0.00    -0.454 OA
ATOM     55  C   LIG    1       26.082 -28.931  13.842  0.00  0.00    +0.282 C 
ENDBRANCH  52  54
ENDBRANCH  49  50
BRANCH  49  56
ATOM     56  C   LIG    1       22.473 -32.820  14.294  0.00  0.00    +0.012 C 
ATOM     57  C   LIG    1       21.963 -31.461  14.783  0.00  0.00    +0.009 C 
ATOM     58  C   LIG    1       22.352 -33.817  15.462  0.00  0.00    +0.009 C 
ENDBRANCH  49  56
ENDBRANCH  44  49
ENDBRANCH  39  42
ENDBRANCH  33  36
ENDBRANCH   4  30
TORSDOF 13
ENDMDL
MODEL 5
REMARK VINA RESULT:      -1.2      1.550     13.260
REMARK  Name = *****
REMARK                            x       y       z     vdW  Elec       q    Type
REMARK                         _______ _______ _______ _____ _____    ______ ____
ROOT
ATOM      1  C   LIG    1       25.263 -22.780   5.326  0.00  0.00    -0.000 A 
ATOM      2  C   LIG    1       24.877 -23.799   4.458  0.00  0.00    +0.010 A 
ATOM      3  C   LIG    1       24.771 -25.118   4.920  0.00  0.00    +0.009 A 
ATOM      4  C   LIG    1       25.055 -25.460   6.255  0.00  0.00    -0.018 A 
ATOM      5  C   LIG    1       25.436 -24.419   7.112  0.00  0.00    +0.009 A 
ATOM      6  C   LIG    1       25.534 -23.105   6.660  0.00  0.00    +0.010 A 
ENDROOT
BRANCH   1  10
ATOM      7  C   LIG    1       26.108 -19.308   4.835  0.00  0.00    +0.128 A 
ATOM      8  N   LIG    1       26.435 -20.599   5.129  0.00  0.00    -0.340 N 
ATOM      9  H   LIG    1       27.288 -20.878   5.590  0.00  0.00    +0.167 HD
ATOM     10  C   LIG    1       25.345 -21.396   4.886  0.00  0.00    +0.066 A 
ATOM     11  C   LIG    1       24.463 -20.546   4.247  0.00  0.00    +0.139 A 
ATOM     12  N   LIG    1       24.952 -19.262   4.202  0.00  0.00    -0.238 NA
BRANCH   7  15
ATOM     13  C   LIG    1       28.633 -19.164   6.783  0.00  0.00    +0.237 C 
ATOM     14  N   LIG    1       28.354 -18.551   5.566  0.00  0.00    -0.290 N 
ATOM     15  C   LIG    1       26.971 -18.158   5.238  0.00  0.00    +0.142 C 
ATOM     16  C   LIG    1       27.120 -17.125   4.109  0.00  0.00    +0.032 C 
ATOM     17  C   LIG    1       28.513 -17.363   3.551  0.00  0.00    +0.021 C 
ATOM     18  C   LIG    1       29.288 -17.767   4.781  0.00  0.00    +0.108 C 
ATOM     19  O   LIG    1       27.775 -19.815   7.386  0.00  0.00    -0.274 OA
BRANCH  13  20
ATOM     20  C   LIG    1       30.052 -18.983   7.403  0.00  0.00    +0.165 C 
BRANCH  20  22
ATOM     21  C   LIG    1       30.666 -17.228   9.050  0.00  0.00    +0.401 C 
ATOM     22  N   LIG    1       29.823 -18.222   8.634  0.00  0.00    -0.270 N 
ATOM     23  H   LIG    1       28.907 -18.269   9.065  0.00  0.00    +0.153 HD
ATOM     24  O   LIG    1       31.782 -17.043   8.643  0.00  0.00    -0.227 OA
BRANCH  21  26
ATOM     25  C   LIG    1       30.663 -16.314  11.184  0.00  0.00    +0.282 C 
ATOM     26  O   LIG    1       29.997 -16.430   9.926  0.00  0.00    -0.454 OA
ENDBRANCH  21  26
ENDBRANCH  20  22
BRANCH  20  27
ATOM     27  C   LIG    1       30.801 -20.299   7.703  0.00  0.00    +0.012 C 
ATOM     28  C   LIG    1       29.861 -21.509   7.611  0.00  0.00    +0.009 C 
ATOM     29  C   LIG    1       31.435 -20.328   9.090  0.00  0.00    +0.009 C 
ENDBRANCH  20  27
ENDBRANCH  13  20
ENDBRANCH   7  15
ENDBRANCH   1  10
BRANCH   4  30
ATOM     30  C   LIG    1       24.988 -26.854   6.742  0.00  0.00    -0.018 A 
ATOM     31  C   LIG    1       24.131 -27.808   6.161  0.00  0.00    +0.009 A 
ATOM     32  C   LIG    1       24.024 -29.109   6.667  0.00  0.00    +0.010 A 
ATOM     33  C   LIG    1       24.787 -29.508   7.764  0.00  0.00    -0.000 A 
ATOM     34  C   LIG    1       25.666 -28.576   8.328  0.00  0.00    +0.010 A 
ATOM     35  C   LIG    1       25.757 -27.273   7.834  0.00  0.00    +0.009 A 
BRANCH  33  36
ATOM     36  C   LIG    1       24.699 -30.863   8.297  0.00  0.00    +0.066 A 
ATOM     37  N   LIG    1       24.273 -31.151   9.572  0.00  0.00    -0.340 N 
ATOM     38  H   LIG    1       23.940 -30.484  10.251  0.00  0.00    +0.167 HD
ATOM     39  C   LIG    1       24.444 -32.487   9.804  0.00  0.00    +0.128 A 
ATOM     40  N   LIG    1       24.841 -33.099   8.707  0.00  0.00    -0.238 NA
ATOM     41  C   LIG    1       24.975 -32.111   7.767  0.00  0.00    +0.139 A 
BRANCH  39  42
ATOM     42  C   LIG    1       24.214 -33.065  11.165  0.00  0.00    +0.142 C 
ATOM     43  N   LIG    1       24.064 -31.984  12.131  0.00  0.00    -0.290 N 
ATOM     44  C   LIG    1       25.189 -31.448  12.737  0.00  0.00    +0.237 C 
ATOM     45  O   LIG    1       26.315 -31.677  12.290  0.00  0.00    -0.274 OA
ATOM     46  C   LIG    1       22.689 -31.892  12.589  0.00  0.00    +0.108 C 
ATOM     47  C   LIG    1       21.886 -32.720  11.600  0.00  0.00    +0.021 C 
ATOM     48  C   LIG    1       22.878 -33.823  11.251  0.00  0.00    +0.032 C 
BRANCH  44  49
ATOM     49  C   LIG    1       24.983 -30.808  14.144  0.00  0.00    +0.165 C 
BRANCH  49  50
ATOM     50  N   LIG    1       26.146 -31.155  14.989  0.00  0.00    -0.270 N 
ATOM     51  H   LIG    1       26.150 -32.029  15.490  0.00  0.00    +0.153 HD
ATOM     52  C   LIG    1       27.293 -30.418  15.090  0.00  0.00    +0.401 C 
ATOM     53  O   LIG    1       27.415 -29.229  14.858  0.00  0.00    -0.227 OA
BRANCH  52  54
ATOM     54  O   LIG    1       28.325 -31.200  15.499  0.00  0.00    -0.454 OA
ATOM     55  C   LIG    1       29.592 -30.522  15.453  0.00  0.00    +0.282 C 
ENDBRANCH  52  54
ENDBRANCH  49  50
BRANCH  49  56
ATOM     56  C   LIG    1       24.768 -29.264  14.089  0.00  0.00    +0.012 C 
ATOM     57  C   LIG    1       23.535 -28.782  14.858  0.00  0.00    +0.009 C 
ATOM     58  C   LIG    1       24.648 -28.757  12.638  0.00  0.00    +0.009 C 
ENDBRANCH  49  56
ENDBRANCH  44  49
ENDBRANCH  39  42
ENDBRANCH  33  36
ENDBRANCH   4  30
TORSDOF 13
ENDMDL
MODEL 6
REMARK VINA RESULT:      -1.2      1.547      2.094
REMARK  Name = *****
REMARK                            x       y       z     vdW  Elec       q    Type
REMARK                         _______ _______ _______ _____ _____    ______ ____
ROOT
ATOM      1  C   LIG    1       24.543 -29.892   7.860  0.00  0.00    -0.000 A 
ATOM      2  C   LIG    1       25.551 -29.131   8.449  0.00  0.00    +0.010 A 
ATOM      3  C   LIG    1       25.775 -27.811   8.032  0.00  0.00    +0.009 A 
ATOM      4  C   LIG    1       25.010 -27.217   7.012  0.00  0.00    -0.018 A 
ATOM      5  C   LIG    1       23.998 -27.997   6.437  0.00  0.00    +0.009 A 
ATOM      6  C   LIG    1       23.765 -29.306   6.855  0.00  0.00    +0.010 A 
ENDROOT
BRANCH   1  10
ATOM      7  C   LIG    1       23.532 -32.850   9.659  0.00  0.00    +0.128 A 
ATOM      8  N   LIG    1       23.383 -31.539   9.311  0.00  0.00    -0.340 N 
ATOM      9  H   LIG    1       22.826 -30.875   9.827  0.00  0.00    +0.167 HD
ATOM     10  C   LIG    1       24.261 -31.249   8.297  0.00  0.00    +0.066 A 
ATOM     11  C   LIG    1       24.759 -32.487   7.941  0.00  0.00    +0.139 A 
ATOM     12  N   LIG    1       24.288 -33.473   8.776  0.00  0.00    -0.238 NA
BRANCH   7  15
ATOM     13  C   LIG    1       24.048 -32.184  12.737  0.00  0.00    +0.237 C 
ATOM     14  N   LIG    1       22.889 -32.462  12.022  0.00  0.00    -0.290 N 
ATOM     15  C   LIG    1       22.926 -33.417  10.899  0.00  0.00    +0.142 C 
ATOM     16  C   LIG    1       21.459 -33.825  10.689  0.00  0.00    +0.032 C 
ATOM     17  C   LIG    1       20.653 -32.728  11.365  0.00  0.00    +0.021 C 
ATOM     18  C   LIG    1       21.535 -32.353  12.531  0.00  0.00    +0.108 C 
ATOM     19  O   LIG    1       25.164 -32.303  12.224  0.00  0.00    -0.274 OA
BRANCH  13  20
ATOM     20  C   LIG    1       23.920 -31.750  14.229  0.00  0.00    +0.165 C 
BRANCH  20  22
ATOM     21  C   LIG    1       22.571 -29.667  14.327  0.00  0.00    +0.401 C 
ATOM     22  N   LIG    1       22.644 -31.032  14.297  0.00  0.00    -0.270 N 
ATOM     23  H   LIG    1       21.794 -31.542  14.082  0.00  0.00    +0.153 HD
ATOM     24  O   LIG    1       23.483 -28.923  14.570  0.00  0.00    -0.227 OA
BRANCH  21  26
ATOM     25  C   LIG    1       21.336 -28.252  12.961  0.00  0.00    +0.282 C 
ATOM     26  O   LIG    1       21.320 -29.291  13.942  0.00  0.00    -0.454 OA
ENDBRANCH  21  26
ENDBRANCH  20  22
BRANCH  20  27
ATOM     27  C   LIG    1       23.951 -32.909  15.248  0.00  0.00    +0.012 C 
ATOM     28  C   LIG    1       25.163 -33.821  15.017  0.00  0.00    +0.009 C 
ATOM     29  C   LIG    1       22.708 -33.792  15.194  0.00  0.00    +0.009 C 
ENDBRANCH  20  27
ENDBRANCH  13  20
ENDBRANCH   7  15
ENDBRANCH   1  10
BRANCH   4  30
ATOM     30  C   LIG    1       25.267 -25.841   6.535  0.00  0.00    -0.018 A 
ATOM     31  C   LIG    1       26.084 -24.944   7.249  0.00  0.00    +0.009 A 
ATOM     32  C   LIG    1       26.271 -23.621   6.827  0.00  0.00    +0.010 A 
ATOM     33  C   LIG    1       25.661 -23.156   5.662  0.00  0.00    -0.000 A 
ATOM     34  C   LIG    1       24.872 -24.051   4.929  0.00  0.00    +0.010 A 
ATOM     35  C   LIG    1       24.671 -25.362   5.363  0.00  0.00    +0.009 A 
BRANCH  33  36
ATOM     36  C   LIG    1       25.856 -21.786   5.200  0.00  0.00    +0.066 A 
ATOM     37  N   LIG    1       26.764 -20.919   5.759  0.00  0.00    -0.340 N 
ATOM     38  H   LIG    1       27.411 -21.134   6.501  0.00  0.00    +0.167 HD
ATOM     39  C   LIG    1       26.598 -19.683   5.198  0.00  0.00    +0.128 A 
ATOM     40  N   LIG    1       25.717 -19.735   4.220  0.00  0.00    -0.238 NA
ATOM     41  C   LIG    1       25.275 -21.032   4.197  0.00  0.00    +0.139 A 
BRANCH  39  42
ATOM     42  C   LIG    1       27.342 -18.495   5.723  0.00  0.00    +0.142 C 
ATOM     43  N   LIG    1       28.659 -18.915   6.188  0.00  0.00    -0.290 N 
ATOM     44  C   LIG    1       28.810 -19.368   7.489  0.00  0.00    +0.237 C 
ATOM     45  O   LIG    1       27.827 -19.673   8.169  0.00  0.00    -0.274 OA
ATOM     46  C   LIG    1       29.697 -18.428   5.299  0.00  0.00    +0.108 C 
ATOM     47  C   LIG    1       28.968 -17.990   4.040  0.00  0.00    +0.021 C 
ATOM     48  C   LIG    1       27.653 -17.475   4.614  0.00  0.00    +0.032 C 
BRANCH  44  49
ATOM     49  C   LIG    1       30.222 -19.194   8.126  0.00  0.00    +0.165 C 
BRANCH  49  50
ATOM     50  N   LIG    1       30.210 -17.972   8.958  0.00  0.00    -0.270 N 
ATOM     51  H   LIG    1       29.337 -17.640   9.338  0.00  0.00    +0.153 HD
ATOM     52  C   LIG    1       31.320 -17.274   9.348  0.00  0.00    +0.401 C 
ATOM     53  O   LIG    1       32.406 -17.270   8.798  0.00  0.00    -0.227 OA
BRANCH  52  54
ATOM     54  O   LIG    1       31.057 -16.553  10.468  0.00  0.00    -0.454 OA
ATOM     55  C   LIG    1       31.405 -17.251  11.676  0.00  0.00    +0.282 C 
ENDBRANCH  52  54
ENDBRANCH  49  50
BRANCH  49  56
ATOM     56  C   LIG    1       30.677 -20.435   8.955  0.00  0.00    +0.012 C 
ATOM     57  C   LIG    1       32.158 -20.786   8.783  0.00  0.00    +0.009 C 
ATOM     58  C   LIG    1       29.852 -21.688   8.604  0.00  0.00    +0.009 C 
ENDBRANCH  49  56
ENDBRANCH  44  49
ENDBRANCH  39  42
ENDBRANCH  33  36
ENDBRANCH   4  30
TORSDOF 13
ENDMDL
