MODEL 1
REMARK VINA RESULT:      -7.2      0.000      0.000
REMARK  Name = *****
REMARK                            x       y       z     vdW  Elec       q    Type
REMARK                         _______ _______ _______ _____ _____    ______ ____
ROOT
ATOM      1  C   LIG    1       27.635 -20.495   6.703  0.00  0.00    -0.042 A 
ATOM      2  C   LIG    1       27.273 -20.810   8.021  0.00  0.00    +0.052 A 
ATOM      3  C   LIG    1       25.933 -20.973   8.345  0.00  0.00    +0.159 A 
ATOM      4  C   LIG    1       24.942 -20.842   7.379  0.00  0.00    +0.158 A 
ATOM      5  C   LIG    1       25.278 -20.530   6.069  0.00  0.00    +0.049 A 
ATOM      6  C   LIG    1       26.625 -20.353   5.734  0.00  0.00    +0.007 A 
ENDROOT
BRANCH   3   7
ATOM      7  O   LIG    1       25.595 -21.269   9.635  0.00  0.00    -0.503 OA
ATOM      8  H   LIG    1       25.745 -22.234   9.709  0.00  0.00    +0.292 HD
ENDBRANCH   3   7
BRANCH   4   9
ATOM      9  O   LIG    1       23.645 -21.034   7.767  0.00  0.00    -0.503 OA
ATOM     10  H   LIG    1       23.301 -21.809   7.290  0.00  0.00    +0.292 HD
ENDBRANCH   4   9
BRANCH   1  11
ATOM     11  C   LIG    1       29.088 -20.312   6.322  0.00  0.00    +0.065 C 
BRANCH  11  12
ATOM     12  CA  LIG    1       29.678 -18.921   6.610  0.00  0.00    +0.165 C 
BRANCH  12  13
ATOM     13  N   LIG    1       29.827 -18.061   5.392  0.00  0.00    -0.318 NA
ATOM     14  H1  LIG    1       29.526 -17.109   5.636  0.00  0.00    +0.119 HD
ATOM     15  H2  LIG    1       30.829 -17.954   5.215  0.00  0.00    +0.119 HD
ENDBRANCH  12  13
BRANCH  12  16
ATOM     16  C   LIG    1       31.033 -19.012   7.326  0.00  0.00    +0.322 C 
ATOM     17  O   LIG    1       31.661 -18.065   7.775  0.00  0.00    -0.249 OA
BRANCH  16  18
ATOM     18  OXT LIG    1       31.475 -20.295   7.389  0.00  0.00    -0.479 OA
ATOM     19  HXT LIG    1       31.596 -20.582   6.450  0.00  0.00    +0.295 HD
ENDBRANCH  16  18
ENDBRANCH  12  16
ENDBRANCH  11  12
ENDBRANCH   1  11
TORSDOF 7
ENDMDL
MODEL 2
REMARK VINA RESULT:      -7.2      2.085      2.430
REMARK  Name = *****
REMARK                            x       y       z     vdW  Elec       q    Type
REMARK                         _______ _______ _______ _____ _____    ______ ____
ROOT
ATOM      1  C   LIG    1       28.779 -20.319   7.242  0.00  0.00    -0.042 A 
ATOM      2  C   LIG    1       27.975 -20.548   8.368  0.00  0.00    +0.052 A 
ATOM      3  C   LIG    1       26.596 -20.623   8.223  0.00  0.00    +0.159 A 
ATOM      4  C   LIG    1       25.999 -20.486   6.974  0.00  0.00    +0.158 A 
ATOM      5  C   LIG    1       26.777 -20.258   5.848  0.00  0.00    +0.049 A 
ATOM      6  C   LIG    1       28.166 -20.171   5.985  0.00  0.00    +0.007 A 
ENDROOT
BRANCH   3   7
ATOM      7  O   LIG    1       25.825 -20.836   9.329  0.00  0.00    -0.503 OA
ATOM      8  H   LIG    1       26.259 -21.584   9.787  0.00  0.00    +0.292 HD
ENDBRANCH   3   7
BRANCH   4   9
ATOM      9  O   LIG    1       24.638 -20.588   6.905  0.00  0.00    -0.503 OA
ATOM     10  H   LIG    1       24.420 -21.216   6.194  0.00  0.00    +0.292 HD
ENDBRANCH   4   9
BRANCH   1  11
ATOM     11  C   LIG    1       30.285 -20.234   7.371  0.00  0.00    +0.065 C 
BRANCH  11  12
ATOM     12  CA  LIG    1       30.831 -20.292   8.808  0.00  0.00    +0.165 C 
BRANCH  12  13
ATOM     13  N   LIG    1       31.985 -19.369   9.056  0.00  0.00    -0.318 NA
ATOM     14  H1  LIG    1       32.031 -19.180  10.065  0.00  0.00    +0.119 HD
ATOM     15  H2  LIG    1       32.842 -19.897   8.875  0.00  0.00    +0.119 HD
ENDBRANCH  12  13
BRANCH  12  16
ATOM     16  C   LIG    1       31.236 -21.718   9.209  0.00  0.00    +0.322 C 
ATOM     17  O   LIG    1       30.767 -22.351  10.143  0.00  0.00    -0.249 OA
BRANCH  16  18
ATOM     18  OXT LIG    1       32.215 -22.201   8.400  0.00  0.00    -0.479 OA
ATOM     19  HXT LIG    1       31.792 -22.919   7.867  0.00  0.00    +0.295 HD
ENDBRANCH  16  18
ENDBRANCH  12  16
ENDBRANCH  11  12
ENDBRANCH   1  11
TORSDOF 7
ENDMDL
MODEL 3
REMARK VINA RESULT:      -7.1      3.179      4.179
REMARK  Name = *****
REMARK                            x       y       z     vdW  Elec       q    Type
REMARK                         _______ _______ _______ _____ _____    ______ ____
ROOT
ATOM      1  C   LIG    1       30.187 -19.232   7.616  0.00  0.00    -0.042 A 
ATOM      2  C   LIG    1       29.900 -18.402   6.523  0.00  0.00    +0.052 A 
ATOM      3  C   LIG    1       28.931 -18.784   5.605  0.00  0.00    +0.159 A 
ATOM      4  C   LIG    1       28.230 -19.975   5.760  0.00  0.00    +0.158 A 
ATOM      5  C   LIG    1       28.499 -20.812   6.834  0.00  0.00    +0.049 A 
ATOM      6  C   LIG    1       29.481 -20.440   7.758  0.00  0.00    +0.007 A 
ENDROOT
BRANCH   3   7
ATOM      7  O   LIG    1       28.670 -17.971   4.540  0.00  0.00    -0.503 OA
ATOM      8  H   LIG    1       27.867 -18.356   4.133  0.00  0.00    +0.292 HD
ENDBRANCH   3   7
BRANCH   4   9
ATOM      9  O   LIG    1       27.278 -20.280   4.827  0.00  0.00    -0.503 OA
ATOM     10  H   LIG    1       27.508 -21.139   4.433  0.00  0.00    +0.292 HD
ENDBRANCH   4   9
BRANCH   1  11
ATOM     11  C   LIG    1       31.238 -18.839   8.632  0.00  0.00    +0.065 C 
BRANCH  11  12
ATOM     12  CA  LIG    1       31.157 -17.389   9.141  0.00  0.00    +0.165 C 
BRANCH  12  13
ATOM     13  N   LIG    1       32.435 -16.622   8.989  0.00  0.00    -0.318 NA
ATOM     14  H1  LIG    1       32.251 -15.814   8.380  0.00  0.00    +0.119 HD
ATOM     15  H2  LIG    1       32.642 -16.192   9.895  0.00  0.00    +0.119 HD
ENDBRANCH  12  13
BRANCH  12  16
ATOM     16  C   LIG    1       30.704 -17.321  10.606  0.00  0.00    +0.322 C 
ATOM     17  O   LIG    1       30.377 -16.305  11.199  0.00  0.00    -0.249 OA
BRANCH  16  18
ATOM     18  OXT LIG    1       30.727 -18.548  11.189  0.00  0.00    -0.479 OA
ATOM     19  HXT LIG    1       30.772 -18.381  12.162  0.00  0.00    +0.295 HD
ENDBRANCH  16  18
ENDBRANCH  12  16
ENDBRANCH  11  12
ENDBRANCH   1  11
TORSDOF 7
ENDMDL
MODEL 4
REMARK VINA RESULT:      -7.0      0.769      1.801
REMARK  Name = *****
REMARK                            x       y       z     vdW  Elec       q    Type
REMARK                         _______ _______ _______ _____ _____    ______ ____
ROOT
ATOM      1  C   LIG    1       27.575 -20.469   6.834  0.00  0.00    -0.042 A 
ATOM      2  C   LIG    1       26.592 -20.442   5.835  0.00  0.00    +0.052 A 
ATOM      3  C   LIG    1       25.254 -20.565   6.183  0.00  0.00    +0.159 A 
ATOM      4  C   LIG    1       24.871 -20.700   7.514  0.00  0.00    +0.158 A 
ATOM      5  C   LIG    1       25.828 -20.730   8.518  0.00  0.00    +0.049 A 
ATOM      6  C   LIG    1       27.179 -20.618   8.176  0.00  0.00    +0.007 A 
ENDROOT
BRANCH   3   7
ATOM      7  O   LIG    1       24.308 -20.548   5.199  0.00  0.00    -0.503 OA
ATOM      8  H   LIG    1       24.160 -19.597   5.022  0.00  0.00    +0.292 HD
ENDBRANCH   3   7
BRANCH   4   9
ATOM      9  O   LIG    1       23.534 -20.798   7.785  0.00  0.00    -0.503 OA
ATOM     10  H   LIG    1       23.204 -21.615   7.373  0.00  0.00    +0.292 HD
ENDBRANCH   4   9
BRANCH   1  11
ATOM     11  C   LIG    1       29.041 -20.337   6.482  0.00  0.00    +0.065 C 
BRANCH  11  12
ATOM     12  CA  LIG    1       29.652 -18.942   6.703  0.00  0.00    +0.165 C 
BRANCH  12  13
ATOM     13  N   LIG    1       29.766 -18.125   5.452  0.00  0.00    -0.318 NA
ATOM     14  H1  LIG    1       28.837 -17.743   5.236  0.00  0.00    +0.119 HD
ATOM     15  H2  LIG    1       30.317 -17.294   5.680  0.00  0.00    +0.119 HD
ENDBRANCH  12  13
BRANCH  12  16
ATOM     16  C   LIG    1       31.030 -19.021   7.376  0.00  0.00    +0.322 C 
ATOM     17  O   LIG    1       31.675 -18.067   7.782  0.00  0.00    -0.249 OA
BRANCH  16  18
ATOM     18  OXT LIG    1       31.471 -20.304   7.452  0.00  0.00    -0.479 OA
ATOM     19  HXT LIG    1       32.017 -20.448   6.640  0.00  0.00    +0.295 HD
ENDBRANCH  16  18
ENDBRANCH  12  16
ENDBRANCH  11  12
ENDBRANCH   1  11
TORSDOF 7
ENDMDL
MODEL 5
REMARK VINA RESULT:      -6.8      3.053      3.909
REMARK  Name = *****
REMARK                            x       y       z     vdW  Elec       q    Type
REMARK                         _______ _______ _______ _____ _____    ______ ____
ROOT
ATOM      1  C   LIG    1       25.298 -22.420   7.497  0.00  0.00    -0.042 A 
ATOM      2  C   LIG    1       23.912 -22.480   7.290  0.00  0.00    +0.052 A 
ATOM      3  C   LIG    1       23.350 -23.618   6.727  0.00  0.00    +0.159 A 
ATOM      4  C   LIG    1       24.140 -24.707   6.375  0.00  0.00    +0.158 A 
ATOM      5  C   LIG    1       25.513 -24.668   6.570  0.00  0.00    +0.049 A 
ATOM      6  C   LIG    1       26.090 -23.522   7.127  0.00  0.00    +0.007 A 
ENDROOT
BRANCH   3   7
ATOM      7  O   LIG    1       22.001 -23.658   6.522  0.00  0.00    -0.503 OA
ATOM      8  H   LIG    1       21.894 -23.456   5.570  0.00  0.00    +0.292 HD
ENDBRANCH   3   7
BRANCH   4   9
ATOM      9  O   LIG    1       23.516 -25.800   5.841  0.00  0.00    -0.503 OA
ATOM     10  H   LIG    1       22.570 -25.592   5.753  0.00  0.00    +0.292 HD
ENDBRANCH   4   9
BRANCH   1  11
ATOM     11  C   LIG    1       25.936 -21.193   8.110  0.00  0.00    +0.065 C 
BRANCH  11  12
ATOM     12  CA  LIG    1       26.788 -20.341   7.153  0.00  0.00    +0.165 C 
BRANCH  12  13
ATOM     13  N   LIG    1       26.515 -20.601   5.703  0.00  0.00    -0.318 NA
ATOM     14  H1  LIG    1       26.051 -19.771   5.312  0.00  0.00    +0.119 HD
ATOM     15  H2  LIG    1       27.417 -20.618   5.220  0.00  0.00    +0.119 HD
ENDBRANCH  12  13
BRANCH  12  16
ATOM     16  C   LIG    1       28.291 -20.512   7.417  0.00  0.00    +0.322 C 
ATOM     17  O   LIG    1       28.910 -20.003   8.339  0.00  0.00    -0.249 OA
BRANCH  16  18
ATOM     18  OXT LIG    1       28.873 -21.298   6.474  0.00  0.00    -0.479 OA
ATOM     19  HXT LIG    1       29.706 -20.832   6.214  0.00  0.00    +0.295 HD
ENDBRANCH  16  18
ENDBRANCH  12  16
ENDBRANCH  11  12
ENDBRANCH   1  11
TORSDOF 7
ENDMDL
MODEL 6
REMARK VINA RESULT:      -6.8      2.032      5.681
REMARK  Name = *****
REMARK                            x       y       z     vdW  Elec       q    Type
REMARK                         _______ _______ _______ _____ _____    ______ ____
ROOT
ATOM      1  C   LIG    1       28.672 -20.647   7.394  0.00  0.00    -0.042 A 
ATOM      2  C   LIG    1       29.705 -21.044   8.254  0.00  0.00    +0.052 A 
ATOM      3  C   LIG    1       30.887 -20.316   8.291  0.00  0.00    +0.159 A 
ATOM      4  C   LIG    1       31.057 -19.188   7.495  0.00  0.00    +0.158 A 
ATOM      5  C   LIG    1       30.047 -18.779   6.635  0.00  0.00    +0.049 A 
ATOM      6  C   LIG    1       28.857 -19.512   6.584  0.00  0.00    +0.007 A 
ENDROOT
BRANCH   3   7
ATOM      7  O   LIG    1       31.889 -20.720   9.126  0.00  0.00    -0.503 OA
ATOM      8  H   LIG    1       32.160 -21.592   8.773  0.00  0.00    +0.292 HD
ENDBRANCH   3   7
BRANCH   4   9
ATOM      9  O   LIG    1       32.240 -18.510   7.596  0.00  0.00    -0.503 OA
ATOM     10  H   LIG    1       32.083 -17.710   8.126  0.00  0.00    +0.292 HD
ENDBRANCH   4   9
BRANCH   1  11
ATOM     11  C   LIG    1       27.374 -21.423   7.334  0.00  0.00    +0.065 C 
BRANCH  11  12
ATOM     12  CA  LIG    1       26.120 -20.650   7.778  0.00  0.00    +0.165 C 
BRANCH  12  13
ATOM     13  N   LIG    1       25.897 -20.654   9.260  0.00  0.00    -0.318 NA
ATOM     14  H1  LIG    1       26.581 -20.016   9.687  0.00  0.00    +0.119 HD
ATOM     15  H2  LIG    1       25.001 -20.193   9.435  0.00  0.00    +0.119 HD
ENDBRANCH  12  13
BRANCH  12  16
ATOM     16  C   LIG    1       24.853 -21.165   7.081  0.00  0.00    +0.322 C 
ATOM     17  O   LIG    1       24.825 -21.763   6.016  0.00  0.00    -0.249 OA
BRANCH  16  18
ATOM     18  OXT LIG    1       23.736 -20.855   7.791  0.00  0.00    -0.479 OA
ATOM     19  HXT LIG    1       23.456 -19.962   7.472  0.00  0.00    +0.295 HD
ENDBRANCH  16  18
ENDBRANCH  12  16
ENDBRANCH  11  12
ENDBRANCH   1  11
TORSDOF 7
ENDMDL
MODEL 7
REMARK VINA RESULT:      -6.8      6.348      8.182
REMARK  Name = *****
REMARK                            x       y       z     vdW  Elec       q    Type
REMARK                         _______ _______ _______ _____ _____    ______ ____
ROOT
ATOM      1  C   LIG    1       25.091 -25.565   6.353  0.00  0.00    -0.042 A 
ATOM      2  C   LIG    1       23.736 -25.211   6.280  0.00  0.00    +0.052 A 
ATOM      3  C   LIG    1       23.331 -23.953   6.708  0.00  0.00    +0.159 A 
ATOM      4  C   LIG    1       24.252 -23.033   7.197  0.00  0.00    +0.158 A 
ATOM      5  C   LIG    1       25.597 -23.364   7.279  0.00  0.00    +0.049 A 
ATOM      6  C   LIG    1       26.014 -24.632   6.860  0.00  0.00    +0.007 A 
ENDROOT
BRANCH   3   7
ATOM      7  O   LIG    1       22.007 -23.625   6.641  0.00  0.00    -0.503 OA
ATOM      8  H   LIG    1       21.983 -22.671   6.860  0.00  0.00    +0.292 HD
ENDBRANCH   3   7
BRANCH   4   9
ATOM      9  O   LIG    1       23.784 -21.808   7.584  0.00  0.00    -0.503 OA
ATOM     10  H   LIG    1       23.026 -21.950   8.176  0.00  0.00    +0.292 HD
ENDBRANCH   4   9
BRANCH   1  11
ATOM     11  C   LIG    1       25.560 -26.928   5.893  0.00  0.00    +0.065 C 
BRANCH  11  12
ATOM     12  CA  LIG    1       24.944 -28.127   6.636  0.00  0.00    +0.165 C 
BRANCH  12  13
ATOM     13  N   LIG    1       25.790 -28.643   7.760  0.00  0.00    -0.318 NA
ATOM     14  H1  LIG    1       26.535 -29.225   7.357  0.00  0.00    +0.119 HD
ATOM     15  H2  LIG    1       26.298 -27.845   8.151  0.00  0.00    +0.119 HD
ENDBRANCH  12  13
BRANCH  12  16
ATOM     16  C   LIG    1       24.618 -29.285   5.683  0.00  0.00    +0.322 C 
ATOM     17  O   LIG    1       25.432 -30.067   5.214  0.00  0.00    -0.249 OA
BRANCH  16  18
ATOM     18  OXT LIG    1       23.291 -29.331   5.396  0.00  0.00    -0.479 OA
ATOM     19  HXT LIG    1       23.083 -30.286   5.246  0.00  0.00    +0.295 HD
ENDBRANCH  16  18
ENDBRANCH  12  16
ENDBRANCH  11  12
ENDBRANCH   1  11
TORSDOF 7
ENDMDL
MODEL 8
REMARK VINA RESULT:      -6.7      2.196      2.716
REMARK  Name = *****
REMARK                            x       y       z     vdW  Elec       q    Type
REMARK                         _______ _______ _______ _____ _____    ______ ____
ROOT
ATOM      1  C   LIG    1       27.557 -20.111   7.594  0.00  0.00    -0.042 A 
ATOM      2  C   LIG    1       27.459 -20.069   6.196  0.00  0.00    +0.052 A 
ATOM      3  C   LIG    1       26.267 -20.427   5.580  0.00  0.00    +0.159 A 
ATOM      4  C   LIG    1       25.162 -20.816   6.331  0.00  0.00    +0.158 A 
ATOM      5  C   LIG    1       25.239 -20.865   7.716  0.00  0.00    +0.049 A 
ATOM      6  C   LIG    1       26.439 -20.516   8.345  0.00  0.00    +0.007 A 
ENDROOT
BRANCH   3   7
ATOM      7  O   LIG    1       26.189 -20.392   4.218  0.00  0.00    -0.503 OA
ATOM      8  H   LIG    1       26.647 -19.563   3.970  0.00  0.00    +0.292 HD
ENDBRANCH   3   7
BRANCH   4   9
ATOM      9  O   LIG    1       24.016 -21.138   5.658  0.00  0.00    -0.503 OA
ATOM     10  H   LIG    1       24.150 -22.004   5.236  0.00  0.00    +0.292 HD
ENDBRANCH   4   9
BRANCH   1  11
ATOM     11  C   LIG    1       28.844 -19.725   8.291  0.00  0.00    +0.065 C 
BRANCH  11  12
ATOM     12  CA  LIG    1       30.034 -20.672   8.058  0.00  0.00    +0.165 C 
BRANCH  12  13
ATOM     13  N   LIG    1       30.159 -21.754   9.086  0.00  0.00    -0.318 NA
ATOM     14  H1  LIG    1       29.219 -21.959   9.448  0.00  0.00    +0.119 HD
ATOM     15  H2  LIG    1       30.417 -22.613   8.595  0.00  0.00    +0.119 HD
ENDBRANCH  12  13
BRANCH  12  16
ATOM     16  C   LIG    1       31.363 -19.909   7.970  0.00  0.00    +0.322 C 
ATOM     17  O   LIG    1       31.830 -19.414   6.955  0.00  0.00    -0.249 OA
BRANCH  16  18
ATOM     18  OXT LIG    1       31.987 -19.862   9.176  0.00  0.00    -0.479 OA
ATOM     19  HXT LIG    1       31.644 -20.637   9.686  0.00  0.00    +0.295 HD
ENDBRANCH  16  18
ENDBRANCH  12  16
ENDBRANCH  11  12
ENDBRANCH   1  11
TORSDOF 7
ENDMDL
MODEL 9
REMARK VINA RESULT:      -6.7      2.066      5.567
REMARK  Name = *****
REMARK                            x       y       z     vdW  Elec       q    Type
REMARK                         _______ _______ _______ _____ _____    ______ ____
ROOT
ATOM      1  C   LIG    1       28.663 -20.306   7.277  0.00  0.00    -0.042 A 
ATOM      2  C   LIG    1       29.475 -19.163   7.273  0.00  0.00    +0.052 A 
ATOM      3  C   LIG    1       30.677 -19.172   7.968  0.00  0.00    +0.159 A 
ATOM      4  C   LIG    1       31.096 -20.304   8.658  0.00  0.00    +0.158 A 
ATOM      5  C   LIG    1       30.307 -21.446   8.675  0.00  0.00    +0.049 A 
ATOM      6  C   LIG    1       29.089 -21.443   7.987  0.00  0.00    +0.007 A 
ENDROOT
BRANCH   3   7
ATOM      7  O   LIG    1       31.453 -18.048   7.964  0.00  0.00    -0.503 OA
ATOM      8  H   LIG    1       32.328 -18.357   8.276  0.00  0.00    +0.292 HD
ENDBRANCH   3   7
BRANCH   4   9
ATOM      9  O   LIG    1       32.300 -20.247   9.305  0.00  0.00    -0.503 OA
ATOM     10  H   LIG    1       32.157 -19.820  10.167  0.00  0.00    +0.292 HD
ENDBRANCH   4   9
BRANCH   1  11
ATOM     11  C   LIG    1       27.348 -20.323   6.528  0.00  0.00    +0.065 C 
BRANCH  11  12
ATOM     12  CA  LIG    1       26.357 -21.420   6.955  0.00  0.00    +0.165 C 
BRANCH  12  13
ATOM     13  N   LIG    1       25.619 -22.048   5.812  0.00  0.00    -0.318 NA
ATOM     14  H1  LIG    1       24.615 -22.036   6.036  0.00  0.00    +0.119 HD
ATOM     15  H2  LIG    1       25.691 -21.411   5.015  0.00  0.00    +0.119 HD
ENDBRANCH  12  13
BRANCH  12  16
ATOM     16  C   LIG    1       25.341 -20.905   7.984  0.00  0.00    +0.322 C 
ATOM     17  O   LIG    1       24.166 -20.659   7.757  0.00  0.00    -0.249 OA
BRANCH  16  18
ATOM     18  OXT LIG    1       25.916 -20.731   9.203  0.00  0.00    -0.479 OA
ATOM     19  HXT LIG    1       26.886 -20.644   9.031  0.00  0.00    +0.295 HD
ENDBRANCH  16  18
ENDBRANCH  12  16
ENDBRANCH  11  12
ENDBRANCH   1  11
TORSDOF 7
ENDMDL
