MODEL 1
REMARK VINA RESULT:      -5.3      0.000      0.000
REMARK  Name = *****
REMARK                            x       y       z     vdW  Elec       q    Type
REMARK                         _______ _______ _______ _____ _____    ______ ____
ROOT
ATOM      1  CA  CYS A  1       31.043 -20.382   8.346  0.00  0.00    +0.191 C 
ENDROOT
BRANCH   1   4
ATOM      2  C   UNK A  0       28.259 -19.877   5.773  0.00  0.00    +0.109 C 
ATOM      3  C   UNK A  0       29.567 -19.617   6.471  0.00  0.00    +0.211 C 
ATOM      4  N   CYS A  1       29.840 -20.492   7.492  0.00  0.00    -0.302 N 
ATOM      5  H   CYS A  1       29.228 -21.276   7.648  0.00  0.00    +0.149 HD
ATOM      6  O   UNK A  0       30.382 -18.790   6.096  0.00  0.00    -0.276 OA
ENDBRANCH   1   4
BRANCH   1   7
ATOM      7  C   CYS A  1       31.313 -21.696   9.091  0.00  0.00    +0.326 C 
ATOM      8  O   CYS A  1       30.807 -21.985  10.171  0.00  0.00    -0.249 OA
BRANCH   7   9
ATOM      9  OXT CYS A  1       32.245 -22.492   8.503  0.00  0.00    -0.479 OA
ATOM     10  HXT CYS A  1       32.757 -22.988   9.167  0.00  0.00    +0.295 HD
ENDBRANCH   7   9
ENDBRANCH   1   7
BRANCH   1  11
ATOM     11  CB  CYS A  1       30.894 -19.251   9.375  0.00  0.00    +0.099 C 
BRANCH  11  12
ATOM     12  SG  CYS A  1       31.929 -17.790   8.993  0.00  0.00    -0.176 S 
ATOM     13  HG  CYS A  1       32.947 -18.440   8.405  0.00  0.00    +0.102 HD
ENDBRANCH  11  12
ENDBRANCH   1  11
TORSDOF 5
ENDMDL
MODEL 2
REMARK VINA RESULT:      -5.2      2.563      3.766
REMARK  Name = *****
REMARK                            x       y       z     vdW  Elec       q    Type
REMARK                         _______ _______ _______ _____ _____    ______ ____
ROOT
ATOM      1  CA  CYS A  1       30.872 -19.422   8.715  0.00  0.00    +0.191 C 
ENDROOT
BRANCH   1   4
ATOM      2  C   UNK A  0       32.116 -16.874  11.282  0.00  0.00    +0.109 C 
ATOM      3  C   UNK A  0       31.128 -17.766  10.578  0.00  0.00    +0.211 C 
ATOM      4  N   CYS A  1       31.675 -18.522   9.572  0.00  0.00    -0.302 N 
ATOM      5  H   CYS A  1       32.672 -18.509   9.430  0.00  0.00    +0.149 HD
ATOM      6  O   UNK A  0       29.972 -17.912  10.939  0.00  0.00    -0.276 OA
ENDBRANCH   1   4
BRANCH   1   7
ATOM      7  C   CYS A  1       31.156 -20.894   9.044  0.00  0.00    +0.326 C 
ATOM      8  O   CYS A  1       32.268 -21.331   9.321  0.00  0.00    -0.249 OA
BRANCH   7   9
ATOM      9  OXT CYS A  1       30.080 -21.715   8.910  0.00  0.00    -0.479 OA
ATOM     10  HXT CYS A  1       29.247 -21.236   9.075  0.00  0.00    +0.295 HD
ENDBRANCH   7   9
ENDBRANCH   1   7
BRANCH   1  11
ATOM     11  CB  CYS A  1       31.165 -19.182   7.227  0.00  0.00    +0.099 C 
BRANCH  11  12
ATOM     12  SG  CYS A  1       29.664 -18.807   6.249  0.00  0.00    -0.176 S 
ATOM     13  HG  CYS A  1       29.206 -17.796   7.005  0.00  0.00    +0.102 HD
ENDBRANCH  11  12
ENDBRANCH   1  11
TORSDOF 5
ENDMDL
MODEL 3
REMARK VINA RESULT:      -5.0      2.792      4.195
REMARK  Name = *****
REMARK                            x       y       z     vdW  Elec       q    Type
REMARK                         _______ _______ _______ _____ _____    ______ ____
ROOT
ATOM      1  CA  CYS A  1       29.794 -19.457   8.096  0.00  0.00    +0.191 C 
ENDROOT
BRANCH   1   4
ATOM      2  C   UNK A  0       30.678 -16.978  10.871  0.00  0.00    +0.109 C 
ATOM      3  C   UNK A  0       30.872 -18.142   9.937  0.00  0.00    +0.211 C 
ATOM      4  N   CYS A  1       29.834 -18.336   9.060  0.00  0.00    -0.302 N 
ATOM      5  H   CYS A  1       29.082 -17.667   9.029  0.00  0.00    +0.149 HD
ATOM      6  O   UNK A  0       31.906 -18.786   9.863  0.00  0.00    -0.276 OA
ENDBRANCH   1   4
BRANCH   1   7
ATOM      7  C   CYS A  1       30.678 -19.166   6.875  0.00  0.00    +0.326 C 
ATOM      8  O   CYS A  1       30.305 -18.521   5.900  0.00  0.00    -0.249 OA
BRANCH   7   9
ATOM      9  OXT CYS A  1       31.896 -19.767   6.911  0.00  0.00    -0.479 OA
ATOM     10  HXT CYS A  1       32.327 -19.643   7.777  0.00  0.00    +0.295 HD
ENDBRANCH   7   9
ENDBRANCH   1   7
BRANCH   1  11
ATOM     11  CB  CYS A  1       28.360 -19.727   7.615  0.00  0.00    +0.099 C 
BRANCH  11  12
ATOM     12  SG  CYS A  1       27.925 -21.505   7.612  0.00  0.00    -0.176 S 
ATOM     13  HG  CYS A  1       28.650 -21.869   8.683  0.00  0.00    +0.102 HD
ENDBRANCH  11  12
ENDBRANCH   1  11
TORSDOF 5
ENDMDL
MODEL 4
REMARK VINA RESULT:      -4.9      2.808      3.458
REMARK  Name = *****
REMARK                            x       y       z     vdW  Elec       q    Type
REMARK                         _______ _______ _______ _____ _____    ______ ____
ROOT
ATOM      1  CA  CYS A  1       31.459 -17.846   9.403  0.00  0.00    +0.191 C 
ENDROOT
BRANCH   1   4
ATOM      2  C   UNK A  0       29.680 -18.955   6.204  0.00  0.00    +0.109 C 
ATOM      3  C   UNK A  0       30.779 -18.893   7.230  0.00  0.00    +0.211 C 
ATOM      4  N   CYS A  1       30.495 -18.093   8.308  0.00  0.00    -0.302 N 
ATOM      5  H   CYS A  1       29.577 -17.687   8.394  0.00  0.00    +0.149 HD
ATOM      6  O   UNK A  0       31.785 -19.584   7.187  0.00  0.00    -0.276 OA
ENDBRANCH   1   4
BRANCH   1   7
ATOM      7  C   CYS A  1       30.737 -17.695  10.749  0.00  0.00    +0.326 C 
ATOM      8  O   CYS A  1       30.765 -18.539  11.638  0.00  0.00    -0.249 OA
BRANCH   7   9
ATOM      9  OXT CYS A  1       29.970 -16.576  10.850  0.00  0.00    -0.479 OA
ATOM     10  HXT CYS A  1       30.486 -15.774  10.649  0.00  0.00    +0.295 HD
ENDBRANCH   7   9
ENDBRANCH   1   7
BRANCH   1  11
ATOM     11  CB  CYS A  1       32.286 -16.579   9.141  0.00  0.00    +0.099 C 
BRANCH  11  12
ATOM     12  SG  CYS A  1       33.025 -15.874  10.660  0.00  0.00    -0.176 S 
ATOM     13  HG  CYS A  1       33.839 -16.901  10.956  0.00  0.00    +0.102 HD
ENDBRANCH  11  12
ENDBRANCH   1  11
TORSDOF 5
ENDMDL
MODEL 5
REMARK VINA RESULT:      -4.8      5.813      6.549
REMARK  Name = *****
REMARK                            x       y       z     vdW  Elec       q    Type
REMARK                         _______ _______ _______ _____ _____    ______ ____
ROOT
ATOM      1  CA  CYS A  1       25.286 -22.464   7.598  0.00  0.00    +0.191 C 
ENDROOT
BRANCH   1   4
ATOM      2  C   UNK A  0       22.944 -20.208   5.584  0.00  0.00    +0.109 C 
ATOM      3  C   UNK A  0       23.549 -20.838   6.810  0.00  0.00    +0.211 C 
ATOM      4  N   CYS A  1       24.588 -21.695   6.544  0.00  0.00    -0.302 N 
ATOM      5  H   CYS A  1       24.931 -21.778   5.601  0.00  0.00    +0.149 HD
ATOM      6  O   UNK A  0       23.243 -20.531   7.951  0.00  0.00    -0.276 OA
ENDBRANCH   1   4
BRANCH   1   7
ATOM      7  C   CYS A  1       26.355 -21.607   8.289  0.00  0.00    +0.326 C 
ATOM      8  O   CYS A  1       27.545 -21.626   7.990  0.00  0.00    -0.249 OA
BRANCH   7   9
ATOM      9  OXT CYS A  1       25.895 -20.881   9.343  0.00  0.00    -0.479 OA
ATOM     10  HXT CYS A  1       24.948 -21.049   9.501  0.00  0.00    +0.295 HD
ENDBRANCH   7   9
ENDBRANCH   1   7
BRANCH   1  11
ATOM     11  CB  CYS A  1       25.956 -23.719   7.019  0.00  0.00    +0.099 C 
BRANCH  11  12
ATOM     12  SG  CYS A  1       25.048 -24.429   5.597  0.00  0.00    -0.176 S 
ATOM     13  HG  CYS A  1       23.960 -24.842   6.268  0.00  0.00    +0.102 HD
ENDBRANCH  11  12
ENDBRANCH   1  11
TORSDOF 5
ENDMDL
MODEL 6
REMARK VINA RESULT:      -4.8      6.135      7.082
REMARK  Name = *****
REMARK                            x       y       z     vdW  Elec       q    Type
REMARK                         _______ _______ _______ _____ _____    ______ ____
ROOT
ATOM      1  CA  CYS A  1       24.323 -22.335   7.411  0.00  0.00    +0.191 C 
ENDROOT
BRANCH   1   4
ATOM      2  C   UNK A  0       27.567 -20.336   7.736  0.00  0.00    +0.109 C 
ATOM      3  C   UNK A  0       26.259 -20.938   8.174  0.00  0.00    +0.211 C 
ATOM      4  N   CYS A  1       25.644 -21.700   7.212  0.00  0.00    -0.302 N 
ATOM      5  H   CYS A  1       26.122 -21.881   6.344  0.00  0.00    +0.149 HD
ATOM      6  O   UNK A  0       25.831 -20.874   9.315  0.00  0.00    -0.276 OA
ENDBRANCH   1   4
BRANCH   1   7
ATOM      7  C   CYS A  1       24.142 -23.537   6.473  0.00  0.00    +0.326 C 
ATOM      8  O   CYS A  1       24.970 -23.882   5.637  0.00  0.00    -0.249 OA
BRANCH   7   9
ATOM      9  OXT CYS A  1       22.930 -24.146   6.573  0.00  0.00    -0.479 OA
ATOM     10  HXT CYS A  1       22.962 -25.056   6.227  0.00  0.00    +0.295 HD
ENDBRANCH   7   9
ENDBRANCH   1   7
BRANCH   1  11
ATOM     11  CB  CYS A  1       23.182 -21.338   7.163  0.00  0.00    +0.099 C 
BRANCH  11  12
ATOM     12  SG  CYS A  1       23.253 -20.559   5.508  0.00  0.00    -0.176 S 
ATOM     13  HG  CYS A  1       22.885 -19.321   5.877  0.00  0.00    +0.102 HD
ENDBRANCH  11  12
ENDBRANCH   1  11
TORSDOF 5
ENDMDL
MODEL 7
REMARK VINA RESULT:      -4.8      6.983      7.896
REMARK  Name = *****
REMARK                            x       y       z     vdW  Elec       q    Type
REMARK                         _______ _______ _______ _____ _____    ______ ____
ROOT
ATOM      1  CA  CYS A  1       24.529 -22.788   5.844  0.00  0.00    +0.191 C 
ENDROOT
BRANCH   1   4
ATOM      2  C   UNK A  0       25.553 -26.347   4.885  0.00  0.00    +0.109 C 
ATOM      3  C   UNK A  0       25.497 -25.097   5.722  0.00  0.00    +0.211 C 
ATOM      4  N   CYS A  1       24.684 -24.117   5.211  0.00  0.00    -0.302 N 
ATOM      5  H   CYS A  1       24.125 -24.312   4.396  0.00  0.00    +0.149 HD
ATOM      6  O   UNK A  0       26.016 -24.995   6.822  0.00  0.00    -0.276 OA
ENDBRANCH   1   4
BRANCH   1   7
ATOM      7  C   CYS A  1       23.317 -22.764   6.786  0.00  0.00    +0.326 C 
ATOM      8  O   CYS A  1       23.164 -21.939   7.681  0.00  0.00    -0.249 OA
BRANCH   7   9
ATOM      9  OXT CYS A  1       22.455 -23.801   6.615  0.00  0.00    -0.479 OA
ATOM     10  HXT CYS A  1       21.849 -23.638   5.869  0.00  0.00    +0.295 HD
ENDBRANCH   7   9
ENDBRANCH   1   7
BRANCH   1  11
ATOM     11  CB  CYS A  1       24.358 -21.686   4.789  0.00  0.00    +0.099 C 
BRANCH  11  12
ATOM     12  SG  CYS A  1       25.559 -20.317   4.977  0.00  0.00    -0.176 S 
ATOM     13  HG  CYS A  1       25.635 -20.328   6.318  0.00  0.00    +0.102 HD
ENDBRANCH  11  12
ENDBRANCH   1  11
TORSDOF 5
ENDMDL
MODEL 8
REMARK VINA RESULT:      -4.7      6.811      7.518
REMARK  Name = *****
REMARK                            x       y       z     vdW  Elec       q    Type
REMARK                         _______ _______ _______ _____ _____    ______ ____
ROOT
ATOM      1  CA  CYS A  1       24.335 -22.686   6.447  0.00  0.00    +0.191 C 
ENDROOT
BRANCH   1   4
ATOM      2  C   UNK A  0       22.512 -19.594   5.129  0.00  0.00    +0.109 C 
ATOM      3  C   UNK A  0       23.416 -20.796   5.082  0.00  0.00    +0.211 C 
ATOM      4  N   CYS A  1       23.466 -21.505   6.257  0.00  0.00    -0.302 N 
ATOM      5  H   CYS A  1       22.855 -21.248   7.015  0.00  0.00    +0.149 HD
ATOM      6  O   UNK A  0       23.961 -21.195   4.066  0.00  0.00    -0.276 OA
ENDBRANCH   1   4
BRANCH   1   7
ATOM      7  C   CYS A  1       23.501 -23.966   6.598  0.00  0.00    +0.326 C 
ATOM      8  O   CYS A  1       23.973 -25.098   6.560  0.00  0.00    -0.249 OA
BRANCH   7   9
ATOM      9  OXT CYS A  1       22.161 -23.753   6.682  0.00  0.00    -0.479 OA
ATOM     10  HXT CYS A  1       21.679 -24.264   6.006  0.00  0.00    +0.295 HD
ENDBRANCH   7   9
ENDBRANCH   1   7
BRANCH   1  11
ATOM     11  CB  CYS A  1       25.226 -22.528   7.688  0.00  0.00    +0.099 C 
BRANCH  11  12
ATOM     12  SG  CYS A  1       25.756 -20.800   7.978  0.00  0.00    -0.176 S 
ATOM     13  HG  CYS A  1       24.708 -20.414   8.724  0.00  0.00    +0.102 HD
ENDBRANCH  11  12
ENDBRANCH   1  11
TORSDOF 5
ENDMDL
MODEL 9
REMARK VINA RESULT:      -4.7      4.587      5.391
REMARK  Name = *****
REMARK                            x       y       z     vdW  Elec       q    Type
REMARK                         _______ _______ _______ _____ _____    ______ ____
ROOT
ATOM      1  CA  CYS A  1       26.370 -21.473   6.948  0.00  0.00    +0.191 C 
ENDROOT
BRANCH   1   4
ATOM      2  C   UNK A  0       25.157 -19.719   3.774  0.00  0.00    +0.109 C 
ATOM      3  C   UNK A  0       25.186 -20.764   4.856  0.00  0.00    +0.211 C 
ATOM      4  N   CYS A  1       26.132 -20.541   5.825  0.00  0.00    -0.302 N 
ATOM      5  H   CYS A  1       26.662 -19.684   5.810  0.00  0.00    +0.149 HD
ATOM      6  O   UNK A  0       24.368 -21.665   4.950  0.00  0.00    -0.276 OA
ENDBRANCH   1   4
BRANCH   1   7
ATOM      7  C   CYS A  1       25.531 -21.086   8.174  0.00  0.00    +0.326 C 
ATOM      8  O   CYS A  1       26.006 -20.637   9.212  0.00  0.00    -0.249 OA
BRANCH   7   9
ATOM      9  OXT CYS A  1       24.207 -21.372   8.059  0.00  0.00    -0.479 OA
ATOM     10  HXT CYS A  1       23.727 -20.652   7.610  0.00  0.00    +0.295 HD
ENDBRANCH   7   9
ENDBRANCH   1   7
BRANCH   1  11
ATOM     11  CB  CYS A  1       27.852 -21.495   7.349  0.00  0.00    +0.099 C 
BRANCH  11  12
ATOM     12  SG  CYS A  1       28.852 -20.233   6.478  0.00  0.00    -0.176 S 
ATOM     13  HG  CYS A  1       27.836 -19.486   6.017  0.00  0.00    +0.102 HD
ENDBRANCH  11  12
ENDBRANCH   1  11
TORSDOF 5
ENDMDL
