MODEL 1
REMARK VINA RESULT:      -4.2      0.000      0.000
REMARK  Name = *****
REMARK                            x       y       z     vdW  Elec       q    Type
REMARK                         _______ _______ _______ _____ _____    ______ ____
ROOT
ATOM      1  C   LIG    1       26.548 -13.701   4.612  0.00  0.00    +0.176 C 
ENDROOT
BRANCH   1   2
ATOM      2  O   LIG    1       26.671 -12.966   5.836  0.00  0.00    -0.387 OA
ATOM      3  H   LIG    1       27.310 -13.427   6.408  0.00  0.00    +0.210 HD
ENDBRANCH   1   2
BRANCH   1   4
ATOM      4  C   LIG    1       25.045 -13.823   4.283  0.00  0.00    +0.181 C 
BRANCH   4   5
ATOM      5  O   LIG    1       24.817 -15.124   3.697  0.00  0.00    -0.386 OA
ATOM      6  H   LIG    1       25.518 -15.270   3.036  0.00  0.00    +0.210 HD
ENDBRANCH   4   5
BRANCH   4   7
ATOM      7  C   LIG    1       24.414 -12.733   3.389  0.00  0.00    +0.208 C 
BRANCH   7   9
ATOM      8  O   LIG    1       23.864 -11.477   5.402  0.00  0.00    -0.298 OA
ATOM      9  C   LIG    1       23.781 -11.589   4.168  0.00  0.00    +0.257 C 
ENDBRANCH   7   9
BRANCH   7  10
ATOM     10  O   LIG    1       23.425 -13.358   2.548  0.00  0.00    -0.382 OA
ATOM     11  H   LIG    1       23.009 -14.064   3.081  0.00  0.00    +0.210 HD
ENDBRANCH   7  10
ENDBRANCH   4   7
ENDBRANCH   1   4
BRANCH   1  12
ATOM     12  C   LIG    1       27.499 -13.132   3.528  0.00  0.00    +0.171 C 
BRANCH  12  13
ATOM     13  O   LIG    1       27.418 -13.907   2.328  0.00  0.00    -0.387 OA
ATOM     14  H   LIG    1       28.325 -13.949   1.958  0.00  0.00    +0.210 HD
ENDBRANCH  12  13
BRANCH  12  15
ATOM     15  C   LIG    1       28.968 -12.974   3.950  0.00  0.00    +0.190 C 
BRANCH  15  16
ATOM     16  O   LIG    1       29.107 -11.959   4.938  0.00  0.00    -0.392 OA
ATOM     17  H   LIG    1       30.001 -11.562   4.829  0.00  0.00    +0.209 HD
ENDBRANCH  15  16
ENDBRANCH  12  15
ENDBRANCH   1  12
TORSDOF 10
ENDMDL
MODEL 2
REMARK VINA RESULT:      -4.1      1.182      2.021
REMARK  Name = *****
REMARK                            x       y       z     vdW  Elec       q    Type
REMARK                         _______ _______ _______ _____ _____    ______ ____
ROOT
ATOM      1  C   LIG    1       26.739 -13.689   3.500  0.00  0.00    +0.176 C 
ENDROOT
BRANCH   1   2
ATOM      2  O   LIG    1       27.340 -14.094   2.264  0.00  0.00    -0.387 OA
ATOM      3  H   LIG    1       26.681 -13.993   1.554  0.00  0.00    +0.210 HD
ENDBRANCH   1   2
BRANCH   1   4
ATOM      4  C   LIG    1       25.568 -14.651   3.794  0.00  0.00    +0.181 C 
BRANCH   4   5
ATOM      5  O   LIG    1       25.747 -15.837   2.988  0.00  0.00    -0.386 OA
ATOM      6  H   LIG    1       25.513 -16.602   3.545  0.00  0.00    +0.210 HD
ENDBRANCH   4   5
BRANCH   4   7
ATOM      7  C   LIG    1       24.132 -14.112   3.613  0.00  0.00    +0.208 C 
BRANCH   7   9
ATOM      8  O   LIG    1       23.784 -11.772   3.035  0.00  0.00    -0.298 OA
ATOM      9  C   LIG    1       23.989 -12.627   3.911  0.00  0.00    +0.257 C 
ENDBRANCH   7   9
BRANCH   7  10
ATOM     10  O   LIG    1       23.256 -14.870   4.470  0.00  0.00    -0.382 OA
ATOM     11  H   LIG    1       23.215 -14.393   5.322  0.00  0.00    +0.210 HD
ENDBRANCH   7  10
ENDBRANCH   4   7
ENDBRANCH   1   4
BRANCH   1  12
ATOM     12  C   LIG    1       27.816 -13.479   4.595  0.00  0.00    +0.171 C 
BRANCH  12  13
ATOM     13  O   LIG    1       27.204 -13.247   5.868  0.00  0.00    -0.387 OA
ATOM     14  H   LIG    1       27.852 -13.529   6.547  0.00  0.00    +0.210 HD
ENDBRANCH  12  13
BRANCH  12  15
ATOM     15  C   LIG    1       28.852 -12.382   4.305  0.00  0.00    +0.190 C 
BRANCH  15  16
ATOM     16  O   LIG    1       29.225 -11.706   5.501  0.00  0.00    -0.392 OA
ATOM     17  H   LIG    1       30.200 -11.568   5.470  0.00  0.00    +0.209 HD
ENDBRANCH  15  16
ENDBRANCH  12  15
ENDBRANCH   1  12
TORSDOF 10
ENDMDL
MODEL 3
REMARK VINA RESULT:      -4.0      6.786      7.782
REMARK  Name = *****
REMARK                            x       y       z     vdW  Elec       q    Type
REMARK                         _______ _______ _______ _____ _____    ______ ____
ROOT
ATOM      1  C   LIG    1       25.420 -20.422   4.951  0.00  0.00    +0.176 C 
ENDROOT
BRANCH   1   2
ATOM      2  O   LIG    1       25.955 -20.129   3.654  0.00  0.00    -0.387 OA
ATOM      3  H   LIG    1       25.973 -19.162   3.541  0.00  0.00    +0.210 HD
ENDBRANCH   1   2
BRANCH   1   4
ATOM      4  C   LIG    1       24.099 -21.195   4.753  0.00  0.00    +0.181 C 
BRANCH   4   5
ATOM      5  O   LIG    1       23.827 -21.266   3.336  0.00  0.00    -0.386 OA
ATOM      6  H   LIG    1       24.269 -20.503   2.919  0.00  0.00    +0.210 HD
ENDBRANCH   4   5
BRANCH   4   7
ATOM      7  C   LIG    1       22.847 -20.681   5.497  0.00  0.00    +0.208 C 
BRANCH   7   9
ATOM      8  O   LIG    1       22.563 -18.780   4.001  0.00  0.00    -0.298 OA
ATOM      9  C   LIG    1       22.467 -19.249   5.146  0.00  0.00    +0.257 C 
ENDBRANCH   7   9
BRANCH   7  10
ATOM     10  O   LIG    1       23.089 -20.790   6.914  0.00  0.00    -0.382 OA
ATOM     11  H   LIG    1       22.272 -21.150   7.311  0.00  0.00    +0.210 HD
ENDBRANCH   7  10
ENDBRANCH   4   7
ENDBRANCH   1   4
BRANCH   1  12
ATOM     12  C   LIG    1       26.508 -21.038   5.870  0.00  0.00    +0.171 C 
BRANCH  12  13
ATOM     13  O   LIG    1       25.919 -21.569   7.061  0.00  0.00    -0.387 OA
ATOM     14  H   LIG    1       25.558 -22.450   6.828  0.00  0.00    +0.210 HD
ENDBRANCH  12  13
BRANCH  12  15
ATOM     15  C   LIG    1       27.675 -20.108   6.232  0.00  0.00    +0.190 C 
BRANCH  15  16
ATOM     16  O   LIG    1       28.132 -19.397   5.088  0.00  0.00    -0.392 OA
ATOM     17  H   LIG    1       28.036 -19.995   4.311  0.00  0.00    +0.209 HD
ENDBRANCH  15  16
ENDBRANCH  12  15
ENDBRANCH   1  12
TORSDOF 10
ENDMDL
MODEL 4
REMARK VINA RESULT:      -3.9      6.697      7.633
REMARK  Name = *****
REMARK                            x       y       z     vdW  Elec       q    Type
REMARK                         _______ _______ _______ _____ _____    ______ ____
ROOT
ATOM      1  C   LIG    1       25.136 -21.424   5.612  0.00  0.00    +0.176 C 
ENDROOT
BRANCH   1   2
ATOM      2  O   LIG    1       25.039 -21.566   7.034  0.00  0.00    -0.387 OA
ATOM      3  H   LIG    1       24.301 -21.013   7.348  0.00  0.00    +0.210 HD
ENDBRANCH   1   2
BRANCH   1   4
ATOM      4  C   LIG    1       23.712 -21.530   5.028  0.00  0.00    +0.181 C 
BRANCH   4   5
ATOM      5  O   LIG    1       23.815 -21.526   3.586  0.00  0.00    -0.386 OA
ATOM      6  H   LIG    1       23.303 -22.287   3.258  0.00  0.00    +0.210 HD
ENDBRANCH   4   5
BRANCH   4   7
ATOM      7  C   LIG    1       22.670 -20.481   5.476  0.00  0.00    +0.208 C 
BRANCH   7   9
ATOM      8  O   LIG    1       23.436 -18.744   3.951  0.00  0.00    -0.298 OA
ATOM      9  C   LIG    1       22.488 -19.335   4.491  0.00  0.00    +0.257 C 
ENDBRANCH   7   9
BRANCH   7  10
ATOM     10  O   LIG    1       23.075 -19.965   6.759  0.00  0.00    -0.382 OA
ATOM     11  H   LIG    1       23.119 -18.993   6.669  0.00  0.00    +0.210 HD
ENDBRANCH   7  10
ENDBRANCH   4   7
ENDBRANCH   1   4
BRANCH   1  12
ATOM     12  C   LIG    1       26.000 -20.191   5.238  0.00  0.00    +0.171 C 
BRANCH  12  13
ATOM     13  O   LIG    1       26.127 -20.076   3.817  0.00  0.00    -0.387 OA
ATOM     14  H   LIG    1       25.731 -19.215   3.568  0.00  0.00    +0.210 HD
ENDBRANCH  12  13
BRANCH  12  15
ATOM     15  C   LIG    1       27.387 -20.128   5.895  0.00  0.00    +0.190 C 
BRANCH  15  16
ATOM     16  O   LIG    1       28.262 -19.286   5.154  0.00  0.00    -0.392 OA
ATOM     17  H   LIG    1       28.934 -18.933   5.782  0.00  0.00    +0.209 HD
ENDBRANCH  15  16
ENDBRANCH  12  15
ENDBRANCH   1  12
TORSDOF 10
ENDMDL
MODEL 5
REMARK VINA RESULT:      -3.9      1.355      2.227
REMARK  Name = *****
REMARK                            x       y       z     vdW  Elec       q    Type
REMARK                         _______ _______ _______ _____ _____    ______ ____
ROOT
ATOM      1  C   LIG    1       26.690 -13.327   2.879  0.00  0.00    +0.176 C 
ENDROOT
BRANCH   1   2
ATOM      2  O   LIG    1       26.162 -14.408   2.101  0.00  0.00    -0.387 OA
ATOM      3  H   LIG    1       25.977 -15.155   2.698  0.00  0.00    +0.210 HD
ENDBRANCH   1   2
BRANCH   1   4
ATOM      4  C   LIG    1       25.628 -12.937   3.927  0.00  0.00    +0.181 C 
BRANCH   4   5
ATOM      5  O   LIG    1       25.882 -13.697   5.130  0.00  0.00    -0.386 OA
ATOM      6  H   LIG    1       26.847 -13.703   5.269  0.00  0.00    +0.210 HD
ENDBRANCH   4   5
BRANCH   4   7
ATOM      7  C   LIG    1       24.142 -13.073   3.532  0.00  0.00    +0.208 C 
BRANCH   7   9
ATOM      8  O   LIG    1       24.161 -15.461   4.008  0.00  0.00    -0.298 OA
ATOM      9  C   LIG    1       23.518 -14.403   3.932  0.00  0.00    +0.257 C 
ENDBRANCH   7   9
BRANCH   7  10
ATOM     10  O   LIG    1       24.037 -12.893   2.106  0.00  0.00    -0.382 OA
ATOM     11  H   LIG    1       24.234 -13.759   1.699  0.00  0.00    +0.210 HD
ENDBRANCH   7  10
ENDBRANCH   4   7
ENDBRANCH   1   4
BRANCH   1  12
ATOM     12  C   LIG    1       28.128 -13.647   3.365  0.00  0.00    +0.171 C 
BRANCH  12  13
ATOM     13  O   LIG    1       28.137 -14.832   4.168  0.00  0.00    -0.387 OA
ATOM     14  H   LIG    1       29.062 -14.965   4.462  0.00  0.00    +0.210 HD
ENDBRANCH  12  13
BRANCH  12  15
ATOM     15  C   LIG    1       28.848 -12.509   4.103  0.00  0.00    +0.190 C 
BRANCH  15  16
ATOM     16  O   LIG    1       28.454 -12.461   5.470  0.00  0.00    -0.392 OA
ATOM     17  H   LIG    1       27.621 -11.936   5.518  0.00  0.00    +0.209 HD
ENDBRANCH  15  16
ENDBRANCH  12  15
ENDBRANCH   1  12
TORSDOF 10
ENDMDL
MODEL 6
REMARK VINA RESULT:      -3.8      1.592      4.010
REMARK  Name = *****
REMARK                            x       y       z     vdW  Elec       q    Type
REMARK                         _______ _______ _______ _____ _____    ______ ____
ROOT
ATOM      1  C   LIG    1       25.760 -13.418   2.510  0.00  0.00    +0.176 C 
ENDROOT
BRANCH   1   2
ATOM      2  O   LIG    1       26.473 -12.234   2.132  0.00  0.00    -0.387 OA
ATOM      3  H   LIG    1       26.242 -12.017   1.211  0.00  0.00    +0.210 HD
ENDBRANCH   1   2
BRANCH   1   4
ATOM      4  C   LIG    1       26.798 -14.484   2.917  0.00  0.00    +0.181 C 
BRANCH   4   5
ATOM      5  O   LIG    1       26.092 -15.593   3.517  0.00  0.00    -0.386 OA
ATOM      6  H   LIG    1       25.150 -15.345   3.562  0.00  0.00    +0.210 HD
ENDBRANCH   4   5
BRANCH   4   7
ATOM      7  C   LIG    1       27.956 -14.046   3.841  0.00  0.00    +0.208 C 
BRANCH   7   9
ATOM      8  O   LIG    1       26.846 -13.774   5.992  0.00  0.00    -0.298 OA
ATOM      9  C   LIG    1       27.503 -13.268   5.068  0.00  0.00    +0.257 C 
ENDBRANCH   7   9
BRANCH   7  10
ATOM     10  O   LIG    1       28.872 -13.248   3.066  0.00  0.00    -0.382 OA
ATOM     11  H   LIG    1       29.461 -13.872   2.598  0.00  0.00    +0.210 HD
ENDBRANCH   7  10
ENDBRANCH   4   7
ENDBRANCH   1   4
BRANCH   1  12
ATOM     12  C   LIG    1       24.617 -13.080   3.503  0.00  0.00    +0.171 C 
BRANCH  12  13
ATOM     13  O   LIG    1       23.704 -14.177   3.612  0.00  0.00    -0.387 OA
ATOM     14  H   LIG    1       23.500 -14.278   4.565  0.00  0.00    +0.210 HD
ENDBRANCH  12  13
BRANCH  12  15
ATOM     15  C   LIG    1       23.845 -11.784   3.211  0.00  0.00    +0.190 C 
BRANCH  15  16
ATOM     16  O   LIG    1       23.828 -11.506   1.815  0.00  0.00    -0.392 OA
ATOM     17  H   LIG    1       24.489 -10.795   1.648  0.00  0.00    +0.209 HD
ENDBRANCH  15  16
ENDBRANCH  12  15
ENDBRANCH   1  12
TORSDOF 10
ENDMDL
MODEL 7
REMARK VINA RESULT:      -3.8      1.270      4.108
REMARK  Name = *****
REMARK                            x       y       z     vdW  Elec       q    Type
REMARK                         _______ _______ _______ _____ _____    ______ ____
ROOT
ATOM      1  C   LIG    1       25.614 -14.865   3.983  0.00  0.00    +0.176 C 
ENDROOT
BRANCH   1   2
ATOM      2  O   LIG    1       25.864 -15.228   2.619  0.00  0.00    -0.387 OA
ATOM      3  H   LIG    1       25.996 -16.192   2.577  0.00  0.00    +0.210 HD
ENDBRANCH   1   2
BRANCH   1   4
ATOM      4  C   LIG    1       26.846 -14.094   4.500  0.00  0.00    +0.181 C 
BRANCH   4   5
ATOM      5  O   LIG    1       26.381 -13.022   5.351  0.00  0.00    -0.386 OA
ATOM      6  H   LIG    1       25.626 -13.367   5.864  0.00  0.00    +0.210 HD
ENDBRANCH   4   5
BRANCH   4   7
ATOM      7  C   LIG    1       27.835 -13.534   3.455  0.00  0.00    +0.208 C 
BRANCH   7   9
ATOM      8  O   LIG    1       28.898 -12.070   5.086  0.00  0.00    -0.298 OA
ATOM      9  C   LIG    1       29.000 -12.763   4.062  0.00  0.00    +0.257 C 
ENDBRANCH   7   9
BRANCH   7  10
ATOM     10  O   LIG    1       27.103 -12.683   2.552  0.00  0.00    -0.382 OA
ATOM     11  H   LIG    1       27.764 -12.143   2.076  0.00  0.00    +0.210 HD
ENDBRANCH   7  10
ENDBRANCH   4   7
ENDBRANCH   1   4
BRANCH   1  12
ATOM     12  C   LIG    1       24.215 -14.213   4.133  0.00  0.00    +0.171 C 
BRANCH  12  13
ATOM     13  O   LIG    1       23.214 -15.211   4.355  0.00  0.00    -0.387 OA
ATOM     14  H   LIG    1       23.438 -15.968   3.775  0.00  0.00    +0.210 HD
ENDBRANCH  12  13
BRANCH  12  15
ATOM     15  C   LIG    1       23.786 -13.289   2.983  0.00  0.00    +0.190 C 
BRANCH  15  16
ATOM     16  O   LIG    1       24.282 -11.970   3.178  0.00  0.00    -0.392 OA
ATOM     17  H   LIG    1       24.586 -11.636   2.303  0.00  0.00    +0.209 HD
ENDBRANCH  15  16
ENDBRANCH  12  15
ENDBRANCH   1  12
TORSDOF 10
ENDMDL
MODEL 8
REMARK VINA RESULT:      -3.8      1.376      2.238
REMARK  Name = *****
REMARK                            x       y       z     vdW  Elec       q    Type
REMARK                         _______ _______ _______ _____ _____    ______ ____
ROOT
ATOM      1  C   LIG    1       26.727 -13.998   2.533  0.00  0.00    +0.176 C 
ENDROOT
BRANCH   1   2
ATOM      2  O   LIG    1       26.494 -15.365   2.893  0.00  0.00    -0.387 OA
ATOM      3  H   LIG    1       27.351 -15.830   2.905  0.00  0.00    +0.210 HD
ENDBRANCH   1   2
BRANCH   1   4
ATOM      4  C   LIG    1       25.364 -13.361   2.190  0.00  0.00    +0.181 C 
BRANCH   4   5
ATOM      5  O   LIG    1       25.573 -11.952   1.951  0.00  0.00    -0.386 OA
ATOM      6  H   LIG    1       26.356 -11.869   1.376  0.00  0.00    +0.210 HD
ENDBRANCH   4   5
BRANCH   4   7
ATOM      7  C   LIG    1       24.207 -13.551   3.196  0.00  0.00    +0.208 C 
BRANCH   7   9
ATOM      8  O   LIG    1       24.376 -11.926   5.002  0.00  0.00    -0.298 OA
ATOM      9  C   LIG    1       23.830 -12.282   3.946  0.00  0.00    +0.257 C 
ENDBRANCH   7   9
BRANCH   7  10
ATOM     10  O   LIG    1       24.590 -14.578   4.133  0.00  0.00    -0.382 OA
ATOM     11  H   LIG    1       25.352 -15.046   3.740  0.00  0.00    +0.210 HD
ENDBRANCH   7  10
ENDBRANCH   4   7
ENDBRANCH   1   4
BRANCH   1  12
ATOM     12  C   LIG    1       27.629 -13.296   3.581  0.00  0.00    +0.171 C 
BRANCH  12  13
ATOM     13  O   LIG    1       28.977 -13.206   3.107  0.00  0.00    -0.387 OA
ATOM     14  H   LIG    1       28.957 -13.444   2.157  0.00  0.00    +0.210 HD
ENDBRANCH  12  13
BRANCH  12  15
ATOM     15  C   LIG    1       27.610 -13.909   4.990  0.00  0.00    +0.190 C 
BRANCH  15  16
ATOM     16  O   LIG    1       26.696 -13.217   5.833  0.00  0.00    -0.392 OA
ATOM     17  H   LIG    1       27.189 -12.480   6.260  0.00  0.00    +0.209 HD
ENDBRANCH  15  16
ENDBRANCH  12  15
ENDBRANCH   1  12
TORSDOF 10
ENDMDL
MODEL 9
REMARK VINA RESULT:      -3.6      6.800      7.732
REMARK  Name = *****
REMARK                            x       y       z     vdW  Elec       q    Type
REMARK                         _______ _______ _______ _____ _____    ______ ____
ROOT
ATOM      1  C   LIG    1       25.787 -21.146   5.753  0.00  0.00    +0.176 C 
ENDROOT
BRANCH   1   2
ATOM      2  O   LIG    1       24.970 -21.318   6.917  0.00  0.00    -0.387 OA
ATOM      3  H   LIG    1       24.216 -21.889   6.682  0.00  0.00    +0.210 HD
ENDBRANCH   1   2
BRANCH   1   4
ATOM      4  C   LIG    1       24.875 -20.679   4.600  0.00  0.00    +0.181 C 
BRANCH   4   5
ATOM      5  O   LIG    1       25.717 -20.272   3.498  0.00  0.00    -0.386 OA
ATOM      6  H   LIG    1       25.397 -19.401   3.197  0.00  0.00    +0.210 HD
ENDBRANCH   4   5
BRANCH   4   7
ATOM      7  C   LIG    1       23.844 -19.569   4.902  0.00  0.00    +0.208 C 
BRANCH   7   9
ATOM      8  O   LIG    1       22.195 -21.290   5.408  0.00  0.00    -0.298 OA
ATOM      9  C   LIG    1       22.444 -20.093   5.189  0.00  0.00    +0.257 C 
ENDBRANCH   7   9
BRANCH   7  10
ATOM     10  O   LIG    1       23.809 -18.669   3.777  0.00  0.00    -0.382 OA
ATOM     11  H   LIG    1       22.943 -18.796   3.344  0.00  0.00    +0.210 HD
ENDBRANCH   7  10
ENDBRANCH   4   7
ENDBRANCH   1   4
BRANCH   1  12
ATOM     12  C   LIG    1       27.050 -20.308   6.085  0.00  0.00    +0.171 C 
BRANCH  12  13
ATOM     13  O   LIG    1       27.729 -19.923   4.885  0.00  0.00    -0.387 OA
ATOM     14  H   LIG    1       28.591 -19.547   5.159  0.00  0.00    +0.210 HD
ENDBRANCH  12  13
BRANCH  12  15
ATOM     15  C   LIG    1       28.041 -20.960   7.061  0.00  0.00    +0.190 C 
BRANCH  15  16
ATOM     16  O   LIG    1       29.365 -20.921   6.541  0.00  0.00    -0.392 OA
ATOM     17  H   LIG    1       29.303 -21.036   5.565  0.00  0.00    +0.209 HD
ENDBRANCH  15  16
ENDBRANCH  12  15
ENDBRANCH   1  12
TORSDOF 10
ENDMDL
