MODEL 1
REMARK VINA RESULT:      -6.0      0.000      0.000
REMARK  Name = *****
REMARK                            x       y       z     vdW  Elec       q    Type
REMARK                         _______ _______ _______ _____ _____    ______ ____
ROOT
ATOM      1  C   LIG    1       24.950 -25.603   6.473  0.00  0.00    +0.169 C 
ATOM      2  C   LIG    1       26.251 -26.024   7.231  0.00  0.00    +0.084 C 
ATOM      3  C   LIG    1       27.334 -26.523   6.240  0.00  0.00    +0.042 C 
ATOM      4  C   LIG    1       26.751 -26.920   4.870  0.00  0.00    +0.084 C 
ATOM      5  C   LIG    1       25.438 -27.731   5.056  0.00  0.00    +0.169 C 
ATOM      6  C   LIG    1       24.359 -26.878   5.799  0.00  0.00    +0.175 C 
ENDROOT
BRANCH   2   7
ATOM      7  N   LIG    1       25.975 -27.029   8.271  0.00  0.00    -0.325 NA
ATOM      8  H   LIG    1       26.292 -26.696   9.183  0.00  0.00    +0.118 HD
ATOM      9  H   LIG    1       26.522 -27.883   8.098  0.00  0.00    +0.118 HD
ENDBRANCH   2   7
BRANCH   4  10
ATOM     10  N   LIG    1       27.786 -27.586   4.061  0.00  0.00    -0.325 NA
ATOM     11  H   LIG    1       28.601 -27.783   4.644  0.00  0.00    +0.118 HD
ATOM     12  H   LIG    1       28.103 -26.948   3.332  0.00  0.00    +0.118 HD
ENDBRANCH   4  10
BRANCH   6  13
ATOM     13  O   LIG    1       23.228 -26.622   4.960  0.00  0.00    -0.387 OA
ATOM     14  H   LIG    1       23.401 -27.090   4.121  0.00  0.00    +0.210 HD
ENDBRANCH   6  13
BRANCH   1  15
ATOM     15  O   LIG    1       25.313 -24.538   5.566  0.00  0.00    -0.342 OA
BRANCH  15  18
ATOM     16  C   LIG    1       24.533 -20.990   5.285  0.00  0.00    +0.138 C 
ATOM     17  O   LIG    1       24.741 -22.362   4.892  0.00  0.00    -0.345 OA
ATOM     18  C   LIG    1       24.994 -23.218   6.007  0.00  0.00    +0.268 C 
ATOM     19  C   LIG    1       23.769 -23.267   6.970  0.00  0.00    +0.107 C 
ATOM     20  C   LIG    1       23.450 -21.837   7.412  0.00  0.00    +0.026 C 
ATOM     21  C   LIG    1       23.318 -20.890   6.220  0.00  0.00    +0.035 C 
BRANCH  19  22
ATOM     22  N   LIG    1       22.569 -23.886   6.371  0.00  0.00    -0.323 NA
ATOM     23  H   LIG    1       21.880 -23.999   7.120  0.00  0.00    +0.119 HD
ATOM     24  H   LIG    1       22.136 -23.193   5.755  0.00  0.00    +0.119 HD
ENDBRANCH  19  22
BRANCH  16  25
ATOM     25  C   LIG    1       24.354 -20.141   3.987  0.00  0.00    +0.079 C 
ATOM     26  C   LIG    1       23.244 -19.092   4.090  0.00  0.00    +0.026 C 
BRANCH  25  28
ATOM     27  C   LIG    1       25.607 -18.099   3.337  0.00  0.00    +0.101 C 
ATOM     28  N   LIG    1       25.619 -19.544   3.501  0.00  0.00    -0.314 NA
ATOM     29  H   LIG    1       26.357 -19.809   4.158  0.00  0.00    +0.122 HD
ENDBRANCH  25  28
ENDBRANCH  16  25
ENDBRANCH  15  18
ENDBRANCH   1  15
BRANCH   5  30
ATOM     30  O   LIG    1       25.616 -28.873   5.913  0.00  0.00    -0.341 OA
BRANCH  30  31
ATOM     31  C   LIG    1       24.435 -29.525   6.396  0.00  0.00    +0.281 C 
ATOM     32  C   LIG    1       24.573 -31.016   5.959  0.00  0.00    +0.190 C 
ATOM     33  C   LIG    1       25.450 -31.741   7.026  0.00  0.00    +0.121 C 
ATOM     34  C   LIG    1       24.722 -31.622   8.414  0.00  0.00    +0.104 C 
ATOM     35  C   LIG    1       25.743 -31.527   9.551  0.00  0.00    +0.045 C 
ATOM     36  C   LIG    1       23.755 -30.426   8.463  0.00  0.00    +0.199 C 
ATOM     37  O   LIG    1       24.311 -29.305   7.792  0.00  0.00    -0.346 OA
BRANCH  33  38
ATOM     38  N   LIG    1       25.752 -33.183   6.789  0.00  0.00    -0.311 NA
ATOM     39  H   LIG    1       25.557 -33.692   7.674  0.00  0.00    +0.122 HD
ATOM     40  C   LIG    1       27.155 -33.429   6.471  0.00  0.00    +0.101 C 
ENDBRANCH  33  38
BRANCH  32  41
ATOM     41  O   LIG    1       25.083 -31.107   4.627  0.00  0.00    -0.385 OA
ATOM     42  H   LIG    1       24.872 -32.010   4.301  0.00  0.00    +0.210 HD
ENDBRANCH  32  41
BRANCH  34  43
ATOM     43  O   LIG    1       23.938 -32.809   8.639  0.00  0.00    -0.385 OA
ATOM     44  H   LIG    1       23.061 -32.477   8.930  0.00  0.00    +0.210 HD
ENDBRANCH  34  43
ENDBRANCH  30  31
ENDBRANCH   5  30
TORSDOF 13
ENDMDL
MODEL 2
REMARK VINA RESULT:      -5.8      4.530      8.105
REMARK  Name = *****
REMARK                            x       y       z     vdW  Elec       q    Type
REMARK                         _______ _______ _______ _____ _____    ______ ____
ROOT
ATOM      1  C   LIG    1       24.500 -29.582  10.094  0.00  0.00    +0.169 C 
ATOM      2  C   LIG    1       26.009 -29.522  10.496  0.00  0.00    +0.084 C 
ATOM      3  C   LIG    1       26.442 -30.822  11.222  0.00  0.00    +0.042 C 
ATOM      4  C   LIG    1       25.247 -31.624  11.773  0.00  0.00    +0.084 C 
ATOM      5  C   LIG    1       24.219 -30.668  12.442  0.00  0.00    +0.169 C 
ATOM      6  C   LIG    1       23.660 -29.641  11.405  0.00  0.00    +0.175 C 
ENDROOT
BRANCH   2   7
ATOM      7  N   LIG    1       26.310 -28.331  11.309  0.00  0.00    -0.325 NA
ATOM      8  H   LIG    1       27.286 -28.055  11.190  0.00  0.00    +0.118 HD
ATOM      9  H   LIG    1       26.217 -28.548  12.310  0.00  0.00    +0.118 HD
ENDBRANCH   2   7
BRANCH   4  10
ATOM     10  N   LIG    1       25.733 -32.716  12.633  0.00  0.00    -0.325 NA
ATOM     11  H   LIG    1       25.093 -32.844  13.418  0.00  0.00    +0.118 HD
ATOM     12  H   LIG    1       26.631 -32.451  13.036  0.00  0.00    +0.118 HD
ENDBRANCH   4  10
BRANCH   6  13
ATOM     13  O   LIG    1       22.257 -29.827  11.190  0.00  0.00    -0.387 OA
ATOM     14  H   LIG    1       21.818 -29.563  12.020  0.00  0.00    +0.210 HD
ENDBRANCH   6  13
BRANCH   1  15
ATOM     15  O   LIG    1       24.341 -30.714   9.208  0.00  0.00    -0.342 OA
BRANCH  15  18
ATOM     16  C   LIG    1       24.540 -28.661   6.205  0.00  0.00    +0.138 C 
ATOM     17  O   LIG    1       24.697 -29.057   7.583  0.00  0.00    -0.345 OA
ATOM     18  C   LIG    1       24.283 -30.404   7.816  0.00  0.00    +0.268 C 
ATOM     19  C   LIG    1       25.162 -31.411   7.015  0.00  0.00    +0.107 C 
ATOM     20  C   LIG    1       25.085 -31.041   5.532  0.00  0.00    +0.026 C 
ATOM     21  C   LIG    1       25.392 -29.563   5.299  0.00  0.00    +0.035 C 
BRANCH  19  22
ATOM     22  N   LIG    1       26.574 -31.442   7.451  0.00  0.00    -0.323 NA
ATOM     23  H   LIG    1       26.680 -30.735   8.185  0.00  0.00    +0.119 HD
ATOM     24  H   LIG    1       26.724 -32.323   7.949  0.00  0.00    +0.119 HD
ENDBRANCH  19  22
BRANCH  16  25
ATOM     25  C   LIG    1       24.939 -27.156   6.090  0.00  0.00    +0.079 C 
ATOM     26  C   LIG    1       26.018 -26.888   5.037  0.00  0.00    +0.026 C 
BRANCH  25  28
ATOM     27  C   LIG    1       23.970 -24.888   6.373  0.00  0.00    +0.101 C 
ATOM     28  N   LIG    1       23.777 -26.255   5.915  0.00  0.00    -0.314 NA
ATOM     29  H   LIG    1       23.536 -26.253   4.921  0.00  0.00    +0.122 HD
ENDBRANCH  25  28
ENDBRANCH  16  25
ENDBRANCH  15  18
ENDBRANCH   1  15
BRANCH   5  30
ATOM     30  O   LIG    1       24.818 -29.838  13.452  0.00  0.00    -0.341 OA
BRANCH  30  31
ATOM     31  C   LIG    1       24.013 -29.493  14.586  0.00  0.00    +0.281 C 
ATOM     32  C   LIG    1       24.583 -28.138  15.108  0.00  0.00    +0.190 C 
ATOM     33  C   LIG    1       23.937 -26.997  14.260  0.00  0.00    +0.121 C 
ATOM     34  C   LIG    1       22.379 -27.071  14.456  0.00  0.00    +0.104 C 
ATOM     35  C   LIG    1       21.655 -26.642  13.178  0.00  0.00    +0.045 C 
ATOM     36  C   LIG    1       21.912 -28.472  14.890  0.00  0.00    +0.199 C 
ATOM     37  O   LIG    1       22.646 -29.478  14.207  0.00  0.00    -0.346 OA
BRANCH  33  38
ATOM     38  N   LIG    1       24.371 -25.602  14.559  0.00  0.00    -0.311 NA
ATOM     39  H   LIG    1       23.527 -24.997  14.518  0.00  0.00    +0.122 HD
ATOM     40  C   LIG    1       25.309 -25.071  13.575  0.00  0.00    +0.101 C 
ENDBRANCH  33  38
BRANCH  32  41
ATOM     41  O   LIG    1       26.011 -28.146  15.078  0.00  0.00    -0.385 OA
ATOM     42  H   LIG    1       26.309 -27.284  15.444  0.00  0.00    +0.210 HD
ENDBRANCH  32  41
BRANCH  34  43
ATOM     43  O   LIG    1       21.991 -26.155  15.498  0.00  0.00    -0.385 OA
ATOM     44  H   LIG    1       22.834 -25.764  15.814  0.00  0.00    +0.210 HD
ENDBRANCH  34  43
ENDBRANCH  30  31
ENDBRANCH   5  30
TORSDOF 13
ENDMDL
MODEL 3
REMARK VINA RESULT:      -5.6      2.098      2.415
REMARK  Name = *****
REMARK                            x       y       z     vdW  Elec       q    Type
REMARK                         _______ _______ _______ _____ _____    ______ ____
ROOT
ATOM      1  C   LIG    1       24.976 -26.226   6.793  0.00  0.00    +0.169 C 
ATOM      2  C   LIG    1       26.312 -26.684   7.463  0.00  0.00    +0.084 C 
ATOM      3  C   LIG    1       27.414 -26.919   6.398  0.00  0.00    +0.042 C 
ATOM      4  C   LIG    1       26.843 -27.102   4.978  0.00  0.00    +0.084 C 
ATOM      5  C   LIG    1       25.592 -28.024   5.015  0.00  0.00    +0.169 C 
ATOM      6  C   LIG    1       24.466 -27.396   5.899  0.00  0.00    +0.175 C 
ENDROOT
BRANCH   2   7
ATOM      7  N   LIG    1       26.119 -27.878   8.304  0.00  0.00    -0.325 NA
ATOM      8  H   LIG    1       25.724 -28.642   7.753  0.00  0.00    +0.118 HD
ATOM      9  H   LIG    1       25.420 -27.691   9.035  0.00  0.00    +0.118 HD
ENDBRANCH   2   7
BRANCH   4  10
ATOM     10  N   LIG    1       27.912 -27.537   4.063  0.00  0.00    -0.325 NA
ATOM     11  H   LIG    1       28.782 -27.057   4.301  0.00  0.00    +0.118 HD
ATOM     12  H   LIG    1       27.677 -27.249   3.114  0.00  0.00    +0.118 HD
ENDBRANCH   4  10
BRANCH   6  13
ATOM     13  O   LIG    1       23.309 -27.073   5.120  0.00  0.00    -0.387 OA
ATOM     14  H   LIG    1       23.643 -26.736   4.267  0.00  0.00    +0.210 HD
ENDBRANCH   6  13
BRANCH   1  15
ATOM     15  O   LIG    1       25.253 -24.992   6.093  0.00  0.00    -0.342 OA
BRANCH  15  18
ATOM     16  C   LIG    1       26.768 -22.015   7.549  0.00  0.00    +0.138 C 
ATOM     17  O   LIG    1       26.571 -23.131   6.658  0.00  0.00    -0.345 OA
ATOM     18  C   LIG    1       25.350 -23.828   6.914  0.00  0.00    +0.268 C 
ATOM     19  C   LIG    1       24.115 -22.908   6.673  0.00  0.00    +0.107 C 
ATOM     20  C   LIG    1       24.260 -21.669   7.559  0.00  0.00    +0.026 C 
ATOM     21  C   LIG    1       25.623 -21.003   7.386  0.00  0.00    +0.035 C 
BRANCH  19  22
ATOM     22  N   LIG    1       23.947 -22.500   5.262  0.00  0.00    -0.323 NA
ATOM     23  H   LIG    1       23.715 -21.502   5.261  0.00  0.00    +0.119 HD
ATOM     24  H   LIG    1       24.868 -22.529   4.820  0.00  0.00    +0.119 HD
ENDBRANCH  19  22
BRANCH  16  25
ATOM     25  C   LIG    1       28.163 -21.390   7.234  0.00  0.00    +0.079 C 
ATOM     26  C   LIG    1       28.086 -20.118   6.385  0.00  0.00    +0.026 C 
BRANCH  25  28
ATOM     27  C   LIG    1       30.313 -20.611   8.201  0.00  0.00    +0.101 C 
ATOM     28  N   LIG    1       28.998 -21.186   8.440  0.00  0.00    -0.314 NA
ATOM     29  H   LIG    1       28.473 -20.587   9.080  0.00  0.00    +0.122 HD
ENDBRANCH  25  28
ENDBRANCH  16  25
ENDBRANCH  15  18
ENDBRANCH   1  15
BRANCH   5  30
ATOM     30  O   LIG    1       25.859 -29.286   5.651  0.00  0.00    -0.341 OA
BRANCH  30  31
ATOM     31  C   LIG    1       24.732 -30.091   6.018  0.00  0.00    +0.281 C 
ATOM     32  C   LIG    1       25.034 -31.515   5.455  0.00  0.00    +0.190 C 
ATOM     33  C   LIG    1       25.939 -32.249   6.494  0.00  0.00    +0.121 C 
ATOM     34  C   LIG    1       25.151 -32.331   7.851  0.00  0.00    +0.104 C 
ATOM     35  C   LIG    1       26.113 -32.245   9.038  0.00  0.00    +0.045 C 
ATOM     36  C   LIG    1       24.068 -31.243   7.961  0.00  0.00    +0.199 C 
ATOM     37  O   LIG    1       24.534 -30.015   7.420  0.00  0.00    -0.346 OA
BRANCH  33  38
ATOM     38  N   LIG    1       26.392 -33.627   6.143  0.00  0.00    -0.311 NA
ATOM     39  H   LIG    1       26.240 -34.226   6.978  0.00  0.00    +0.122 HD
ATOM     40  C   LIG    1       27.817 -33.699   5.834  0.00  0.00    +0.101 C 
ENDBRANCH  33  38
BRANCH  32  41
ATOM     41  O   LIG    1       25.602 -31.430   4.147  0.00  0.00    -0.385 OA
ATOM     42  H   LIG    1       25.491 -32.314   3.730  0.00  0.00    +0.210 HD
ENDBRANCH  32  41
BRANCH  34  43
ATOM     43  O   LIG    1       24.481 -33.604   7.932  0.00  0.00    -0.385 OA
ATOM     44  H   LIG    1       24.010 -33.693   7.074  0.00  0.00    +0.210 HD
ENDBRANCH  34  43
ENDBRANCH  30  31
ENDBRANCH   5  30
TORSDOF 13
ENDMDL
MODEL 4
REMARK VINA RESULT:      -5.5      2.798      5.353
REMARK  Name = *****
REMARK                            x       y       z     vdW  Elec       q    Type
REMARK                         _______ _______ _______ _____ _____    ______ ____
ROOT
ATOM      1  C   LIG    1       24.961 -29.040   8.293  0.00  0.00    +0.169 C 
ATOM      2  C   LIG    1       25.909 -29.167   9.529  0.00  0.00    +0.084 C 
ATOM      3  C   LIG    1       26.970 -30.276   9.303  0.00  0.00    +0.042 C 
ATOM      4  C   LIG    1       26.574 -31.261   8.187  0.00  0.00    +0.084 C 
ATOM      5  C   LIG    1       25.070 -31.640   8.309  0.00  0.00    +0.169 C 
ATOM      6  C   LIG    1       24.166 -30.373   8.163  0.00  0.00    +0.175 C 
ENDROOT
BRANCH   2   7
ATOM      7  N   LIG    1       25.155 -29.395  10.773  0.00  0.00    -0.325 NA
ATOM      8  H   LIG    1       24.421 -28.693  10.880  0.00  0.00    +0.118 HD
ATOM      9  H   LIG    1       25.765 -29.264  11.591  0.00  0.00    +0.118 HD
ENDBRANCH   2   7
BRANCH   4  10
ATOM     10  N   LIG    1       27.505 -32.402   8.175  0.00  0.00    -0.325 NA
ATOM     11  H   LIG    1       27.257 -33.037   7.414  0.00  0.00    +0.118 HD
ATOM     12  H   LIG    1       27.395 -32.933   9.038  0.00  0.00    +0.118 HD
ENDBRANCH   4  10
BRANCH   6  13
ATOM     13  O   LIG    1       23.344 -30.451   6.994  0.00  0.00    -0.387 OA
ATOM     14  H   LIG    1       23.363 -29.563   6.590  0.00  0.00    +0.210 HD
ENDBRANCH   6  13
BRANCH   1  15
ATOM     15  O   LIG    1       25.788 -28.702   7.156  0.00  0.00    -0.342 OA
BRANCH  15  18
ATOM     16  C   LIG    1       24.204 -25.625   6.019  0.00  0.00    +0.138 C 
ATOM     17  O   LIG    1       24.894 -26.548   6.886  0.00  0.00    -0.345 OA
ATOM     18  C   LIG    1       25.217 -27.775   6.233  0.00  0.00    +0.268 C 
ATOM     19  C   LIG    1       26.200 -27.541   5.046  0.00  0.00    +0.107 C 
ATOM     20  C   LIG    1       25.561 -26.536   4.085  0.00  0.00    +0.026 C 
ATOM     21  C   LIG    1       25.088 -25.279   4.811  0.00  0.00    +0.035 C 
BRANCH  19  22
ATOM     22  N   LIG    1       27.531 -27.056   5.467  0.00  0.00    -0.323 NA
ATOM     23  H   LIG    1       27.930 -27.766   6.089  0.00  0.00    +0.119 HD
ATOM     24  H   LIG    1       28.145 -27.087   4.649  0.00  0.00    +0.119 HD
ENDBRANCH  19  22
BRANCH  16  25
ATOM     25  C   LIG    1       23.829 -24.364   6.861  0.00  0.00    +0.079 C 
ATOM     26  C   LIG    1       24.987 -23.380   7.039  0.00  0.00    +0.026 C 
BRANCH  25  28
ATOM     27  C   LIG    1       22.707 -22.235   6.252  0.00  0.00    +0.101 C 
ATOM     28  N   LIG    1       22.608 -23.681   6.376  0.00  0.00    -0.314 NA
ATOM     29  H   LIG    1       22.367 -24.087   5.469  0.00  0.00    +0.122 HD
ENDBRANCH  25  28
ENDBRANCH  16  25
ENDBRANCH  15  18
ENDBRANCH   1  15
BRANCH   5  30
ATOM     30  O   LIG    1       24.737 -32.146   9.614  0.00  0.00    -0.341 OA
BRANCH  30  31
ATOM     31  C   LIG    1       23.743 -33.175   9.687  0.00  0.00    +0.281 C 
ATOM     32  C   LIG    1       23.445 -33.361  11.207  0.00  0.00    +0.190 C 
ATOM     33  C   LIG    1       22.401 -32.276  11.619  0.00  0.00    +0.121 C 
ATOM     34  C   LIG    1       21.106 -32.498  10.756  0.00  0.00    +0.104 C 
ATOM     35  C   LIG    1       20.424 -31.161  10.458  0.00  0.00    +0.045 C 
ATOM     36  C   LIG    1       21.401 -33.250   9.447  0.00  0.00    +0.199 C 
ATOM     37  O   LIG    1       22.630 -32.815   8.884  0.00  0.00    -0.346 OA
BRANCH  33  38
ATOM     38  N   LIG    1       21.995 -32.238  13.054  0.00  0.00    -0.311 NA
ATOM     39  H   LIG    1       20.957 -32.297  13.085  0.00  0.00    +0.122 HD
ATOM     40  C   LIG    1       22.359 -30.990  13.719  0.00  0.00    +0.101 C 
ENDBRANCH  33  38
BRANCH  32  41
ATOM     41  O   LIG    1       24.655 -33.322  11.967  0.00  0.00    -0.385 OA
ATOM     42  H   LIG    1       24.714 -32.424  12.364  0.00  0.00    +0.210 HD
ENDBRANCH  32  41
BRANCH  34  43
ATOM     43  O   LIG    1       20.172 -33.300  11.503  0.00  0.00    -0.385 OA
ATOM     44  H   LIG    1       20.468 -33.223  12.437  0.00  0.00    +0.210 HD
ENDBRANCH  34  43
ENDBRANCH  30  31
ENDBRANCH   5  30
TORSDOF 13
ENDMDL
MODEL 5
REMARK VINA RESULT:      -5.5      4.552      8.107
REMARK  Name = *****
REMARK                            x       y       z     vdW  Elec       q    Type
REMARK                         _______ _______ _______ _____ _____    ______ ____
ROOT
ATOM      1  C   LIG    1       24.430 -29.573  10.437  0.00  0.00    +0.169 C 
ATOM      2  C   LIG    1       25.582 -29.218  11.431  0.00  0.00    +0.084 C 
ATOM      3  C   LIG    1       26.101 -30.488  12.155  0.00  0.00    +0.042 C 
ATOM      4  C   LIG    1       25.103 -31.661  12.090  0.00  0.00    +0.084 C 
ATOM      5  C   LIG    1       23.657 -31.155  12.353  0.00  0.00    +0.169 C 
ATOM      6  C   LIG    1       23.229 -30.111  11.271  0.00  0.00    +0.175 C 
ENDROOT
BRANCH   2   7
ATOM      7  N   LIG    1       25.170 -28.184  12.396  0.00  0.00    -0.325 NA
ATOM      8  H   LIG    1       24.703 -27.413  11.916  0.00  0.00    +0.118 HD
ATOM      9  H   LIG    1       25.996 -27.758  12.838  0.00  0.00    +0.118 HD
ENDBRANCH   2   7
BRANCH   4  10
ATOM     10  N   LIG    1       25.554 -32.749  12.974  0.00  0.00    -0.325 NA
ATOM     11  H   LIG    1       26.145 -33.394  12.447  0.00  0.00    +0.118 HD
ATOM     12  H   LIG    1       24.745 -33.287  13.281  0.00  0.00    +0.118 HD
ENDBRANCH   4  10
BRANCH   6  13
ATOM     13  O   LIG    1       22.140 -30.597  10.479  0.00  0.00    -0.387 OA
ATOM     14  H   LIG    1       22.526 -31.231   9.847  0.00  0.00    +0.210 HD
ENDBRANCH   6  13
BRANCH   1  15
ATOM     15  O   LIG    1       24.973 -30.500   9.470  0.00  0.00    -0.342 OA
BRANCH  15  18
ATOM     16  C   LIG    1       24.566 -28.619   6.376  0.00  0.00    +0.138 C 
ATOM     17  O   LIG    1       25.021 -28.953   7.703  0.00  0.00    -0.345 OA
ATOM     18  C   LIG    1       24.608 -30.258   8.111  0.00  0.00    +0.268 C 
ATOM     19  C   LIG    1       25.227 -31.357   7.196  0.00  0.00    +0.107 C 
ATOM     20  C   LIG    1       24.824 -31.059   5.750  0.00  0.00    +0.026 C 
ATOM     21  C   LIG    1       25.140 -29.617   5.358  0.00  0.00    +0.035 C 
BRANCH  19  22
ATOM     22  N   LIG    1       26.698 -31.453   7.297  0.00  0.00    -0.323 NA
ATOM     23  H   LIG    1       27.035 -30.563   7.675  0.00  0.00    +0.119 HD
ATOM     24  H   LIG    1       26.914 -32.121   8.041  0.00  0.00    +0.119 HD
ENDBRANCH  19  22
BRANCH  16  25
ATOM     25  C   LIG    1       25.000 -27.149   6.076  0.00  0.00    +0.079 C 
ATOM     26  C   LIG    1       26.085 -27.039   5.002  0.00  0.00    +0.026 C 
BRANCH  25  28
ATOM     27  C   LIG    1       23.937 -24.927   6.383  0.00  0.00    +0.101 C 
ATOM     28  N   LIG    1       23.858 -26.251   5.787  0.00  0.00    -0.314 NA
ATOM     29  H   LIG    1       23.784 -26.166   4.770  0.00  0.00    +0.122 HD
ENDBRANCH  25  28
ENDBRANCH  16  25
ENDBRANCH  15  18
ENDBRANCH   1  15
BRANCH   5  30
ATOM     30  O   LIG    1       23.547 -30.427  13.589  0.00  0.00    -0.341 OA
BRANCH  30  31
ATOM     31  C   LIG    1       22.510 -30.820  14.495  0.00  0.00    +0.281 C 
ATOM     32  C   LIG    1       21.704 -29.519  14.798  0.00  0.00    +0.190 C 
ATOM     33  C   LIG    1       20.670 -29.326  13.645  0.00  0.00    +0.121 C 
ATOM     34  C   LIG    1       19.728 -30.585  13.624  0.00  0.00    +0.104 C 
ATOM     35  C   LIG    1       19.292 -30.905  12.192  0.00  0.00    +0.045 C 
ATOM     36  C   LIG    1       20.387 -31.816  14.270  0.00  0.00    +0.199 C 
ATOM     37  O   LIG    1       21.764 -31.885  13.927  0.00  0.00    -0.346 OA
BRANCH  33  38
ATOM     38  N   LIG    1       19.808 -28.109  13.705  0.00  0.00    -0.311 NA
ATOM     39  H   LIG    1       18.902 -28.348  13.254  0.00  0.00    +0.122 HD
ATOM     40  C   LIG    1       20.358 -26.982  12.959  0.00  0.00    +0.101 C 
ENDBRANCH  33  38
BRANCH  32  41
ATOM     41  O   LIG    1       22.586 -28.410  14.979  0.00  0.00    -0.385 OA
ATOM     42  H   LIG    1       23.091 -28.578  15.807  0.00  0.00    +0.210 HD
ENDBRANCH  32  41
BRANCH  34  43
ATOM     43  O   LIG    1       18.538 -30.296  14.382  0.00  0.00    -0.385 OA
ATOM     44  H   LIG    1       18.732 -29.449  14.839  0.00  0.00    +0.210 HD
ENDBRANCH  34  43
ENDBRANCH  30  31
ENDBRANCH   5  30
TORSDOF 13
ENDMDL
MODEL 6
REMARK VINA RESULT:      -5.4      2.517      3.539
REMARK  Name = *****
REMARK                            x       y       z     vdW  Elec       q    Type
REMARK                         _______ _______ _______ _____ _____    ______ ____
ROOT
ATOM      1  C   LIG    1       26.111 -26.267   6.534  0.00  0.00    +0.169 C 
ATOM      2  C   LIG    1       26.253 -26.908   5.116  0.00  0.00    +0.084 C 
ATOM      3  C   LIG    1       25.028 -27.800   4.785  0.00  0.00    +0.042 C 
ATOM      4  C   LIG    1       24.231 -28.207   6.039  0.00  0.00    +0.084 C 
ATOM      5  C   LIG    1       25.199 -28.615   7.185  0.00  0.00    +0.169 C 
ATOM      6  C   LIG    1       26.124 -27.420   7.582  0.00  0.00    +0.175 C 
ENDROOT
BRANCH   2   7
ATOM      7  N   LIG    1       27.512 -27.661   4.982  0.00  0.00    -0.325 NA
ATOM      8  H   LIG    1       28.027 -27.352   4.155  0.00  0.00    +0.118 HD
ATOM      9  H   LIG    1       27.318 -28.657   4.814  0.00  0.00    +0.118 HD
ENDBRANCH   2   7
BRANCH   4  10
ATOM     10  N   LIG    1       23.224 -29.221   5.683  0.00  0.00    -0.325 NA
ATOM     11  H   LIG    1       22.308 -28.777   5.598  0.00  0.00    +0.118 HD
ATOM     12  H   LIG    1       23.145 -29.896   6.442  0.00  0.00    +0.118 HD
ENDBRANCH   4  10
BRANCH   6  13
ATOM     13  O   LIG    1       25.874 -26.990   8.925  0.00  0.00    -0.387 OA
ATOM     14  H   LIG    1       25.524 -27.768   9.397  0.00  0.00    +0.210 HD
ENDBRANCH   6  13
BRANCH   1  15
ATOM     15  O   LIG    1       24.910 -25.462   6.518  0.00  0.00    -0.342 OA
BRANCH  15  18
ATOM     16  C   LIG    1       26.394 -22.312   7.589  0.00  0.00    +0.138 C 
ATOM     17  O   LIG    1       26.203 -23.527   6.838  0.00  0.00    -0.345 OA
ATOM     18  C   LIG    1       25.000 -24.208   7.195  0.00  0.00    +0.268 C 
ATOM     19  C   LIG    1       23.744 -23.344   6.871  0.00  0.00    +0.107 C 
ATOM     20  C   LIG    1       23.880 -22.007   7.604  0.00  0.00    +0.026 C 
ATOM     21  C   LIG    1       25.229 -21.345   7.330  0.00  0.00    +0.035 C 
BRANCH  19  22
ATOM     22  N   LIG    1       23.546 -23.106   5.427  0.00  0.00    -0.323 NA
ATOM     23  H   LIG    1       22.709 -23.627   5.146  0.00  0.00    +0.119 HD
ATOM     24  H   LIG    1       23.266 -22.129   5.309  0.00  0.00    +0.119 HD
ENDBRANCH  19  22
BRANCH  16  25
ATOM     25  C   LIG    1       27.772 -21.704   7.178  0.00  0.00    +0.079 C 
ATOM     26  C   LIG    1       27.653 -20.457   6.297  0.00  0.00    +0.026 C 
BRANCH  25  28
ATOM     27  C   LIG    1       29.916 -20.777   8.020  0.00  0.00    +0.101 C 
ATOM     28  N   LIG    1       28.675 -21.470   8.329  0.00  0.00    -0.314 NA
ATOM     29  H   LIG    1       28.150 -20.940   9.028  0.00  0.00    +0.122 HD
ENDBRANCH  25  28
ENDBRANCH  16  25
ENDBRANCH  15  18
ENDBRANCH   1  15
BRANCH   5  30
ATOM     30  O   LIG    1       26.124 -29.640   6.782  0.00  0.00    -0.341 OA
BRANCH  30  31
ATOM     31  C   LIG    1       25.864 -30.976   7.230  0.00  0.00    +0.281 C 
ATOM     32  C   LIG    1       26.342 -31.021   8.714  0.00  0.00    +0.190 C 
ATOM     33  C   LIG    1       25.183 -30.463   9.599  0.00  0.00    +0.121 C 
ATOM     34  C   LIG    1       23.923 -31.377   9.381  0.00  0.00    +0.104 C 
ATOM     35  C   LIG    1       22.637 -30.554   9.483  0.00  0.00    +0.045 C 
ATOM     36  C   LIG    1       23.973 -32.125   8.037  0.00  0.00    +0.199 C 
ATOM     37  O   LIG    1       24.496 -31.288   7.016  0.00  0.00    -0.346 OA
BRANCH  33  38
ATOM     38  N   LIG    1       25.435 -30.372  11.067  0.00  0.00    -0.311 NA
ATOM     39  H   LIG    1       24.692 -30.919  11.544  0.00  0.00    +0.122 HD
ATOM     40  C   LIG    1       25.341 -29.009  11.580  0.00  0.00    +0.101 C 
ENDBRANCH  33  38
BRANCH  32  41
ATOM     41  O   LIG    1       27.579 -30.322   8.867  0.00  0.00    -0.385 OA
ATOM     42  H   LIG    1       27.604 -29.631   8.168  0.00  0.00    +0.210 HD
ENDBRANCH  32  41
BRANCH  34  43
ATOM     43  O   LIG    1       23.879 -32.375  10.419  0.00  0.00    -0.385 OA
ATOM     44  H   LIG    1       24.699 -32.230  10.940  0.00  0.00    +0.210 HD
ENDBRANCH  34  43
ENDBRANCH  30  31
ENDBRANCH   5  30
TORSDOF 13
ENDMDL
MODEL 7
REMARK VINA RESULT:      -5.3      2.958      5.593
REMARK  Name = *****
REMARK                            x       y       z     vdW  Elec       q    Type
REMARK                         _______ _______ _______ _____ _____    ______ ____
ROOT
ATOM      1  C   LIG    1       25.363 -29.301   6.894  0.00  0.00    +0.169 C 
ATOM      2  C   LIG    1       25.226 -30.847   6.714  0.00  0.00    +0.084 C 
ATOM      3  C   LIG    1       24.100 -31.414   7.618  0.00  0.00    +0.042 C 
ATOM      4  C   LIG    1       23.722 -30.460   8.768  0.00  0.00    +0.084 C 
ATOM      5  C   LIG    1       25.003 -29.857   9.411  0.00  0.00    +0.169 C 
ATOM      6  C   LIG    1       25.815 -29.031   8.361  0.00  0.00    +0.175 C 
ENDROOT
BRANCH   2   7
ATOM      7  N   LIG    1       26.503 -31.540   6.955  0.00  0.00    -0.325 NA
ATOM      8  H   LIG    1       26.941 -31.800   6.069  0.00  0.00    +0.118 HD
ATOM      9  H   LIG    1       26.340 -32.432   7.440  0.00  0.00    +0.118 HD
ENDBRANCH   2   7
BRANCH   4  10
ATOM     10  N   LIG    1       22.817 -31.144   9.706  0.00  0.00    -0.325 NA
ATOM     11  H   LIG    1       21.968 -31.431   9.214  0.00  0.00    +0.118 HD
ATOM     12  H   LIG    1       22.521 -30.486  10.426  0.00  0.00    +0.118 HD
ENDBRANCH   4  10
BRANCH   6  13
ATOM     13  O   LIG    1       25.861 -27.643   8.711  0.00  0.00    -0.387 OA
ATOM     14  H   LIG    1       25.815 -27.608   9.685  0.00  0.00    +0.210 HD
ENDBRANCH   6  13
BRANCH   1  15
ATOM     15  O   LIG    1       24.095 -28.715   6.522  0.00  0.00    -0.342 OA
BRANCH  15  18
ATOM     16  C   LIG    1       23.956 -25.147   5.801  0.00  0.00    +0.138 C 
ATOM     17  O   LIG    1       24.005 -26.369   6.564  0.00  0.00    -0.345 OA
ATOM     18  C   LIG    1       24.173 -27.523   5.740  0.00  0.00    +0.268 C 
ATOM     19  C   LIG    1       25.533 -27.480   4.980  0.00  0.00    +0.107 C 
ATOM     20  C   LIG    1       25.585 -26.186   4.164  0.00  0.00    +0.026 C 
ATOM     21  C   LIG    1       25.267 -24.962   5.020  0.00  0.00    +0.035 C 
BRANCH  19  22
ATOM     22  N   LIG    1       26.711 -27.561   5.868  0.00  0.00    -0.323 NA
ATOM     23  H   LIG    1       26.494 -27.020   6.711  0.00  0.00    +0.119 HD
ATOM     24  H   LIG    1       26.773 -28.522   6.214  0.00  0.00    +0.119 HD
ENDBRANCH  19  22
BRANCH  16  25
ATOM     25  C   LIG    1       23.685 -23.971   6.792  0.00  0.00    +0.079 C 
ATOM     26  C   LIG    1       24.939 -23.168   7.147  0.00  0.00    +0.026 C 
BRANCH  25  28
ATOM     27  C   LIG    1       22.960 -21.718   6.043  0.00  0.00    +0.101 C 
ATOM     28  N   LIG    1       22.580 -23.086   6.359  0.00  0.00    -0.314 NA
ATOM     29  H   LIG    1       22.141 -23.517   5.542  0.00  0.00    +0.122 HD
ENDBRANCH  25  28
ENDBRANCH  16  25
ENDBRANCH  15  18
ENDBRANCH   1  15
BRANCH   5  30
ATOM     30  O   LIG    1       25.931 -30.869   9.837  0.00  0.00    -0.341 OA
BRANCH  30  31
ATOM     31  C   LIG    1       25.990 -31.162  11.239  0.00  0.00    +0.281 C 
ATOM     32  C   LIG    1       27.066 -30.197  11.824  0.00  0.00    +0.190 C 
ATOM     33  C   LIG    1       26.369 -28.829  12.105  0.00  0.00    +0.121 C 
ATOM     34  C   LIG    1       25.210 -29.078  13.137  0.00  0.00    +0.104 C 
ATOM     35  C   LIG    1       24.040 -28.128  12.871  0.00  0.00    +0.045 C 
ATOM     36  C   LIG    1       24.726 -30.538  13.126  0.00  0.00    +0.199 C 
ATOM     37  O   LIG    1       24.692 -31.046  11.800  0.00  0.00    -0.346 OA
BRANCH  33  38
ATOM     38  N   LIG    1       27.227 -27.728  12.635  0.00  0.00    -0.311 NA
ATOM     39  H   LIG    1       27.127 -27.728  13.670  0.00  0.00    +0.122 HD
ATOM     40  C   LIG    1       26.808 -26.407  12.178  0.00  0.00    +0.101 C 
ENDBRANCH  33  38
BRANCH  32  41
ATOM     41  O   LIG    1       28.192 -30.107  10.949  0.00  0.00    -0.385 OA
ATOM     42  H   LIG    1       28.984 -29.971  11.516  0.00  0.00    +0.210 HD
ENDBRANCH  32  41
BRANCH  34  43
ATOM     43  O   LIG    1       25.694 -28.803  14.465  0.00  0.00    -0.385 OA
ATOM     44  H   LIG    1       26.417 -29.453  14.608  0.00  0.00    +0.210 HD
ENDBRANCH  34  43
ENDBRANCH  30  31
ENDBRANCH   5  30
TORSDOF 13
ENDMDL
MODEL 8
REMARK VINA RESULT:      -5.2      6.347     10.125
REMARK  Name = *****
REMARK                            x       y       z     vdW  Elec       q    Type
REMARK                         _______ _______ _______ _____ _____    ______ ____
ROOT
ATOM      1  C   LIG    1       20.757 -30.807  13.136  0.00  0.00    +0.169 C 
ATOM      2  C   LIG    1       20.796 -29.684  12.049  0.00  0.00    +0.084 C 
ATOM      3  C   LIG    1       21.109 -30.276  10.651  0.00  0.00    +0.042 C 
ATOM      4  C   LIG    1       21.745 -31.678  10.725  0.00  0.00    +0.084 C 
ATOM      5  C   LIG    1       22.822 -31.723  11.845  0.00  0.00    +0.169 C 
ATOM      6  C   LIG    1       22.186 -31.420  13.240  0.00  0.00    +0.175 C 
ENDROOT
BRANCH   2   7
ATOM      7  N   LIG    1       21.748 -28.617  12.403  0.00  0.00    -0.325 NA
ATOM      8  H   LIG    1       21.703 -28.416  13.403  0.00  0.00    +0.118 HD
ATOM      9  H   LIG    1       21.483 -27.735  11.944  0.00  0.00    +0.118 HD
ENDBRANCH   2   7
BRANCH   4  10
ATOM     10  N   LIG    1       22.215 -32.084   9.390  0.00  0.00    -0.325 NA
ATOM     11  H   LIG    1       22.214 -31.275   8.766  0.00  0.00    +0.118 HD
ATOM     12  H   LIG    1       21.557 -32.753   8.992  0.00  0.00    +0.118 HD
ENDBRANCH   4  10
BRANCH   6  13
ATOM     13  O   LIG    1       22.273 -32.552  14.111  0.00  0.00    -0.387 OA
ATOM     14  H   LIG    1       22.560 -33.300  13.555  0.00  0.00    +0.210 HD
ENDBRANCH   6  13
BRANCH   1  15
ATOM     15  O   LIG    1       19.715 -31.734  12.751  0.00  0.00    -0.342 OA
BRANCH  15  18
ATOM     16  C   LIG    1       17.092 -29.824  14.409  0.00  0.00    +0.138 C 
ATOM     17  O   LIG    1       18.345 -30.112  13.755  0.00  0.00    -0.345 OA
ATOM     18  C   LIG    1       18.419 -31.457  13.281  0.00  0.00    +0.268 C 
ATOM     19  C   LIG    1       17.337 -31.732  12.194  0.00  0.00    +0.107 C 
ATOM     20  C   LIG    1       15.964 -31.415  12.793  0.00  0.00    +0.026 C 
ATOM     21  C   LIG    1       15.929 -30.025  13.425  0.00  0.00    +0.035 C 
BRANCH  19  22
ATOM     22  N   LIG    1       17.534 -30.956  10.952  0.00  0.00    -0.323 NA
ATOM     23  H   LIG    1       17.405 -29.967  11.188  0.00  0.00    +0.119 HD
ATOM     24  H   LIG    1       18.525 -31.012  10.706  0.00  0.00    +0.119 HD
ENDBRANCH  19  22
BRANCH  16  25
ATOM     25  C   LIG    1       17.161 -28.364  14.957  0.00  0.00    +0.079 C 
ATOM     26  C   LIG    1       18.424 -27.610  14.534  0.00  0.00    +0.026 C 
BRANCH  25  28
ATOM     27  C   LIG    1       15.841 -26.302  15.369  0.00  0.00    +0.101 C 
ATOM     28  N   LIG    1       15.940 -27.575  14.673  0.00  0.00    -0.314 NA
ATOM     29  H   LIG    1       15.903 -27.418  13.663  0.00  0.00    +0.122 HD
ENDBRANCH  25  28
ENDBRANCH  16  25
ENDBRANCH  15  18
ENDBRANCH   1  15
BRANCH   5  30
ATOM     30  O   LIG    1       23.814 -30.693  11.693  0.00  0.00    -0.341 OA
BRANCH  30  31
ATOM     31  C   LIG    1       25.170 -31.031  12.012  0.00  0.00    +0.281 C 
ATOM     32  C   LIG    1       25.963 -30.883  10.677  0.00  0.00    +0.190 C 
ATOM     33  C   LIG    1       26.341 -29.377  10.519  0.00  0.00    +0.121 C 
ATOM     34  C   LIG    1       27.224 -28.966  11.752  0.00  0.00    +0.104 C 
ATOM     35  C   LIG    1       26.968 -27.507  12.136  0.00  0.00    +0.045 C 
ATOM     36  C   LIG    1       26.994 -29.886  12.964  0.00  0.00    +0.199 C 
ATOM     37  O   LIG    1       25.619 -30.220  13.086  0.00  0.00    -0.346 OA
BRANCH  33  38
ATOM     38  N   LIG    1       27.076 -28.989   9.279  0.00  0.00    -0.311 NA
ATOM     39  H   LIG    1       27.890 -28.411   9.568  0.00  0.00    +0.122 HD
ATOM     40  C   LIG    1       26.280 -28.163   8.376  0.00  0.00    +0.101 C 
ENDBRANCH  33  38
BRANCH  32  41
ATOM     41  O   LIG    1       25.213 -31.412   9.582  0.00  0.00    -0.385 OA
ATOM     42  H   LIG    1       25.793 -32.063   9.126  0.00  0.00    +0.210 HD
ENDBRANCH  32  41
BRANCH  34  43
ATOM     43  O   LIG    1       28.615 -29.079  11.395  0.00  0.00    -0.385 OA
ATOM     44  H   LIG    1       28.754 -30.037  11.230  0.00  0.00    +0.210 HD
ENDBRANCH  34  43
ENDBRANCH  30  31
ENDBRANCH   5  30
TORSDOF 13
ENDMDL
MODEL 9
REMARK VINA RESULT:      -5.2      3.626      7.804
REMARK  Name = *****
REMARK                            x       y       z     vdW  Elec       q    Type
REMARK                         _______ _______ _______ _____ _____    ______ ____
ROOT
ATOM      1  C   LIG    1       25.316 -29.825  10.118  0.00  0.00    +0.169 C 
ATOM      2  C   LIG    1       24.218 -30.868   9.729  0.00  0.00    +0.084 C 
ATOM      3  C   LIG    1       24.824 -32.028   8.897  0.00  0.00    +0.042 C 
ATOM      4  C   LIG    1       26.187 -31.667   8.276  0.00  0.00    +0.084 C 
ATOM      5  C   LIG    1       26.148 -30.229   7.686  0.00  0.00    +0.169 C 
ATOM      6  C   LIG    1       25.847 -29.179   8.804  0.00  0.00    +0.175 C 
ENDROOT
BRANCH   2   7
ATOM      7  N   LIG    1       23.092 -30.235   9.020  0.00  0.00    -0.325 NA
ATOM      8  H   LIG    1       22.208 -30.465   9.477  0.00  0.00    +0.118 HD
ATOM      9  H   LIG    1       23.006 -30.619   8.070  0.00  0.00    +0.118 HD
ENDBRANCH   2   7
BRANCH   4  10
ATOM     10  N   LIG    1       26.598 -32.718   7.330  0.00  0.00    -0.325 NA
ATOM     11  H   LIG    1       25.827 -32.924   6.692  0.00  0.00    +0.118 HD
ATOM     12  H   LIG    1       26.782 -33.578   7.844  0.00  0.00    +0.118 HD
ENDBRANCH   4  10
BRANCH   6  13
ATOM     13  O   LIG    1       26.952 -28.290   8.996  0.00  0.00    -0.387 OA
ATOM     14  H   LIG    1       26.804 -27.539   8.391  0.00  0.00    +0.210 HD
ENDBRANCH   6  13
BRANCH   1  15
ATOM     15  O   LIG    1       26.306 -30.526  10.905  0.00  0.00    -0.342 OA
BRANCH  15  18
ATOM     16  C   LIG    1       26.973 -27.676  13.075  0.00  0.00    +0.138 C 
ATOM     17  O   LIG    1       26.401 -28.451  12.002  0.00  0.00    -0.345 OA
ATOM     18  C   LIG    1       26.794 -29.824  12.048  0.00  0.00    +0.268 C 
ATOM     19  C   LIG    1       26.281 -30.514  13.348  0.00  0.00    +0.107 C 
ATOM     20  C   LIG    1       26.813 -29.729  14.549  0.00  0.00    +0.026 C 
ATOM     21  C   LIG    1       26.513 -28.236  14.430  0.00  0.00    +0.035 C 
BRANCH  19  22
ATOM     22  N   LIG    1       24.809 -30.612  13.425  0.00  0.00    -0.323 NA
ATOM     23  H   LIG    1       24.531 -31.437  12.885  0.00  0.00    +0.119 HD
ATOM     24  H   LIG    1       24.565 -30.865  14.385  0.00  0.00    +0.119 HD
ENDBRANCH  19  22
BRANCH  16  25
ATOM     25  C   LIG    1       26.547 -26.188  12.872  0.00  0.00    +0.079 C 
ATOM     26  C   LIG    1       25.252 -25.817  13.600  0.00  0.00    +0.026 C 
BRANCH  25  28
ATOM     27  C   LIG    1       27.612 -24.655  14.509  0.00  0.00    +0.101 C 
ATOM     28  N   LIG    1       27.631 -25.224  13.170  0.00  0.00    -0.314 NA
ATOM     29  H   LIG    1       28.520 -25.703  13.014  0.00  0.00    +0.122 HD
ENDBRANCH  25  28
ENDBRANCH  16  25
ENDBRANCH  15  18
ENDBRANCH   1  15
BRANCH   5  30
ATOM     30  O   LIG    1       25.069 -30.049   6.752  0.00  0.00    -0.341 OA
BRANCH  30  31
ATOM     31  C   LIG    1       25.392 -29.499   5.469  0.00  0.00    +0.281 C 
ATOM     32  C   LIG    1       24.204 -28.556   5.106  0.00  0.00    +0.190 C 
ATOM     33  C   LIG    1       24.466 -27.181   5.798  0.00  0.00    +0.121 C 
ATOM     34  C   LIG    1       25.827 -26.615   5.252  0.00  0.00    +0.104 C 
ATOM     35  C   LIG    1       26.550 -25.815   6.338  0.00  0.00    +0.045 C 
ATOM     36  C   LIG    1       26.742 -27.725   4.707  0.00  0.00    +0.199 C 
ATOM     37  O   LIG    1       26.669 -28.883   5.527  0.00  0.00    -0.346 OA
BRANCH  33  38
ATOM     38  N   LIG    1       23.426 -26.126   5.622  0.00  0.00    -0.311 NA
ATOM     39  H   LIG    1       23.508 -25.768   4.649  0.00  0.00    +0.122 HD
ATOM     40  C   LIG    1       23.620 -24.979   6.504  0.00  0.00    +0.101 C 
ENDBRANCH  33  38
BRANCH  32  41
ATOM     41  O   LIG    1       22.957 -29.157   5.459  0.00  0.00    -0.385 OA
ATOM     42  H   LIG    1       22.248 -28.569   5.112  0.00  0.00    +0.210 HD
ENDBRANCH  32  41
BRANCH  34  43
ATOM     43  O   LIG    1       25.559 -25.715   4.160  0.00  0.00    -0.385 OA
ATOM     44  H   LIG    1       26.036 -24.889   4.395  0.00  0.00    +0.210 HD
ENDBRANCH  34  43
ENDBRANCH  30  31
ENDBRANCH   5  30
TORSDOF 13
ENDMDL
