MODEL 1
REMARK VINA RESULT:     -10.4      0.000      0.000
REMARK  Name = *****
REMARK                            x       y       z     vdW  Elec       q    Type
REMARK                         _______ _______ _______ _____ _____    ______ ____
ROOT
ATOM      1  C   LIG    1       25.561 -27.974   5.707  0.00  0.00    +0.129 A 
ATOM      2  C   LIG    1       26.595 -27.045   5.819  0.00  0.00    +0.048 A 
ATOM      3  C   LIG    1       26.323 -25.700   6.129  0.00  0.00    +0.027 A 
ATOM      4  C   LIG    1       25.010 -25.222   6.255  0.00  0.00    +0.034 A 
ATOM      5  C   LIG    1       23.974 -26.132   5.994  0.00  0.00    +0.027 A 
ATOM      6  C   LIG    1       24.246 -27.502   5.735  0.00  0.00    +0.048 A 
ENDROOT
BRANCH   4   7
ATOM      7  N   LIG    1       24.851 -23.854   6.644  0.00  0.00    -0.285 N 
ATOM      8  H   LIG    1       24.822 -23.678   7.642  0.00  0.00    +0.155 HD
ATOM      9  C   LIG    1       24.724 -22.736   5.822  0.00  0.00    +0.232 C 
ATOM     10  O   LIG    1       24.705 -22.751   4.605  0.00  0.00    -0.274 OA
BRANCH   9  11
ATOM     11  C   LIG    1       24.613 -21.379   6.542  0.00  0.00    +0.123 C 
ATOM     12  C   LIG    1       23.519 -20.424   6.002  0.00  0.00    +0.027 C 
ATOM     13  C   LIG    1       23.329 -21.057   7.338  0.00  0.00    +0.027 C 
BRANCH  11  14
ATOM     14  C   LIG    1       25.874 -20.741   7.076  0.00  0.00    +0.232 C 
ATOM     15  N   LIG    1       26.955 -20.800   6.242  0.00  0.00    -0.285 N 
ATOM     16  H   LIG    1       26.885 -21.443   5.451  0.00  0.00    +0.155 HD
ATOM     17  O   LIG    1       25.843 -20.245   8.222  0.00  0.00    -0.274 OA
BRANCH  15  18
ATOM     18  C   LIG    1       28.255 -20.276   6.460  0.00  0.00    +0.034 A 
ATOM     19  C   LIG    1       29.052 -20.915   7.417  0.00  0.00    +0.026 A 
ATOM     20  C   LIG    1       30.296 -20.395   7.784  0.00  0.00    +0.040 A 
ATOM     21  C   LIG    1       30.766 -19.249   7.160  0.00  0.00    +0.123 A 
ATOM     22  F   LIG    1       31.937 -18.721   7.542  0.00  0.00    -0.205 F 
ATOM     23  C   LIG    1       30.033 -18.646   6.144  0.00  0.00    +0.040 A 
ATOM     24  C   LIG    1       28.775 -19.163   5.785  0.00  0.00    +0.026 A 
ENDBRANCH  15  18
ENDBRANCH  11  14
ENDBRANCH   9  11
ENDBRANCH   4   7
BRANCH   1  25
ATOM     25  O   LIG    1       25.799 -29.338   5.571  0.00  0.00    -0.455 OA
BRANCH  25  34
ATOM     26  C   LIG    1       24.895 -30.100  10.587  0.00  0.00    +0.164 A 
ATOM     27  C   LIG    1       25.747 -29.217   9.914  0.00  0.00    +0.162 A 
ATOM     28  C   LIG    1       25.779 -29.213   8.509  0.00  0.00    +0.063 A 
ATOM     29  C   LIG    1       25.013 -30.130   7.748  0.00  0.00    +0.046 A 
ATOM     30  C   LIG    1       24.175 -31.034   8.447  0.00  0.00    +0.078 A 
ATOM     31  N   LIG    1       23.393 -31.929   7.827  0.00  0.00    -0.255 NA
ATOM     32  C   LIG    1       23.458 -32.016   6.486  0.00  0.00    +0.115 A 
ATOM     33  C   LIG    1       24.284 -31.236   5.709  0.00  0.00    +0.066 A 
ATOM     34  C   LIG    1       25.022 -30.225   6.326  0.00  0.00    +0.139 A 
ATOM     35  C   LIG    1       24.140 -31.008   9.836  0.00  0.00    +0.077 A 
BRANCH  26  37
ATOM     36  C   LIG    1       23.712 -29.442  12.556  0.00  0.00    +0.277 C 
ATOM     37  O   LIG    1       24.750 -30.215  11.951  0.00  0.00    -0.491 OA
ENDBRANCH  26  37
BRANCH  27  38
ATOM     38  O   LIG    1       26.474 -28.341  10.665  0.00  0.00    -0.491 OA
ATOM     39  C   LIG    1       27.671 -28.807  11.262  0.00  0.00    +0.277 C 
ENDBRANCH  27  38
ENDBRANCH  25  34
ENDBRANCH   1  25
TORSDOF 8
ENDMDL
MODEL 2
REMARK VINA RESULT:      -9.9      1.860      2.868
REMARK  Name = *****
REMARK                            x       y       z     vdW  Elec       q    Type
REMARK                         _______ _______ _______ _____ _____    ______ ____
ROOT
ATOM      1  C   LIG    1       25.360 -27.674   6.716  0.00  0.00    +0.129 A 
ATOM      2  C   LIG    1       26.435 -26.787   6.709  0.00  0.00    +0.048 A 
ATOM      3  C   LIG    1       26.272 -25.463   6.261  0.00  0.00    +0.027 A 
ATOM      4  C   LIG    1       25.056 -25.008   5.729  0.00  0.00    +0.034 A 
ATOM      5  C   LIG    1       24.025 -25.951   5.602  0.00  0.00    +0.027 A 
ATOM      6  C   LIG    1       24.169 -27.272   6.105  0.00  0.00    +0.048 A 
ENDROOT
BRANCH   4   7
ATOM      7  N   LIG    1       24.981 -23.625   5.372  0.00  0.00    -0.285 N 
ATOM      8  H   LIG    1       25.438 -23.366   4.505  0.00  0.00    +0.155 HD
ATOM      9  C   LIG    1       24.366 -22.588   6.072  0.00  0.00    +0.232 C 
ATOM     10  O   LIG    1       23.797 -22.698   7.143  0.00  0.00    -0.274 OA
BRANCH   9  11
ATOM     11  C   LIG    1       24.416 -21.202   5.404  0.00  0.00    +0.123 C 
ATOM     12  C   LIG    1       23.439 -20.995   4.218  0.00  0.00    +0.027 C 
ATOM     13  C   LIG    1       23.180 -20.280   5.500  0.00  0.00    +0.027 C 
BRANCH  11  14
ATOM     14  C   LIG    1       25.744 -20.485   5.328  0.00  0.00    +0.232 C 
ATOM     15  N   LIG    1       26.658 -20.851   6.276  0.00  0.00    -0.285 N 
ATOM     16  H   LIG    1       26.303 -21.395   7.065  0.00  0.00    +0.155 HD
ATOM     17  O   LIG    1       25.893 -19.615   4.445  0.00  0.00    -0.274 OA
BRANCH  15  18
ATOM     18  C   LIG    1       27.982 -20.371   6.441  0.00  0.00    +0.034 A 
ATOM     19  C   LIG    1       28.778 -21.004   7.404  0.00  0.00    +0.026 A 
ATOM     20  C   LIG    1       30.051 -20.519   7.718  0.00  0.00    +0.040 A 
ATOM     21  C   LIG    1       30.548 -19.418   7.037  0.00  0.00    +0.123 A 
ATOM     22  F   LIG    1       31.749 -18.923   7.369  0.00  0.00    -0.205 F 
ATOM     23  C   LIG    1       29.813 -18.827   6.016  0.00  0.00    +0.040 A 
ATOM     24  C   LIG    1       28.527 -19.307   5.709  0.00  0.00    +0.026 A 
ENDBRANCH  15  18
ENDBRANCH  11  14
ENDBRANCH   9  11
ENDBRANCH   4   7
BRANCH   1  25
ATOM     25  O   LIG    1       25.437 -28.932   7.307  0.00  0.00    -0.455 OA
BRANCH  25  34
ATOM     26  C   LIG    1       23.095 -31.267  11.259  0.00  0.00    +0.164 A 
ATOM     27  C   LIG    1       22.784 -31.197   9.897  0.00  0.00    +0.162 A 
ATOM     28  C   LIG    1       23.627 -30.490   9.024  0.00  0.00    +0.063 A 
ATOM     29  C   LIG    1       24.761 -29.784   9.498  0.00  0.00    +0.046 A 
ATOM     30  C   LIG    1       25.046 -29.844  10.884  0.00  0.00    +0.078 A 
ATOM     31  N   LIG    1       26.103 -29.231  11.437  0.00  0.00    -0.255 NA
ATOM     32  C   LIG    1       26.887 -28.473  10.649  0.00  0.00    +0.115 A 
ATOM     33  C   LIG    1       26.668 -28.288   9.304  0.00  0.00    +0.066 A 
ATOM     34  C   LIG    1       25.639 -29.005   8.690  0.00  0.00    +0.139 A 
ATOM     35  C   LIG    1       24.213 -30.568  11.729  0.00  0.00    +0.077 A 
BRANCH  26  37
ATOM     36  C   LIG    1       22.906 -33.163  12.700  0.00  0.00    +0.277 C 
ATOM     37  O   LIG    1       22.373 -31.924  12.230  0.00  0.00    -0.491 OA
ENDBRANCH  26  37
BRANCH  27  38
ATOM     38  O   LIG    1       21.690 -31.886   9.460  0.00  0.00    -0.491 OA
ATOM     39  C   LIG    1       21.863 -33.238   9.074  0.00  0.00    +0.277 C 
ENDBRANCH  27  38
ENDBRANCH  25  34
ENDBRANCH   1  25
TORSDOF 8
ENDMDL
MODEL 3
REMARK VINA RESULT:      -9.9      1.458      1.932
REMARK  Name = *****
REMARK                            x       y       z     vdW  Elec       q    Type
REMARK                         _______ _______ _______ _____ _____    ______ ____
ROOT
ATOM      1  C   LIG    1       24.502 -28.027   5.611  0.00  0.00    +0.129 A 
ATOM      2  C   LIG    1       24.075 -27.143   6.601  0.00  0.00    +0.048 A 
ATOM      3  C   LIG    1       24.346 -25.766   6.502  0.00  0.00    +0.027 A 
ATOM      4  C   LIG    1       25.121 -25.240   5.458  0.00  0.00    +0.034 A 
ATOM      5  C   LIG    1       25.671 -26.156   4.550  0.00  0.00    +0.027 A 
ATOM      6  C   LIG    1       25.353 -27.540   4.616  0.00  0.00    +0.048 A 
ENDROOT
BRANCH   4   7
ATOM      7  N   LIG    1       25.272 -23.818   5.416  0.00  0.00    -0.285 N 
ATOM      8  H   LIG    1       26.112 -23.474   4.965  0.00  0.00    +0.155 HD
ATOM      9  C   LIG    1       24.411 -22.846   5.924  0.00  0.00    +0.232 C 
ATOM     10  O   LIG    1       23.373 -23.064   6.522  0.00  0.00    -0.274 OA
BRANCH   9  11
ATOM     11  C   LIG    1       24.827 -21.384   5.681  0.00  0.00    +0.123 C 
ATOM     12  C   LIG    1       24.683 -20.881   4.222  0.00  0.00    +0.027 C 
ATOM     13  C   LIG    1       23.751 -20.359   5.261  0.00  0.00    +0.027 C 
BRANCH  11  14
ATOM     14  C   LIG    1       25.970 -20.816   6.490  0.00  0.00    +0.232 C 
ATOM     15  N   LIG    1       27.192 -20.857   5.879  0.00  0.00    -0.285 N 
ATOM     16  H   LIG    1       27.267 -21.449   5.050  0.00  0.00    +0.155 HD
ATOM     17  O   LIG    1       25.724 -20.389   7.637  0.00  0.00    -0.274 OA
BRANCH  15  18
ATOM     18  C   LIG    1       28.433 -20.385   6.378  0.00  0.00    +0.034 A 
ATOM     19  C   LIG    1       29.033 -21.124   7.405  0.00  0.00    +0.026 A 
ATOM     20  C   LIG    1       30.192 -20.667   8.039  0.00  0.00    +0.040 A 
ATOM     21  C   LIG    1       30.779 -19.484   7.616  0.00  0.00    +0.123 A 
ATOM     22  F   LIG    1       31.863 -19.020   8.253  0.00  0.00    -0.205 F 
ATOM     23  C   LIG    1       30.252 -18.778   6.541  0.00  0.00    +0.040 A 
ATOM     24  C   LIG    1       29.078 -19.232   5.912  0.00  0.00    +0.026 A 
ENDBRANCH  15  18
ENDBRANCH  11  14
ENDBRANCH   9  11
ENDBRANCH   4   7
BRANCH   1  25
ATOM     25  O   LIG    1       24.110 -29.362   5.586  0.00  0.00    -0.455 OA
BRANCH  25  34
ATOM     26  C   LIG    1       25.625 -31.276  10.124  0.00  0.00    +0.164 A 
ATOM     27  C   LIG    1       24.734 -30.249   9.793  0.00  0.00    +0.162 A 
ATOM     28  C   LIG    1       24.492 -29.944   8.443  0.00  0.00    +0.063 A 
ATOM     29  C   LIG    1       25.178 -30.610   7.398  0.00  0.00    +0.046 A 
ATOM     30  C   LIG    1       26.095 -31.630   7.752  0.00  0.00    +0.078 A 
ATOM     31  N   LIG    1       26.783 -32.338   6.844  0.00  0.00    -0.255 NA
ATOM     32  C   LIG    1       26.643 -32.019   5.545  0.00  0.00    +0.115 A 
ATOM     33  C   LIG    1       25.833 -31.006   5.090  0.00  0.00    +0.066 A 
ATOM     34  C   LIG    1       25.026 -30.331   6.008  0.00  0.00    +0.139 A 
ATOM     35  C   LIG    1       26.305 -31.933   9.093  0.00  0.00    +0.077 A 
BRANCH  26  37
ATOM     36  C   LIG    1       25.198 -32.772  11.937  0.00  0.00    +0.277 C 
ATOM     37  O   LIG    1       25.958 -31.691  11.393  0.00  0.00    -0.491 OA
ENDBRANCH  26  37
BRANCH  27  38
ATOM     38  O   LIG    1       24.082 -29.622  10.814  0.00  0.00    -0.491 OA
ATOM     39  C   LIG    1       22.754 -30.019  11.101  0.00  0.00    +0.277 C 
ENDBRANCH  27  38
ENDBRANCH  25  34
ENDBRANCH   1  25
TORSDOF 8
ENDMDL
MODEL 4
REMARK VINA RESULT:      -9.3      1.815      2.517
REMARK  Name = *****
REMARK                            x       y       z     vdW  Elec       q    Type
REMARK                         _______ _______ _______ _____ _____    ______ ____
ROOT
ATOM      1  C   LIG    1       25.426 -27.627   6.917  0.00  0.00    +0.129 A 
ATOM      2  C   LIG    1       26.522 -26.792   6.708  0.00  0.00    +0.048 A 
ATOM      3  C   LIG    1       26.354 -25.505   6.168  0.00  0.00    +0.027 A 
ATOM      4  C   LIG    1       25.100 -25.041   5.741  0.00  0.00    +0.034 A 
ATOM      5  C   LIG    1       24.029 -25.944   5.818  0.00  0.00    +0.027 A 
ATOM      6  C   LIG    1       24.186 -27.224   6.414  0.00  0.00    +0.048 A 
ENDROOT
BRANCH   4   7
ATOM      7  N   LIG    1       25.031 -23.691   5.275  0.00  0.00    -0.285 N 
ATOM      8  H   LIG    1       25.485 -23.505   4.388  0.00  0.00    +0.155 HD
ATOM      9  C   LIG    1       24.426 -22.597   5.893  0.00  0.00    +0.232 C 
ATOM     10  O   LIG    1       23.862 -22.618   6.972  0.00  0.00    -0.274 OA
BRANCH   9  11
ATOM     11  C   LIG    1       24.480 -21.269   5.116  0.00  0.00    +0.123 C 
ATOM     12  C   LIG    1       23.629 -21.216   3.822  0.00  0.00    +0.027 C 
ATOM     13  C   LIG    1       23.198 -20.415   5.003  0.00  0.00    +0.027 C 
BRANCH  11  14
ATOM     14  C   LIG    1       25.773 -20.486   5.116  0.00  0.00    +0.232 C 
ATOM     15  N   LIG    1       26.687 -20.871   6.057  0.00  0.00    -0.285 N 
ATOM     16  H   LIG    1       26.344 -21.483   6.800  0.00  0.00    +0.155 HD
ATOM     17  O   LIG    1       25.894 -19.552   4.296  0.00  0.00    -0.274 OA
BRANCH  15  18
ATOM     18  C   LIG    1       27.982 -20.340   6.282  0.00  0.00    +0.034 A 
ATOM     19  C   LIG    1       28.792 -20.999   7.216  0.00  0.00    +0.026 A 
ATOM     20  C   LIG    1       30.033 -20.476   7.589  0.00  0.00    +0.040 A 
ATOM     21  C   LIG    1       30.487 -19.308   6.994  0.00  0.00    +0.123 A 
ATOM     22  F   LIG    1       31.655 -18.779   7.385  0.00  0.00    -0.205 F 
ATOM     23  C   LIG    1       29.741 -18.684   6.001  0.00  0.00    +0.040 A 
ATOM     24  C   LIG    1       28.487 -19.203   5.635  0.00  0.00    +0.026 A 
ENDBRANCH  15  18
ENDBRANCH  11  14
ENDBRANCH   9  11
ENDBRANCH   4   7
BRANCH   1  25
ATOM     25  O   LIG    1       25.529 -28.834   7.603  0.00  0.00    -0.455 OA
BRANCH  25  34
ATOM     26  C   LIG    1       22.484 -32.811   8.814  0.00  0.00    +0.164 A 
ATOM     27  C   LIG    1       22.911 -31.701   9.552  0.00  0.00    +0.162 A 
ATOM     28  C   LIG    1       23.743 -30.742   8.952  0.00  0.00    +0.063 A 
ATOM     29  C   LIG    1       24.220 -30.900   7.627  0.00  0.00    +0.046 A 
ATOM     30  C   LIG    1       23.798 -32.042   6.903  0.00  0.00    +0.078 A 
ATOM     31  N   LIG    1       24.172 -32.281   5.637  0.00  0.00    -0.255 NA
ATOM     32  C   LIG    1       25.037 -31.431   5.055  0.00  0.00    +0.115 A 
ATOM     33  C   LIG    1       25.564 -30.326   5.683  0.00  0.00    +0.066 A 
ATOM     34  C   LIG    1       25.103 -30.001   6.960  0.00  0.00    +0.139 A 
ATOM     35  C   LIG    1       22.956 -32.969   7.506  0.00  0.00    +0.077 A 
BRANCH  26  37
ATOM     36  C   LIG    1       20.444 -33.436   9.889  0.00  0.00    +0.277 C 
ATOM     37  O   LIG    1       21.667 -33.825   9.261  0.00  0.00    -0.491 OA
ENDBRANCH  26  37
BRANCH  27  38
ATOM     38  O   LIG    1       22.438 -31.567  10.825  0.00  0.00    -0.491 OA
ATOM     39  C   LIG    1       22.622 -30.323  11.477  0.00  0.00    +0.277 C 
ENDBRANCH  27  38
ENDBRANCH  25  34
ENDBRANCH   1  25
TORSDOF 8
ENDMDL
MODEL 5
REMARK VINA RESULT:      -9.1      3.634     10.677
REMARK  Name = *****
REMARK                            x       y       z     vdW  Elec       q    Type
REMARK                         _______ _______ _______ _____ _____    ______ ____
ROOT
ATOM      1  C   LIG    1       24.984 -23.053   6.904  0.00  0.00    +0.129 A 
ATOM      2  C   LIG    1       23.743 -23.645   6.675  0.00  0.00    +0.048 A 
ATOM      3  C   LIG    1       23.629 -25.037   6.508  0.00  0.00    +0.027 A 
ATOM      4  C   LIG    1       24.757 -25.871   6.480  0.00  0.00    +0.034 A 
ATOM      5  C   LIG    1       26.011 -25.249   6.562  0.00  0.00    +0.027 A 
ATOM      6  C   LIG    1       26.126 -23.850   6.786  0.00  0.00    +0.048 A 
ENDROOT
BRANCH   4   7
ATOM      7  N   LIG    1       24.520 -27.279   6.378  0.00  0.00    -0.285 N 
ATOM      8  H   LIG    1       23.841 -27.564   5.681  0.00  0.00    +0.155 HD
ATOM      9  C   LIG    1       25.101 -28.305   7.122  0.00  0.00    +0.232 C 
ATOM     10  O   LIG    1       25.909 -28.156   8.020  0.00  0.00    -0.274 OA
BRANCH   9  11
ATOM     11  C   LIG    1       24.673 -29.735   6.746  0.00  0.00    +0.123 C 
ATOM     12  C   LIG    1       23.925 -29.876   5.396  0.00  0.00    +0.027 C 
ATOM     13  C   LIG    1       25.312 -30.408   5.512  0.00  0.00    +0.027 C 
BRANCH  11  14
ATOM     14  C   LIG    1       24.268 -30.681   7.853  0.00  0.00    +0.232 C 
ATOM     15  N   LIG    1       23.770 -30.084   8.977  0.00  0.00    -0.285 N 
ATOM     16  H   LIG    1       23.917 -29.076   9.059  0.00  0.00    +0.155 HD
ATOM     17  O   LIG    1       24.441 -31.905   7.672  0.00  0.00    -0.274 OA
BRANCH  15  18
ATOM     18  C   LIG    1       23.295 -30.708  10.158  0.00  0.00    +0.034 A 
ATOM     19  C   LIG    1       21.908 -30.819  10.312  0.00  0.00    +0.026 A 
ATOM     20  C   LIG    1       21.351 -31.309  11.497  0.00  0.00    +0.040 A 
ATOM     21  C   LIG    1       22.188 -31.728  12.520  0.00  0.00    +0.123 A 
ATOM     22  F   LIG    1       21.656 -32.153  13.675  0.00  0.00    -0.205 F 
ATOM     23  C   LIG    1       23.568 -31.710  12.358  0.00  0.00    +0.040 A 
ATOM     24  C   LIG    1       24.128 -31.205  11.170  0.00  0.00    +0.026 A 
ENDBRANCH  15  18
ENDBRANCH  11  14
ENDBRANCH   9  11
ENDBRANCH   4   7
BRANCH   1  25
ATOM     25  O   LIG    1       25.118 -21.709   7.242  0.00  0.00    -0.455 OA
BRANCH  25  34
ATOM     26  C   LIG    1       29.765 -19.518   6.847  0.00  0.00    +0.164 A 
ATOM     27  C   LIG    1       29.190 -20.320   7.839  0.00  0.00    +0.162 A 
ATOM     28  C   LIG    1       27.882 -20.804   7.675  0.00  0.00    +0.063 A 
ATOM     29  C   LIG    1       27.096 -20.448   6.551  0.00  0.00    +0.046 A 
ATOM     30  C   LIG    1       27.685 -19.614   5.569  0.00  0.00    +0.078 A 
ATOM     31  N   LIG    1       27.039 -19.232   4.457  0.00  0.00    -0.255 NA
ATOM     32  C   LIG    1       25.755 -19.603   4.303  0.00  0.00    +0.115 A 
ATOM     33  C   LIG    1       25.062 -20.356   5.222  0.00  0.00    +0.066 A 
ATOM     34  C   LIG    1       25.748 -20.855   6.331  0.00  0.00    +0.139 A 
ATOM     35  C   LIG    1       28.988 -19.163   5.738  0.00  0.00    +0.077 A 
BRANCH  26  37
ATOM     36  C   LIG    1       31.362 -18.151   7.981  0.00  0.00    +0.277 C 
ATOM     37  O   LIG    1       31.031 -18.977   6.864  0.00  0.00    -0.491 OA
ENDBRANCH  26  37
BRANCH  27  38
ATOM     38  O   LIG    1       29.965 -20.654   8.912  0.00  0.00    -0.491 OA
ATOM     39  C   LIG    1       30.793 -21.798   8.806  0.00  0.00    +0.277 C 
ENDBRANCH  27  38
ENDBRANCH  25  34
ENDBRANCH   1  25
TORSDOF 8
ENDMDL
MODEL 6
REMARK VINA RESULT:      -8.5      3.557     10.542
REMARK  Name = *****
REMARK                            x       y       z     vdW  Elec       q    Type
REMARK                         _______ _______ _______ _____ _____    ______ ____
ROOT
ATOM      1  C   LIG    1       24.619 -24.270   6.527  0.00  0.00    +0.129 A 
ATOM      2  C   LIG    1       23.827 -25.197   5.851  0.00  0.00    +0.048 A 
ATOM      3  C   LIG    1       24.197 -26.553   5.794  0.00  0.00    +0.027 A 
ATOM      4  C   LIG    1       25.407 -27.012   6.335  0.00  0.00    +0.034 A 
ATOM      5  C   LIG    1       26.266 -26.046   6.881  0.00  0.00    +0.027 A 
ATOM      6  C   LIG    1       25.870 -24.686   6.989  0.00  0.00    +0.048 A 
ENDROOT
BRANCH   4   7
ATOM      7  N   LIG    1       25.648 -28.421   6.285  0.00  0.00    -0.285 N 
ATOM      8  H   LIG    1       26.573 -28.702   5.981  0.00  0.00    +0.155 HD
ATOM      9  C   LIG    1       24.766 -29.456   6.594  0.00  0.00    +0.232 C 
ATOM     10  O   LIG    1       23.609 -29.316   6.946  0.00  0.00    -0.274 OA
BRANCH   9  11
ATOM     11  C   LIG    1       25.335 -30.882   6.485  0.00  0.00    +0.123 C 
ATOM     12  C   LIG    1       24.782 -31.735   5.315  0.00  0.00    +0.027 C 
ATOM     13  C   LIG    1       26.192 -31.254   5.255  0.00  0.00    +0.027 C 
BRANCH  11  14
ATOM     14  C   LIG    1       25.689 -31.616   7.758  0.00  0.00    +0.232 C 
ATOM     15  N   LIG    1       24.836 -31.411   8.805  0.00  0.00    -0.285 N 
ATOM     16  H   LIG    1       24.181 -30.632   8.713  0.00  0.00    +0.155 HD
ATOM     17  O   LIG    1       26.725 -32.315   7.764  0.00  0.00    -0.274 OA
BRANCH  15  18
ATOM     18  C   LIG    1       24.900 -31.975  10.105  0.00  0.00    +0.034 A 
ATOM     19  C   LIG    1       25.192 -31.109  11.166  0.00  0.00    +0.026 A 
ATOM     20  C   LIG    1       25.394 -31.597  12.460  0.00  0.00    +0.040 A 
ATOM     21  C   LIG    1       25.264 -32.956  12.703  0.00  0.00    +0.123 A 
ATOM     22  F   LIG    1       25.503 -33.433  13.933  0.00  0.00    -0.205 F 
ATOM     23  C   LIG    1       24.888 -33.824  11.685  0.00  0.00    +0.040 A 
ATOM     24  C   LIG    1       24.697 -33.334  10.381  0.00  0.00    +0.026 A 
ENDBRANCH  15  18
ENDBRANCH  11  14
ENDBRANCH   9  11
ENDBRANCH   4   7
BRANCH   1  25
ATOM     25  O   LIG    1       24.205 -22.960   6.751  0.00  0.00    -0.455 OA
BRANCH  25  34
ATOM     26  C   LIG    1       28.288 -19.829   6.474  0.00  0.00    +0.164 A 
ATOM     27  C   LIG    1       27.890 -20.764   7.436  0.00  0.00    +0.162 A 
ATOM     28  C   LIG    1       26.714 -21.507   7.242  0.00  0.00    +0.063 A 
ATOM     29  C   LIG    1       25.876 -21.290   6.120  0.00  0.00    +0.046 A 
ATOM     30  C   LIG    1       26.281 -20.322   5.169  0.00  0.00    +0.078 A 
ATOM     31  N   LIG    1       25.576 -20.050   4.061  0.00  0.00    -0.255 NA
ATOM     32  C   LIG    1       24.400 -20.679   3.881  0.00  0.00    +0.115 A 
ATOM     33  C   LIG    1       23.876 -21.588   4.770  0.00  0.00    +0.066 A 
ATOM     34  C   LIG    1       24.645 -21.965   5.872  0.00  0.00    +0.139 A 
ATOM     35  C   LIG    1       27.460 -19.611   5.367  0.00  0.00    +0.077 A 
BRANCH  26  37
ATOM     36  C   LIG    1       29.606 -18.130   5.433  0.00  0.00    +0.277 C 
ATOM     37  O   LIG    1       29.411 -19.035   6.521  0.00  0.00    -0.491 OA
ENDBRANCH  26  37
BRANCH  27  38
ATOM     38  O   LIG    1       28.711 -20.959   8.507  0.00  0.00    -0.491 OA
ATOM     39  C   LIG    1       29.999 -21.499   8.271  0.00  0.00    +0.277 C 
ENDBRANCH  27  38
ENDBRANCH  25  34
ENDBRANCH   1  25
TORSDOF 8
ENDMDL
MODEL 7
REMARK VINA RESULT:      -8.4      1.741      2.323
REMARK  Name = *****
REMARK                            x       y       z     vdW  Elec       q    Type
REMARK                         _______ _______ _______ _____ _____    ______ ____
ROOT
ATOM      1  C   LIG    1       25.348 -28.274   6.970  0.00  0.00    +0.129 A 
ATOM      2  C   LIG    1       26.179 -27.266   7.458  0.00  0.00    +0.048 A 
ATOM      3  C   LIG    1       25.991 -25.928   7.069  0.00  0.00    +0.027 A 
ATOM      4  C   LIG    1       25.024 -25.564   6.119  0.00  0.00    +0.034 A 
ATOM      5  C   LIG    1       24.294 -26.604   5.524  0.00  0.00    +0.027 A 
ATOM      6  C   LIG    1       24.444 -27.949   5.955  0.00  0.00    +0.048 A 
ENDROOT
BRANCH   4   7
ATOM      7  N   LIG    1       24.870 -24.167   5.853  0.00  0.00    -0.285 N 
ATOM      8  H   LIG    1       25.550 -23.758   5.222  0.00  0.00    +0.155 HD
ATOM      9  C   LIG    1       23.906 -23.296   6.359  0.00  0.00    +0.232 C 
ATOM     10  O   LIG    1       23.030 -23.594   7.150  0.00  0.00    -0.274 OA
BRANCH   9  11
ATOM     11  C   LIG    1       23.972 -21.846   5.847  0.00  0.00    +0.123 C 
ATOM     12  C   LIG    1       22.892 -21.454   4.806  0.00  0.00    +0.027 C 
ATOM     13  C   LIG    1       22.813 -20.880   6.179  0.00  0.00    +0.027 C 
BRANCH  11  14
ATOM     14  C   LIG    1       25.327 -21.193   5.703  0.00  0.00    +0.232 C 
ATOM     15  N   LIG    1       26.159 -21.335   6.779  0.00  0.00    -0.285 N 
ATOM     16  H   LIG    1       25.730 -21.665   7.645  0.00  0.00    +0.155 HD
ATOM     17  O   LIG    1       25.569 -20.565   4.651  0.00  0.00    -0.274 OA
BRANCH  15  18
ATOM     18  C   LIG    1       27.485 -20.853   6.925  0.00  0.00    +0.034 A 
ATOM     19  C   LIG    1       27.903 -19.848   6.044  0.00  0.00    +0.026 A 
ATOM     20  C   LIG    1       29.227 -19.401   6.037  0.00  0.00    +0.040 A 
ATOM     21  C   LIG    1       30.131 -19.934   6.944  0.00  0.00    +0.123 A 
ATOM     22  F   LIG    1       31.412 -19.541   6.907  0.00  0.00    -0.205 F 
ATOM     23  C   LIG    1       29.719 -20.868   7.887  0.00  0.00    +0.040 A 
ATOM     24  C   LIG    1       28.389 -21.327   7.885  0.00  0.00    +0.026 A 
ENDBRANCH  15  18
ENDBRANCH  11  14
ENDBRANCH   9  11
ENDBRANCH   4   7
BRANCH   1  25
ATOM     25  O   LIG    1       25.393 -29.577   7.459  0.00  0.00    -0.455 OA
BRANCH  25  34
ATOM     26  C   LIG    1       26.965 -30.084  12.340  0.00  0.00    +0.164 A 
ATOM     27  C   LIG    1       27.667 -29.874  11.149  0.00  0.00    +0.162 A 
ATOM     28  C   LIG    1       26.966 -29.754   9.937  0.00  0.00    +0.063 A 
ATOM     29  C   LIG    1       25.559 -29.905   9.877  0.00  0.00    +0.046 A 
ATOM     30  C   LIG    1       24.866 -30.144  11.090  0.00  0.00    +0.078 A 
ATOM     31  N   LIG    1       23.534 -30.283  11.151  0.00  0.00    -0.255 NA
ATOM     32  C   LIG    1       22.834 -30.260  10.003  0.00  0.00    +0.115 A 
ATOM     33  C   LIG    1       23.407 -30.102   8.762  0.00  0.00    +0.066 A 
ATOM     34  C   LIG    1       24.777 -29.846   8.686  0.00  0.00    +0.139 A 
ATOM     35  C   LIG    1       25.575 -30.237  12.282  0.00  0.00    +0.077 A 
BRANCH  26  37
ATOM     36  C   LIG    1       26.688 -30.828  14.594  0.00  0.00    +0.277 C 
ATOM     37  O   LIG    1       27.509 -30.215  13.598  0.00  0.00    -0.491 OA
ENDBRANCH  26  37
BRANCH  27  38
ATOM     38  O   LIG    1       29.021 -29.728  11.228  0.00  0.00    -0.491 OA
ATOM     39  C   LIG    1       29.584 -29.404  12.487  0.00  0.00    +0.277 C 
ENDBRANCH  27  38
ENDBRANCH  25  34
ENDBRANCH   1  25
TORSDOF 8
ENDMDL
MODEL 8
REMARK VINA RESULT:      -8.3      1.951      2.561
REMARK  Name = *****
REMARK                            x       y       z     vdW  Elec       q    Type
REMARK                         _______ _______ _______ _____ _____    ______ ____
ROOT
ATOM      1  C   LIG    1       24.513 -27.291   6.309  0.00  0.00    +0.129 A 
ATOM      2  C   LIG    1       25.839 -27.028   6.646  0.00  0.00    +0.048 A 
ATOM      3  C   LIG    1       26.350 -25.719   6.593  0.00  0.00    +0.027 A 
ATOM      4  C   LIG    1       25.580 -24.644   6.123  0.00  0.00    +0.034 A 
ATOM      5  C   LIG    1       24.295 -24.944   5.645  0.00  0.00    +0.027 A 
ATOM      6  C   LIG    1       23.758 -26.255   5.750  0.00  0.00    +0.048 A 
ENDROOT
BRANCH   4   7
ATOM      7  N   LIG    1       26.175 -23.345   6.180  0.00  0.00    -0.285 N 
ATOM      8  H   LIG    1       26.502 -22.967   5.298  0.00  0.00    +0.155 HD
ATOM      9  C   LIG    1       26.369 -22.537   7.300  0.00  0.00    +0.232 C 
ATOM     10  O   LIG    1       26.072 -22.830   8.444  0.00  0.00    -0.274 OA
BRANCH   9  11
ATOM     11  C   LIG    1       27.001 -21.158   7.035  0.00  0.00    +0.123 C 
ATOM     12  C   LIG    1       26.744 -20.565   5.627  0.00  0.00    +0.027 C 
ATOM     13  C   LIG    1       26.078 -19.942   6.805  0.00  0.00    +0.027 C 
BRANCH  11  14
ATOM     14  C   LIG    1       28.331 -20.840   7.678  0.00  0.00    +0.232 C 
ATOM     15  N   LIG    1       28.664 -19.514   7.701  0.00  0.00    -0.285 N 
ATOM     16  H   LIG    1       28.112 -18.896   7.104  0.00  0.00    +0.155 HD
ATOM     17  O   LIG    1       29.021 -21.790   8.104  0.00  0.00    -0.274 OA
BRANCH  15  18
ATOM     18  C   LIG    1       29.828 -18.917   8.249  0.00  0.00    +0.034 A 
ATOM     19  C   LIG    1       29.671 -18.164   9.419  0.00  0.00    +0.026 A 
ATOM     20  C   LIG    1       30.739 -17.442   9.960  0.00  0.00    +0.040 A 
ATOM     21  C   LIG    1       31.983 -17.505   9.349  0.00  0.00    +0.123 A 
ATOM     22  F   LIG    1       32.996 -16.776   9.838  0.00  0.00    -0.205 F 
ATOM     23  C   LIG    1       32.185 -18.315   8.238  0.00  0.00    +0.040 A 
ATOM     24  C   LIG    1       31.107 -19.032   7.687  0.00  0.00    +0.026 A 
ENDBRANCH  15  18
ENDBRANCH  11  14
ENDBRANCH   9  11
ENDBRANCH   4   7
BRANCH   1  25
ATOM     25  O   LIG    1       23.925 -28.536   6.511  0.00  0.00    -0.455 OA
BRANCH  25  34
ATOM     26  C   LIG    1       25.724 -31.796  10.074  0.00  0.00    +0.164 A 
ATOM     27  C   LIG    1       24.944 -30.638  10.174  0.00  0.00    +0.162 A 
ATOM     28  C   LIG    1       24.578 -29.940   9.011  0.00  0.00    +0.063 A 
ATOM     29  C   LIG    1       25.034 -30.343   7.731  0.00  0.00    +0.046 A 
ATOM     30  C   LIG    1       25.844 -31.502   7.651  0.00  0.00    +0.078 A 
ATOM     31  N   LIG    1       26.313 -31.983   6.491  0.00  0.00    -0.255 NA
ATOM     32  C   LIG    1       26.057 -31.297   5.363  0.00  0.00    +0.115 A 
ATOM     33  C   LIG    1       25.338 -30.124   5.329  0.00  0.00    +0.066 A 
ATOM     34  C   LIG    1       24.750 -29.667   6.509  0.00  0.00    +0.139 A 
ATOM     35  C   LIG    1       26.177 -32.192   8.811  0.00  0.00    +0.077 A 
BRANCH  26  37
ATOM     36  C   LIG    1       25.203 -33.497  11.668  0.00  0.00    +0.277 C 
ATOM     37  O   LIG    1       26.154 -32.584  11.117  0.00  0.00    -0.491 OA
ENDBRANCH  26  37
BRANCH  27  38
ATOM     38  O   LIG    1       24.513 -30.269  11.415  0.00  0.00    -0.491 OA
ATOM     39  C   LIG    1       25.029 -29.074  11.973  0.00  0.00    +0.277 C 
ENDBRANCH  27  38
ENDBRANCH  25  34
ENDBRANCH   1  25
TORSDOF 8
ENDMDL
MODEL 9
REMARK VINA RESULT:      -8.2      2.174      2.835
REMARK  Name = *****
REMARK                            x       y       z     vdW  Elec       q    Type
REMARK                         _______ _______ _______ _____ _____    ______ ____
ROOT
ATOM      1  C   LIG    1       24.684 -29.552   5.975  0.00  0.00    +0.129 A 
ATOM      2  C   LIG    1       24.961 -28.940   7.197  0.00  0.00    +0.048 A 
ATOM      3  C   LIG    1       24.800 -27.552   7.359  0.00  0.00    +0.027 A 
ATOM      4  C   LIG    1       24.440 -26.720   6.288  0.00  0.00    +0.034 A 
ATOM      5  C   LIG    1       24.309 -27.326   5.029  0.00  0.00    +0.027 A 
ATOM      6  C   LIG    1       24.416 -28.734   4.874  0.00  0.00    +0.048 A 
ENDROOT
BRANCH   4   7
ATOM      7  N   LIG    1       24.234 -25.336   6.582  0.00  0.00    -0.285 N 
ATOM      8  H   LIG    1       23.459 -25.124   7.200  0.00  0.00    +0.155 HD
ATOM      9  C   LIG    1       24.963 -24.240   6.119  0.00  0.00    +0.232 C 
ATOM     10  O   LIG    1       25.904 -24.292   5.349  0.00  0.00    -0.274 OA
BRANCH   9  11
ATOM     11  C   LIG    1       24.524 -22.865   6.654  0.00  0.00    +0.123 C 
ATOM     12  C   LIG    1       23.362 -22.188   5.883  0.00  0.00    +0.027 C 
ATOM     13  C   LIG    1       23.110 -22.711   7.255  0.00  0.00    +0.027 C 
BRANCH  11  14
ATOM     14  C   LIG    1       25.573 -21.953   7.246  0.00  0.00    +0.232 C 
ATOM     15  N   LIG    1       26.750 -21.892   6.552  0.00  0.00    -0.285 N 
ATOM     16  H   LIG    1       26.897 -22.612   5.843  0.00  0.00    +0.155 HD
ATOM     17  O   LIG    1       25.304 -21.361   8.312  0.00  0.00    -0.274 OA
BRANCH  15  18
ATOM     18  C   LIG    1       27.899 -21.116   6.852  0.00  0.00    +0.034 A 
ATOM     19  C   LIG    1       28.102 -19.955   6.097  0.00  0.00    +0.026 A 
ATOM     20  C   LIG    1       29.268 -19.197   6.241  0.00  0.00    +0.040 A 
ATOM     21  C   LIG    1       30.219 -19.581   7.174  0.00  0.00    +0.123 A 
ATOM     22  F   LIG    1       31.359 -18.884   7.280  0.00  0.00    -0.205 F 
ATOM     23  C   LIG    1       30.000 -20.680   7.996  0.00  0.00    +0.040 A 
ATOM     24  C   LIG    1       28.832 -21.449   7.843  0.00  0.00    +0.026 A 
ENDBRANCH  15  18
ENDBRANCH  11  14
ENDBRANCH   9  11
ENDBRANCH   4   7
BRANCH   1  25
ATOM     25  O   LIG    1       24.665 -30.936   5.823  0.00  0.00    -0.455 OA
BRANCH  25  34
ATOM     26  C   LIG    1       23.646 -33.265  10.305  0.00  0.00    +0.164 A 
ATOM     27  C   LIG    1       22.870 -32.443   9.480  0.00  0.00    +0.162 A 
ATOM     28  C   LIG    1       23.408 -31.951   8.280  0.00  0.00    +0.063 A 
ATOM     29  C   LIG    1       24.750 -32.212   7.908  0.00  0.00    +0.046 A 
ATOM     30  C   LIG    1       25.530 -33.024   8.767  0.00  0.00    +0.078 A 
ATOM     31  N   LIG    1       26.803 -33.351   8.503  0.00  0.00    -0.255 NA
ATOM     32  C   LIG    1       27.383 -32.829   7.407  0.00  0.00    +0.115 A 
ATOM     33  C   LIG    1       26.744 -31.977   6.537  0.00  0.00    +0.066 A 
ATOM     34  C   LIG    1       25.388 -31.713   6.735  0.00  0.00    +0.139 A 
ATOM     35  C   LIG    1       24.972 -33.521   9.940  0.00  0.00    +0.077 A 
BRANCH  26  37
ATOM     36  C   LIG    1       23.862 -33.299  12.684  0.00  0.00    +0.277 C 
ATOM     37  O   LIG    1       23.256 -33.824  11.501  0.00  0.00    -0.491 OA
ENDBRANCH  26  37
BRANCH  27  38
ATOM     38  O   LIG    1       21.579 -32.206   9.855  0.00  0.00    -0.491 OA
ATOM     39  C   LIG    1       21.270 -30.946  10.422  0.00  0.00    +0.277 C 
ENDBRANCH  27  38
ENDBRANCH  25  34
ENDBRANCH   1  25
TORSDOF 8
ENDMDL
