MODEL 1
REMARK VINA RESULT:      -3.4      0.000      0.000
REMARK  Name = *****
REMARK                            x       y       z     vdW  Elec       q    Type
REMARK                         _______ _______ _______ _____ _____    ______ ____
ROOT
ATOM      1  C   LIG    1       25.489 -18.258   3.630  0.00  0.00    +0.121 C 
ENDROOT
BRANCH   1   2
ATOM      2  C   LIG    1       26.555 -18.874   4.560  0.00  0.00    +0.022 A 
ATOM      3  C   LIG    1       27.822 -18.283   4.706  0.00  0.00    +0.132 A 
ATOM      4  F   LIG    1       28.123 -17.171   4.019  0.00  0.00    -0.205 F 
ATOM      5  C   LIG    1       28.797 -18.818   5.548  0.00  0.00    +0.077 A 
ATOM      6  C   LIG    1       28.521 -19.980   6.249  0.00  0.00    +0.126 A 
ATOM      7  F   LIG    1       29.448 -20.506   7.062  0.00  0.00    -0.205 F 
ATOM      8  C   LIG    1       27.292 -20.611   6.123  0.00  0.00    +0.039 A 
ATOM      9  C   LIG    1       26.312 -20.051   5.297  0.00  0.00    +0.012 A 
ENDBRANCH   1   2
BRANCH   1  11
ATOM     10  C   LIG    1       23.243 -16.966   4.061  0.00  0.00    +0.017 C 
ATOM     11  C   LIG    1       24.782 -16.965   4.256  0.00  0.00    +0.076 C 
BRANCH  11  12
ATOM     12  C   LIG    1       25.294 -15.620   3.716  0.00  0.00    +0.086 A 
ATOM     13  C   LIG    1       24.606 -14.445   3.953  0.00  0.00    +0.163 A 
ATOM     14  F   LIG    1       23.475 -14.416   4.681  0.00  0.00    -0.202 F 
ATOM     15  C   LIG    1       25.100 -13.292   3.393  0.00  0.00    +0.152 A 
ATOM     16  N   LIG    1       26.248 -13.246   2.684  0.00  0.00    -0.241 NA
ATOM     17  C   LIG    1       26.863 -14.421   2.525  0.00  0.00    +0.221 A 
ATOM     18  N   LIG    1       26.420 -15.619   2.950  0.00  0.00    -0.237 NA
ENDBRANCH  11  12
ENDBRANCH   1  11
BRANCH   1  19
ATOM     19  O   LIG    1       26.099 -17.822   2.390  0.00  0.00    -0.381 OA
ATOM     20  H   LIG    1       26.925 -17.365   2.650  0.00  0.00    +0.211 HD
ENDBRANCH   1  19
BRANCH   1  21
ATOM     21  C   LIG    1       24.433 -19.338   3.231  0.00  0.00    +0.185 C 
BRANCH  21  22
ATOM     22  N   LIG    1       23.787 -20.005   4.353  0.00  0.00    -0.249 N 
ATOM     23  N   LIG    1       22.802 -19.409   5.055  0.00  0.00    -0.158 NA
ATOM     24  C   LIG    1       22.446 -20.390   5.892  0.00  0.00    +0.244 A 
ATOM     25  N   LIG    1       23.108 -21.572   5.725  0.00  0.00    -0.223 NA
ATOM     26  C   LIG    1       23.938 -21.303   4.740  0.00  0.00    +0.219 A 
ENDBRANCH  21  22
ENDBRANCH   1  21
TORSDOF 6
ENDMDL
MODEL 2
REMARK VINA RESULT:      -3.3      3.556      5.427
REMARK  Name = *****
REMARK                            x       y       z     vdW  Elec       q    Type
REMARK                         _______ _______ _______ _____ _____    ______ ____
ROOT
ATOM      1  C   LIG    1       25.697 -15.483   3.364  0.00  0.00    +0.121 C 
ENDROOT
BRANCH   1   2
ATOM      2  C   LIG    1       25.000 -16.843   3.577  0.00  0.00    +0.022 A 
ATOM      3  C   LIG    1       23.680 -16.917   4.053  0.00  0.00    +0.132 A 
ATOM      4  F   LIG    1       23.011 -15.792   4.343  0.00  0.00    -0.205 F 
ATOM      5  C   LIG    1       23.029 -18.136   4.244  0.00  0.00    +0.077 A 
ATOM      6  C   LIG    1       23.706 -19.314   3.977  0.00  0.00    +0.126 A 
ATOM      7  F   LIG    1       23.093 -20.492   4.157  0.00  0.00    -0.205 F 
ATOM      8  C   LIG    1       25.017 -19.292   3.524  0.00  0.00    +0.039 A 
ATOM      9  C   LIG    1       25.652 -18.065   3.309  0.00  0.00    +0.012 A 
ENDBRANCH   1   2
BRANCH   1  11
ATOM     10  C   LIG    1       27.709 -16.655   4.579  0.00  0.00    +0.017 C 
ATOM     11  C   LIG    1       27.283 -15.550   3.577  0.00  0.00    +0.076 C 
BRANCH  11  12
ATOM     12  C   LIG    1       27.927 -14.242   4.063  0.00  0.00    +0.086 A 
ATOM     13  C   LIG    1       27.613 -13.703   5.296  0.00  0.00    +0.163 A 
ATOM     14  F   LIG    1       26.750 -14.303   6.136  0.00  0.00    -0.202 F 
ATOM     15  C   LIG    1       28.191 -12.504   5.636  0.00  0.00    +0.152 A 
ATOM     16  N   LIG    1       29.092 -11.869   4.855  0.00  0.00    -0.241 NA
ATOM     17  C   LIG    1       29.359 -12.471   3.693  0.00  0.00    +0.221 A 
ATOM     18  N   LIG    1       28.782 -13.594   3.223  0.00  0.00    -0.237 NA
ENDBRANCH  11  12
ENDBRANCH   1  11
BRANCH   1  19
ATOM     19  O   LIG    1       25.493 -15.024   2.004  0.00  0.00    -0.381 OA
ATOM     20  H   LIG    1       24.627 -14.567   2.009  0.00  0.00    +0.211 HD
ENDBRANCH   1  19
BRANCH   1  21
ATOM     21  C   LIG    1       25.051 -14.397   4.283  0.00  0.00    +0.185 C 
BRANCH  21  22
ATOM     22  N   LIG    1       24.669 -13.168   3.601  0.00  0.00    -0.249 N 
ATOM     23  N   LIG    1       25.349 -12.716   2.527  0.00  0.00    -0.158 NA
ATOM     24  C   LIG    1       24.611 -11.657   2.176  0.00  0.00    +0.244 A 
ATOM     25  N   LIG    1       23.491 -11.448   2.927  0.00  0.00    -0.223 NA
ATOM     26  C   LIG    1       23.546 -12.423   3.808  0.00  0.00    +0.219 A 
ENDBRANCH  21  22
ENDBRANCH   1  21
TORSDOF 6
ENDMDL
MODEL 3
REMARK VINA RESULT:      -2.8      2.456      5.451
REMARK  Name = *****
REMARK                            x       y       z     vdW  Elec       q    Type
REMARK                         _______ _______ _______ _____ _____    ______ ____
ROOT
ATOM      1  C   LIG    1       24.487 -18.340   4.072  0.00  0.00    +0.121 C 
ENDROOT
BRANCH   1   2
ATOM      2  C   LIG    1       24.571 -16.805   3.939  0.00  0.00    +0.022 A 
ATOM      3  C   LIG    1       23.495 -15.982   4.315  0.00  0.00    +0.132 A 
ATOM      4  F   LIG    1       22.367 -16.533   4.787  0.00  0.00    -0.205 F 
ATOM      5  C   LIG    1       23.554 -14.592   4.211  0.00  0.00    +0.077 A 
ATOM      6  C   LIG    1       24.697 -14.000   3.704  0.00  0.00    +0.126 A 
ATOM      7  F   LIG    1       24.767 -12.666   3.598  0.00  0.00    -0.205 F 
ATOM      8  C   LIG    1       25.777 -14.771   3.300  0.00  0.00    +0.039 A 
ATOM      9  C   LIG    1       25.720 -16.161   3.434  0.00  0.00    +0.012 A 
ENDBRANCH   1   2
BRANCH   1  11
ATOM     10  C   LIG    1       25.737 -20.118   2.597  0.00  0.00    +0.017 C 
ATOM     11  C   LIG    1       25.870 -19.075   3.737  0.00  0.00    +0.076 C 
BRANCH  11  12
ATOM     12  C   LIG    1       26.522 -19.800   4.925  0.00  0.00    +0.086 A 
ATOM     13  C   LIG    1       27.765 -19.425   5.398  0.00  0.00    +0.163 A 
ATOM     14  F   LIG    1       28.452 -18.401   4.860  0.00  0.00    -0.202 F 
ATOM     15  C   LIG    1       28.304 -20.156   6.429  0.00  0.00    +0.152 A 
ATOM     16  N   LIG    1       27.653 -21.172   7.036  0.00  0.00    -0.241 NA
ATOM     17  C   LIG    1       26.447 -21.451   6.534  0.00  0.00    +0.221 A 
ATOM     18  N   LIG    1       25.867 -20.862   5.472  0.00  0.00    -0.237 NA
ENDBRANCH  11  12
ENDBRANCH   1  11
BRANCH   1  19
ATOM     19  O   LIG    1       24.155 -18.707   5.434  0.00  0.00    -0.381 OA
ATOM     20  H   LIG    1       23.245 -19.066   5.394  0.00  0.00    +0.211 HD
ENDBRANCH   1  19
BRANCH   1  21
ATOM     21  C   LIG    1       23.326 -18.895   3.184  0.00  0.00    +0.185 C 
BRANCH  21  22
ATOM     22  N   LIG    1       22.505 -19.916   3.821  0.00  0.00    -0.249 N 
ATOM     23  N   LIG    1       23.058 -20.972   4.454  0.00  0.00    -0.158 NA
ATOM     24  C   LIG    1       21.974 -21.571   4.959  0.00  0.00    +0.244 A 
ATOM     25  N   LIG    1       20.790 -20.933   4.727  0.00  0.00    -0.223 NA
ATOM     26  C   LIG    1       21.157 -19.887   4.019  0.00  0.00    +0.219 A 
ENDBRANCH  21  22
ENDBRANCH   1  21
TORSDOF 6
ENDMDL
MODEL 4
REMARK VINA RESULT:      -2.3      2.480      5.285
REMARK  Name = *****
REMARK                            x       y       z     vdW  Elec       q    Type
REMARK                         _______ _______ _______ _____ _____    ______ ____
ROOT
ATOM      1  C   LIG    1       24.406 -18.361   4.111  0.00  0.00    +0.121 C 
ENDROOT
BRANCH   1   2
ATOM      2  C   LIG    1       24.508 -16.829   3.955  0.00  0.00    +0.022 A 
ATOM      3  C   LIG    1       25.693 -16.221   3.507  0.00  0.00    +0.132 A 
ATOM      4  F   LIG    1       26.763 -16.976   3.219  0.00  0.00    -0.205 F 
ATOM      5  C   LIG    1       25.803 -14.839   3.351  0.00  0.00    +0.077 A 
ATOM      6  C   LIG    1       24.721 -14.035   3.665  0.00  0.00    +0.126 A 
ATOM      7  F   LIG    1       24.813 -12.705   3.521  0.00  0.00    -0.205 F 
ATOM      8  C   LIG    1       23.537 -14.587   4.131  0.00  0.00    +0.039 A 
ATOM      9  C   LIG    1       23.427 -15.975   4.258  0.00  0.00    +0.012 A 
ENDBRANCH   1   2
BRANCH   1  11
ATOM     10  C   LIG    1       25.594 -20.164   2.615  0.00  0.00    +0.017 C 
ATOM     11  C   LIG    1       25.769 -19.120   3.749  0.00  0.00    +0.076 C 
BRANCH  11  12
ATOM     12  C   LIG    1       26.434 -19.854   4.925  0.00  0.00    +0.086 A 
ATOM     13  C   LIG    1       27.682 -19.481   5.387  0.00  0.00    +0.163 A 
ATOM     14  F   LIG    1       28.362 -18.453   4.850  0.00  0.00    -0.202 F 
ATOM     15  C   LIG    1       28.232 -20.219   6.407  0.00  0.00    +0.152 A 
ATOM     16  N   LIG    1       27.588 -21.240   7.014  0.00  0.00    -0.241 NA
ATOM     17  C   LIG    1       26.376 -21.517   6.523  0.00  0.00    +0.221 A 
ATOM     18  N   LIG    1       25.785 -20.920   5.470  0.00  0.00    -0.237 NA
ENDBRANCH  11  12
ENDBRANCH   1  11
BRANCH   1  19
ATOM     19  O   LIG    1       24.106 -18.705   5.486  0.00  0.00    -0.381 OA
ATOM     20  H   LIG    1       24.196 -17.872   5.991  0.00  0.00    +0.211 HD
ENDBRANCH   1  19
BRANCH   1  21
ATOM     21  C   LIG    1       23.214 -18.911   3.263  0.00  0.00    +0.185 C 
BRANCH  21  22
ATOM     22  N   LIG    1       22.436 -19.958   3.910  0.00  0.00    -0.249 N 
ATOM     23  N   LIG    1       23.024 -20.908   4.667  0.00  0.00    -0.158 NA
ATOM     24  C   LIG    1       21.958 -21.571   5.129  0.00  0.00    +0.244 A 
ATOM     25  N   LIG    1       20.746 -21.068   4.753  0.00  0.00    -0.223 NA
ATOM     26  C   LIG    1       21.079 -20.045   3.996  0.00  0.00    +0.219 A 
ENDBRANCH  21  22
ENDBRANCH   1  21
TORSDOF 6
ENDMDL
MODEL 5
REMARK VINA RESULT:      -1.6      2.952      4.708
REMARK  Name = *****
REMARK                            x       y       z     vdW  Elec       q    Type
REMARK                         _______ _______ _______ _____ _____    ______ ____
ROOT
ATOM      1  C   LIG    1       25.991 -16.081   3.814  0.00  0.00    +0.121 C 
ENDROOT
BRANCH   1   2
ATOM      2  C   LIG    1       24.702 -16.924   3.907  0.00  0.00    +0.022 A 
ATOM      3  C   LIG    1       23.515 -16.383   4.430  0.00  0.00    +0.132 A 
ATOM      4  F   LIG    1       23.495 -15.117   4.870  0.00  0.00    -0.205 F 
ATOM      5  C   LIG    1       22.337 -17.126   4.516  0.00  0.00    +0.077 A 
ATOM      6  C   LIG    1       22.336 -18.444   4.092  0.00  0.00    +0.126 A 
ATOM      7  F   LIG    1       21.211 -19.169   4.169  0.00  0.00    -0.205 F 
ATOM      8  C   LIG    1       23.488 -19.028   3.587  0.00  0.00    +0.039 A 
ATOM      9  C   LIG    1       24.656 -18.268   3.480  0.00  0.00    +0.012 A 
ENDBRANCH   1   2
BRANCH   1  11
ATOM     10  C   LIG    1       27.166 -14.237   2.360  0.00  0.00    +0.017 C 
ATOM     11  C   LIG    1       25.818 -14.770   2.910  0.00  0.00    +0.076 C 
BRANCH  11  12
ATOM     12  C   LIG    1       25.128 -13.588   3.609  0.00  0.00    +0.086 A 
ATOM     13  C   LIG    1       24.074 -12.921   3.014  0.00  0.00    +0.163 A 
ATOM     14  F   LIG    1       23.589 -13.284   1.812  0.00  0.00    -0.202 F 
ATOM     15  C   LIG    1       23.544 -11.841   3.677  0.00  0.00    +0.152 A 
ATOM     16  N   LIG    1       23.960 -11.447   4.901  0.00  0.00    -0.241 NA
ATOM     17  C   LIG    1       24.965 -12.162   5.415  0.00  0.00    +0.221 A 
ATOM     18  N   LIG    1       25.615 -13.175   4.812  0.00  0.00    -0.237 NA
ENDBRANCH  11  12
ENDBRANCH   1  11
BRANCH   1  19
ATOM     19  O   LIG    1       26.380 -15.615   5.129  0.00  0.00    -0.381 OA
ATOM     20  H   LIG    1       27.155 -15.034   4.983  0.00  0.00    +0.211 HD
ENDBRANCH   1  19
BRANCH   1  21
ATOM     21  C   LIG    1       27.176 -16.963   3.304  0.00  0.00    +0.185 C 
BRANCH  21  22
ATOM     22  N   LIG    1       27.859 -17.725   4.341  0.00  0.00    -0.249 N 
ATOM     23  N   LIG    1       27.372 -18.900   4.789  0.00  0.00    -0.158 NA
ATOM     24  C   LIG    1       28.341 -19.283   5.628  0.00  0.00    +0.244 A 
ATOM     25  N   LIG    1       29.420 -18.450   5.695  0.00  0.00    -0.223 NA
ATOM     26  C   LIG    1       29.094 -17.485   4.863  0.00  0.00    +0.219 A 
ENDBRANCH  21  22
ENDBRANCH   1  21
TORSDOF 6
ENDMDL
MODEL 6
REMARK VINA RESULT:      -1.5      1.509      2.051
REMARK  Name = *****
REMARK                            x       y       z     vdW  Elec       q    Type
REMARK                         _______ _______ _______ _____ _____    ______ ____
ROOT
ATOM      1  C   LIG    1       26.261 -17.759   3.693  0.00  0.00    +0.121 C 
ENDROOT
BRANCH   1   2
ATOM      2  C   LIG    1       27.059 -18.714   4.605  0.00  0.00    +0.022 A 
ATOM      3  C   LIG    1       28.433 -18.525   4.833  0.00  0.00    +0.132 A 
ATOM      4  F   LIG    1       29.074 -17.506   4.241  0.00  0.00    -0.205 F 
ATOM      5  C   LIG    1       29.171 -19.372   5.660  0.00  0.00    +0.077 A 
ATOM      6  C   LIG    1       28.539 -20.446   6.263  0.00  0.00    +0.126 A 
ATOM      7  F   LIG    1       29.236 -21.268   7.060  0.00  0.00    -0.205 F 
ATOM      8  C   LIG    1       27.189 -20.686   6.053  0.00  0.00    +0.039 A 
ATOM      9  C   LIG    1       26.453 -19.816   5.244  0.00  0.00    +0.012 A 
ENDBRANCH   1   2
BRANCH   1  11
ATOM     10  C   LIG    1       27.598 -15.891   4.967  0.00  0.00    +0.017 C 
ATOM     11  C   LIG    1       26.867 -16.277   3.655  0.00  0.00    +0.076 C 
BRANCH  11  12
ATOM     12  C   LIG    1       25.843 -15.165   3.376  0.00  0.00    +0.086 A 
ATOM     13  C   LIG    1       26.120 -14.143   2.488  0.00  0.00    +0.163 A 
ATOM     14  F   LIG    1       27.282 -14.082   1.812  0.00  0.00    -0.202 F 
ATOM     15  C   LIG    1       25.175 -13.158   2.333  0.00  0.00    +0.152 A 
ATOM     16  N   LIG    1       23.975 -13.178   2.953  0.00  0.00    -0.241 NA
ATOM     17  C   LIG    1       23.779 -14.215   3.773  0.00  0.00    +0.221 A 
ATOM     18  N   LIG    1       24.670 -15.181   4.068  0.00  0.00    -0.237 NA
ENDBRANCH  11  12
ENDBRANCH   1  11
BRANCH   1  19
ATOM     19  O   LIG    1       26.283 -18.238   2.326  0.00  0.00    -0.381 OA
ATOM     20  H   LIG    1       27.218 -18.180   2.042  0.00  0.00    +0.211 HD
ENDBRANCH   1  19
BRANCH   1  21
ATOM     21  C   LIG    1       24.757 -17.741   4.116  0.00  0.00    +0.185 C 
BRANCH  21  22
ATOM     22  N   LIG    1       24.075 -19.022   3.999  0.00  0.00    -0.249 N 
ATOM     23  N   LIG    1       24.258 -19.824   2.931  0.00  0.00    -0.158 NA
ATOM     24  C   LIG    1       23.545 -20.899   3.284  0.00  0.00    +0.244 A 
ATOM     25  N   LIG    1       22.971 -20.841   4.521  0.00  0.00    -0.223 NA
ATOM     26  C   LIG    1       23.333 -19.653   4.953  0.00  0.00    +0.219 A 
ENDBRANCH  21  22
ENDBRANCH   1  21
TORSDOF 6
ENDMDL
MODEL 7
REMARK VINA RESULT:      -1.4      3.550      5.469
REMARK  Name = *****
REMARK                            x       y       z     vdW  Elec       q    Type
REMARK                         _______ _______ _______ _____ _____    ______ ____
ROOT
ATOM      1  C   LIG    1       25.405 -15.608   3.369  0.00  0.00    +0.121 C 
ENDROOT
BRANCH   1   2
ATOM      2  C   LIG    1       24.659 -16.923   3.678  0.00  0.00    +0.022 A 
ATOM      3  C   LIG    1       25.182 -18.166   3.284  0.00  0.00    +0.132 A 
ATOM      4  F   LIG    1       26.344 -18.219   2.615  0.00  0.00    -0.205 F 
ATOM      5  C   LIG    1       24.528 -19.367   3.561  0.00  0.00    +0.077 A 
ATOM      6  C   LIG    1       23.315 -19.338   4.227  0.00  0.00    +0.126 A 
ATOM      7  F   LIG    1       22.676 -20.484   4.500  0.00  0.00    -0.205 F 
ATOM      8  C   LIG    1       22.749 -18.134   4.619  0.00  0.00    +0.039 A 
ATOM      9  C   LIG    1       23.425 -16.938   4.361  0.00  0.00    +0.012 A 
ENDBRANCH   1   2
BRANCH   1  11
ATOM     10  C   LIG    1       27.359 -16.868   4.590  0.00  0.00    +0.017 C 
ATOM     11  C   LIG    1       26.980 -15.701   3.642  0.00  0.00    +0.076 C 
BRANCH  11  12
ATOM     12  C   LIG    1       27.612 -14.430   4.233  0.00  0.00    +0.086 A 
ATOM     13  C   LIG    1       28.356 -13.570   3.449  0.00  0.00    +0.163 A 
ATOM     14  F   LIG    1       28.545 -13.788   2.135  0.00  0.00    -0.202 F 
ATOM     15  C   LIG    1       28.932 -12.483   4.061  0.00  0.00    +0.152 A 
ATOM     16  N   LIG    1       28.752 -12.188   5.367  0.00  0.00    -0.241 NA
ATOM     17  C   LIG    1       27.998 -13.057   6.046  0.00  0.00    +0.221 A 
ATOM     18  N   LIG    1       27.465 -14.197   5.567  0.00  0.00    -0.237 NA
ENDBRANCH  11  12
ENDBRANCH   1  11
BRANCH   1  19
ATOM     19  O   LIG    1       25.259 -15.267   1.968  0.00  0.00    -0.381 OA
ATOM     20  H   LIG    1       24.564 -15.864   1.624  0.00  0.00    +0.211 HD
ENDBRANCH   1  19
BRANCH   1  21
ATOM     21  C   LIG    1       24.765 -14.425   4.166  0.00  0.00    +0.185 C 
BRANCH  21  22
ATOM     22  N   LIG    1       24.573 -13.203   3.396  0.00  0.00    -0.249 N 
ATOM     23  N   LIG    1       25.451 -12.824   2.445  0.00  0.00    -0.158 NA
ATOM     24  C   LIG    1       24.844 -11.742   1.944  0.00  0.00    +0.244 A 
ATOM     25  N   LIG    1       23.625 -11.452   2.485  0.00  0.00    -0.223 NA
ATOM     26  C   LIG    1       23.475 -12.397   3.388  0.00  0.00    +0.219 A 
ENDBRANCH  21  22
ENDBRANCH   1  21
TORSDOF 6
ENDMDL
MODEL 8
REMARK VINA RESULT:      -1.3      1.205      1.210
REMARK  Name = *****
REMARK                            x       y       z     vdW  Elec       q    Type
REMARK                         _______ _______ _______ _____ _____    ______ ____
ROOT
ATOM      1  C   LIG    1       26.075 -17.756   3.571  0.00  0.00    +0.121 C 
ENDROOT
BRANCH   1   2
ATOM      2  C   LIG    1       26.936 -18.622   4.514  0.00  0.00    +0.022 A 
ATOM      3  C   LIG    1       28.227 -18.218   4.897  0.00  0.00    +0.132 A 
ATOM      4  F   LIG    1       28.732 -17.067   4.429  0.00  0.00    -0.205 F 
ATOM      5  C   LIG    1       29.018 -18.982   5.755  0.00  0.00    +0.077 A 
ATOM      6  C   LIG    1       28.530 -20.187   6.231  0.00  0.00    +0.126 A 
ATOM      7  F   LIG    1       29.280 -20.931   7.056  0.00  0.00    -0.205 F 
ATOM      8  C   LIG    1       27.270 -20.638   5.866  0.00  0.00    +0.039 A 
ATOM      9  C   LIG    1       26.474 -19.852   5.027  0.00  0.00    +0.012 A 
ENDBRANCH   1   2
BRANCH   1  11
ATOM     10  C   LIG    1       24.021 -16.179   4.008  0.00  0.00    +0.017 C 
ATOM     11  C   LIG    1       25.530 -16.421   4.268  0.00  0.00    +0.076 C 
BRANCH  11  12
ATOM     12  C   LIG    1       26.261 -15.132   3.859  0.00  0.00    +0.086 A 
ATOM     13  C   LIG    1       26.672 -14.212   4.805  0.00  0.00    +0.163 A 
ATOM     14  F   LIG    1       26.474 -14.407   6.121  0.00  0.00    -0.202 F 
ATOM     15  C   LIG    1       27.271 -13.060   4.357  0.00  0.00    +0.152 A 
ATOM     16  N   LIG    1       27.531 -12.818   3.053  0.00  0.00    -0.241 NA
ATOM     17  C   LIG    1       27.125 -13.771   2.209  0.00  0.00    +0.221 A 
ATOM     18  N   LIG    1       26.448 -14.890   2.532  0.00  0.00    -0.237 NA
ENDBRANCH  11  12
ENDBRANCH   1  11
BRANCH   1  19
ATOM     19  O   LIG    1       26.860 -17.323   2.432  0.00  0.00    -0.381 OA
ATOM     20  H   LIG    1       27.075 -18.140   1.937  0.00  0.00    +0.211 HD
ENDBRANCH   1  19
BRANCH   1  21
ATOM     21  C   LIG    1       24.900 -18.603   2.984  0.00  0.00    +0.185 C 
BRANCH  21  22
ATOM     22  N   LIG    1       24.054 -19.247   3.980  0.00  0.00    -0.249 N 
ATOM     23  N   LIG    1       23.092 -18.565   4.635  0.00  0.00    -0.158 NA
ATOM     24  C   LIG    1       22.519 -19.541   5.347  0.00  0.00    +0.244 A 
ATOM     25  N   LIG    1       23.026 -20.792   5.142  0.00  0.00    -0.223 NA
ATOM     26  C   LIG    1       23.983 -20.577   4.266  0.00  0.00    +0.219 A 
ENDBRANCH  21  22
ENDBRANCH   1  21
TORSDOF 6
ENDMDL
MODEL 9
REMARK VINA RESULT:      -1.1      2.641      6.131
REMARK  Name = *****
REMARK                            x       y       z     vdW  Elec       q    Type
REMARK                         _______ _______ _______ _____ _____    ______ ____
ROOT
ATOM      1  C   LIG    1       25.346 -18.499   3.702  0.00  0.00    +0.121 C 
ENDROOT
BRANCH   1   2
ATOM      2  C   LIG    1       23.803 -18.491   3.708  0.00  0.00    +0.022 A 
ATOM      3  C   LIG    1       23.068 -19.505   3.070  0.00  0.00    +0.132 A 
ATOM      4  F   LIG    1       23.711 -20.495   2.432  0.00  0.00    -0.205 F 
ATOM      5  C   LIG    1       21.673 -19.522   3.071  0.00  0.00    +0.077 A 
ATOM      6  C   LIG    1       20.986 -18.498   3.701  0.00  0.00    +0.126 A 
ATOM      7  F   LIG    1       19.645 -18.502   3.709  0.00  0.00    -0.205 F 
ATOM      8  C   LIG    1       21.667 -17.465   4.327  0.00  0.00    +0.039 A 
ATOM      9  C   LIG    1       23.064 -17.471   4.344  0.00  0.00    +0.012 A 
ENDBRANCH   1   2
BRANCH   1  11
ATOM     10  C   LIG    1       24.956 -20.629   5.187  0.00  0.00    +0.017 C 
ATOM     11  C   LIG    1       25.969 -19.838   4.320  0.00  0.00    +0.076 C 
BRANCH  11  12
ATOM     12  C   LIG    1       27.223 -19.631   5.184  0.00  0.00    +0.086 A 
ATOM     13  C   LIG    1       27.451 -20.400   6.310  0.00  0.00    +0.163 A 
ATOM     14  F   LIG    1       26.605 -21.375   6.690  0.00  0.00    -0.202 F 
ATOM     15  C   LIG    1       28.567 -20.120   7.060  0.00  0.00    +0.152 A 
ATOM     16  N   LIG    1       29.475 -19.180   6.715  0.00  0.00    -0.241 NA
ATOM     17  C   LIG    1       29.191 -18.501   5.599  0.00  0.00    +0.221 A 
ATOM     18  N   LIG    1       28.083 -18.632   4.844  0.00  0.00    -0.237 NA
ENDBRANCH  11  12
ENDBRANCH   1  11
BRANCH   1  19
ATOM     19  O   LIG    1       25.842 -18.414   2.343  0.00  0.00    -0.381 OA
ATOM     20  H   LIG    1       26.358 -19.234   2.200  0.00  0.00    +0.211 HD
ENDBRANCH   1  19
BRANCH   1  21
ATOM     21  C   LIG    1       25.894 -17.233   4.436  0.00  0.00    +0.185 C 
BRANCH  21  22
ATOM     22  N   LIG    1       25.942 -16.026   3.621  0.00  0.00    -0.249 N 
ATOM     23  N   LIG    1       24.908 -15.161   3.580  0.00  0.00    -0.158 NA
ATOM     24  C   LIG    1       25.414 -14.185   2.817  0.00  0.00    +0.244 A 
ATOM     25  N   LIG    1       26.709 -14.360   2.423  0.00  0.00    -0.223 NA
ATOM     26  C   LIG    1       27.020 -15.523   2.955  0.00  0.00    +0.219 A 
ENDBRANCH  21  22
ENDBRANCH   1  21
TORSDOF 6
ENDMDL
