MODEL 1
REMARK VINA RESULT:      -6.5      0.000      0.000
REMARK  Name = *****
REMARK                            x       y       z     vdW  Elec       q    Type
REMARK                         _______ _______ _______ _____ _____    ______ ____
ROOT
ATOM      1  C   LIG    1       23.639 -22.038   6.278  0.00  0.00    +0.132 C 
ATOM      2  C   LIG    1       25.167 -22.377   6.286  0.00  0.00    +0.014 C 
ATOM      3  C   LIG    1       25.779 -21.210   5.443  0.00  0.00    +0.002 C 
ATOM      4  C   LIG    1       26.283 -19.963   6.228  0.00  0.00    -0.003 C 
ATOM      5  C   LIG    1       27.056 -20.324   7.522  0.00  0.00    -0.000 C 
ATOM      6  C   LIG    1       26.144 -21.176   8.402  0.00  0.00    +0.005 C 
ATOM      7  C   LIG    1       28.438 -20.949   7.187  0.00  0.00    +0.019 C 
ATOM      8  C   LIG    1       29.210 -19.926   6.373  0.00  0.00    -0.064 C 
ATOM      9  C   LIG    1       30.331 -19.314   6.793  0.00  0.00    +0.026 C 
ATOM     10  C   LIG    1       30.855 -19.551   8.171  0.00  0.00    +0.080 C 
ATOM     11  C   LIG    1       29.953 -20.311   9.125  0.00  0.00    +0.059 C 
ATOM     12  N   LIG    1       31.985 -19.118   8.641  0.00  0.00    -0.092 NA
ATOM     13  C   LIG    1       28.555 -19.565   5.067  0.00  0.00    +0.031 C 
ATOM     14  C   LIG    1       29.259 -21.444   8.389  0.00  0.00    +0.014 C 
ATOM     15  C   LIG    1       27.143 -19.034   5.332  0.00  0.00    +0.008 C 
ATOM     16  C   LIG    1       24.664 -20.792   4.451  0.00  0.00    +0.008 C 
ATOM     17  C   LIG    1       25.746 -22.481   7.732  0.00  0.00    +0.011 C 
ATOM     18  C   LIG    1       23.366 -21.472   4.883  0.00  0.00    +0.049 C 
ENDROOT
BRANCH   1  20
ATOM     19  C   LIG    1       22.079 -24.075   6.875  0.00  0.00    +0.007 C 
ATOM     20  C   LIG    1       22.784 -23.155   6.605  0.00  0.00    -0.070 C 
ENDBRANCH   1  20
BRANCH  12  21
ATOM     21  O   LIG    1       32.723 -18.416   7.681  0.00  0.00    -0.409 OA
ATOM     22  H   LIG    1       33.442 -19.043   7.476  0.00  0.00    +0.328 HD
ENDBRANCH  12  21
BRANCH   2  23
ATOM     23  C   LIG    1       25.525 -23.767   5.627  0.00  0.00    +0.007 C 
ATOM     24  C   LIG    1       25.900 -24.956   6.499  0.00  0.00    +0.004 C 
ENDBRANCH   2  23
BRANCH   1  25
ATOM     25  O   LIG    1       23.365 -20.984   7.203  0.00  0.00    -0.376 OA
ATOM     26  H   LIG    1       22.592 -21.256   7.726  0.00  0.00    +0.211 HD
ENDBRANCH   1  25
TORSDOF 4
ENDMDL
MODEL 2
REMARK VINA RESULT:      -5.9      8.614     10.354
REMARK  Name = *****
REMARK                            x       y       z     vdW  Elec       q    Type
REMARK                         _______ _______ _______ _____ _____    ______ ____
ROOT
ATOM      1  C   LIG    1       23.510 -31.746  11.904  0.00  0.00    +0.132 C 
ATOM      2  C   LIG    1       24.006 -30.331  11.456  0.00  0.00    +0.014 C 
ATOM      3  C   LIG    1       23.010 -29.373  12.190  0.00  0.00    +0.002 C 
ATOM      4  C   LIG    1       23.448 -28.836  13.585  0.00  0.00    -0.003 C 
ATOM      5  C   LIG    1       24.938 -28.413  13.638  0.00  0.00    -0.000 C 
ATOM      6  C   LIG    1       25.791 -29.614  13.238  0.00  0.00    +0.005 C 
ATOM      7  C   LIG    1       25.177 -27.117  12.816  0.00  0.00    +0.019 C 
ATOM      8  C   LIG    1       24.293 -26.035  13.413  0.00  0.00    -0.064 C 
ATOM      9  C   LIG    1       24.756 -24.936  14.032  0.00  0.00    +0.026 C 
ATOM     10  C   LIG    1       26.221 -24.749  14.254  0.00  0.00    +0.080 C 
ATOM     11  C   LIG    1       27.115 -25.939  13.963  0.00  0.00    +0.059 C 
ATOM     12  N   LIG    1       26.790 -23.680  14.723  0.00  0.00    -0.092 NA
ATOM     13  C   LIG    1       22.821 -26.342  13.344  0.00  0.00    +0.031 C 
ATOM     14  C   LIG    1       26.637 -26.650  12.708  0.00  0.00    +0.014 C 
ATOM     15  C   LIG    1       22.542 -27.670  14.057  0.00  0.00    +0.008 C 
ATOM     16  C   LIG    1       21.692 -30.178  12.327  0.00  0.00    +0.008 C 
ATOM     17  C   LIG    1       25.504 -30.081  11.820  0.00  0.00    +0.011 C 
ATOM     18  C   LIG    1       21.986 -31.633  11.962  0.00  0.00    +0.049 C 
ENDROOT
BRANCH   1  20
ATOM     19  C   LIG    1       24.329 -33.715  10.357  0.00  0.00    +0.007 C 
ATOM     20  C   LIG    1       23.959 -32.825  11.056  0.00  0.00    -0.070 C 
ENDBRANCH   1  20
BRANCH  12  21
ATOM     21  O   LIG    1       25.868 -22.656  14.971  0.00  0.00    -0.409 OA
ATOM     22  H   LIG    1       25.069 -22.985  14.520  0.00  0.00    +0.328 HD
ENDBRANCH  12  21
BRANCH   2  23
ATOM     23  C   LIG    1       23.943 -30.086   9.897  0.00  0.00    +0.007 C 
ATOM     24  C   LIG    1       25.202 -29.718   9.127  0.00  0.00    +0.004 C 
ENDBRANCH   2  23
BRANCH   1  25
ATOM     25  O   LIG    1       23.946 -32.020  13.238  0.00  0.00    -0.376 OA
ATOM     26  H   LIG    1       24.655 -32.683  13.176  0.00  0.00    +0.211 HD
ENDBRANCH   1  25
TORSDOF 4
ENDMDL
MODEL 3
REMARK VINA RESULT:      -5.3      8.813     11.221
REMARK  Name = *****
REMARK                            x       y       z     vdW  Elec       q    Type
REMARK                         _______ _______ _______ _____ _____    ______ ____
ROOT
ATOM      1  C   LIG    1       19.988 -31.161  12.482  0.00  0.00    +0.132 C 
ATOM      2  C   LIG    1       21.074 -30.578  13.447  0.00  0.00    +0.014 C 
ATOM      3  C   LIG    1       22.391 -30.748  12.619  0.00  0.00    +0.002 C 
ATOM      4  C   LIG    1       22.837 -29.535  11.750  0.00  0.00    -0.003 C 
ATOM      5  C   LIG    1       22.676 -28.173  12.470  0.00  0.00    -0.000 C 
ATOM      6  C   LIG    1       21.215 -28.021  12.886  0.00  0.00    +0.005 C 
ATOM      7  C   LIG    1       23.717 -28.022  13.613  0.00  0.00    +0.019 C 
ATOM      8  C   LIG    1       25.095 -28.133  12.984  0.00  0.00    -0.064 C 
ATOM      9  C   LIG    1       25.989 -27.131  12.936  0.00  0.00    +0.026 C 
ATOM     10  C   LIG    1       25.633 -25.771  13.441  0.00  0.00    +0.080 C 
ATOM     11  C   LIG    1       24.175 -25.528  13.783  0.00  0.00    +0.059 C 
ATOM     12  N   LIG    1       26.446 -24.766  13.561  0.00  0.00    -0.092 NA
ATOM     13  C   LIG    1       25.356 -29.456  12.314  0.00  0.00    +0.031 C 
ATOM     14  C   LIG    1       23.594 -26.752  14.470  0.00  0.00    +0.014 C 
ATOM     15  C   LIG    1       24.292 -29.704  11.240  0.00  0.00    +0.008 C 
ATOM     16  C   LIG    1       22.150 -31.983  11.714  0.00  0.00    +0.008 C 
ATOM     17  C   LIG    1       20.775 -29.103  13.859  0.00  0.00    +0.011 C 
ATOM     18  C   LIG    1       20.667 -32.343  11.788  0.00  0.00    +0.049 C 
ENDROOT
BRANCH   1  20
ATOM     19  C   LIG    1       17.737 -31.835  13.674  0.00  0.00    +0.007 C 
ATOM     20  C   LIG    1       18.754 -31.530  13.135  0.00  0.00    -0.070 C 
ENDBRANCH   1  20
BRANCH  12  21
ATOM     21  O   LIG    1       27.756 -25.100  13.200  0.00  0.00    -0.409 OA
ATOM     22  H   LIG    1       28.232 -25.006  14.046  0.00  0.00    +0.328 HD
ENDBRANCH  12  21
BRANCH   2  23
ATOM     23  C   LIG    1       21.197 -31.346  14.822  0.00  0.00    +0.007 C 
ATOM     24  C   LIG    1       22.551 -31.492  15.500  0.00  0.00    +0.004 C 
ENDBRANCH   2  23
BRANCH   1  25
ATOM     25  O   LIG    1       19.681 -30.212  11.458  0.00  0.00    -0.376 OA
ATOM     26  H   LIG    1       19.703 -29.331  11.869  0.00  0.00    +0.211 HD
ENDBRANCH   1  25
TORSDOF 4
ENDMDL
MODEL 4
REMARK VINA RESULT:      -5.2      8.610     10.866
REMARK  Name = *****
REMARK                            x       y       z     vdW  Elec       q    Type
REMARK                         _______ _______ _______ _____ _____    ______ ____
ROOT
ATOM      1  C   LIG    1       24.692 -33.065   6.721  0.00  0.00    +0.132 C 
ATOM      2  C   LIG    1       24.675 -31.576   7.200  0.00  0.00    +0.014 C 
ATOM      3  C   LIG    1       23.807 -31.646   8.500  0.00  0.00    +0.002 C 
ATOM      4  C   LIG    1       24.568 -31.833   9.846  0.00  0.00    -0.003 C 
ATOM      5  C   LIG    1       25.852 -30.970   9.949  0.00  0.00    -0.000 C 
ATOM      6  C   LIG    1       26.759 -31.318   8.771  0.00  0.00    +0.005 C 
ATOM      7  C   LIG    1       25.498 -29.465  10.102  0.00  0.00    +0.019 C 
ATOM      8  C   LIG    1       24.658 -29.325  11.359  0.00  0.00    -0.064 C 
ATOM      9  C   LIG    1       25.049 -28.662  12.461  0.00  0.00    +0.026 C 
ATOM     10  C   LIG    1       26.420 -28.076  12.548  0.00  0.00    +0.080 C 
ATOM     11  C   LIG    1       27.400 -28.460  11.455  0.00  0.00    +0.059 C 
ATOM     12  N   LIG    1       26.864 -27.315  13.502  0.00  0.00    -0.092 NA
ATOM     13  C   LIG    1       23.360 -30.086  11.315  0.00  0.00    +0.031 C 
ATOM     14  C   LIG    1       26.689 -28.494  10.113  0.00  0.00    +0.014 C 
ATOM     15  C   LIG    1       23.646 -31.570  11.064  0.00  0.00    +0.008 C 
ATOM     16  C   LIG    1       22.831 -32.830   8.279  0.00  0.00    +0.008 C 
ATOM     17  C   LIG    1       26.111 -31.008   7.431  0.00  0.00    +0.011 C 
ATOM     18  C   LIG    1       23.296 -33.601   7.045  0.00  0.00    +0.049 C 
ENDROOT
BRANCH   1  20
ATOM     19  C   LIG    1       25.341 -33.376   4.187  0.00  0.00    +0.007 C 
ATOM     20  C   LIG    1       25.048 -33.236   5.332  0.00  0.00    -0.070 C 
ENDBRANCH   1  20
BRANCH  12  21
ATOM     21  O   LIG    1       25.882 -27.043  14.461  0.00  0.00    -0.409 OA
ATOM     22  H   LIG    1       26.239 -26.250  14.902  0.00  0.00    +0.328 HD
ENDBRANCH  12  21
BRANCH   2  23
ATOM     23  C   LIG    1       24.025 -30.571   6.169  0.00  0.00    +0.007 C 
ATOM     24  C   LIG    1       24.343 -29.085   6.241  0.00  0.00    +0.004 C 
ENDBRANCH   2  23
BRANCH   1  25
ATOM     25  O   LIG    1       25.610 -33.825   7.510  0.00  0.00    -0.376 OA
ATOM     26  H   LIG    1       26.503 -33.618   7.188  0.00  0.00    +0.211 HD
ENDBRANCH   1  25
TORSDOF 4
ENDMDL
MODEL 5
REMARK VINA RESULT:      -5.2      9.434     11.041
REMARK  Name = *****
REMARK                            x       y       z     vdW  Elec       q    Type
REMARK                         _______ _______ _______ _____ _____    ______ ____
ROOT
ATOM      1  C   LIG    1       20.570 -28.563  14.055  0.00  0.00    +0.132 C 
ATOM      2  C   LIG    1       21.787 -29.147  13.263  0.00  0.00    +0.014 C 
ATOM      3  C   LIG    1       22.725 -27.903  13.115  0.00  0.00    +0.002 C 
ATOM      4  C   LIG    1       23.818 -27.711  14.208  0.00  0.00    -0.003 C 
ATOM      5  C   LIG    1       24.524 -29.032  14.607  0.00  0.00    -0.000 C 
ATOM      6  C   LIG    1       23.461 -30.018  15.085  0.00  0.00    +0.005 C 
ATOM      7  C   LIG    1       25.442 -29.539  13.462  0.00  0.00    +0.019 C 
ATOM      8  C   LIG    1       26.464 -28.450  13.187  0.00  0.00    -0.064 C 
ATOM      9  C   LIG    1       27.784 -28.578  13.406  0.00  0.00    +0.026 C 
ATOM     10  C   LIG    1       28.333 -29.816  14.036  0.00  0.00    +0.080 C 
ATOM     11  C   LIG    1       27.328 -30.793  14.615  0.00  0.00    +0.059 C 
ATOM     12  N   LIG    1       29.591 -30.103  14.181  0.00  0.00    -0.092 NA
ATOM     13  C   LIG    1       25.862 -27.147  12.733  0.00  0.00    +0.031 C 
ATOM     14  C   LIG    1       26.122 -30.898  13.697  0.00  0.00    +0.014 C 
ATOM     15  C   LIG    1       24.867 -26.650  13.786  0.00  0.00    +0.008 C 
ATOM     16  C   LIG    1       21.779 -26.675  13.097  0.00  0.00    +0.008 C 
ATOM     17  C   LIG    1       22.453 -30.353  13.997  0.00  0.00    +0.011 C 
ATOM     18  C   LIG    1       20.385 -27.146  13.510  0.00  0.00    +0.049 C 
ENDROOT
BRANCH   1  20
ATOM     19  C   LIG    1       18.379 -30.015  13.887  0.00  0.00    +0.007 C 
ATOM     20  C   LIG    1       19.369 -29.359  13.963  0.00  0.00    -0.070 C 
ENDBRANCH   1  20
BRANCH  12  21
ATOM     21  O   LIG    1       30.424 -29.124  13.627  0.00  0.00    -0.409 OA
ATOM     22  H   LIG    1       31.091 -29.661  13.160  0.00  0.00    +0.328 HD
ENDBRANCH  12  21
BRANCH   2  23
ATOM     23  C   LIG    1       21.418 -29.719  11.838  0.00  0.00    +0.007 C 
ATOM     24  C   LIG    1       22.512 -30.221  10.907  0.00  0.00    +0.004 C 
ENDBRANCH   2  23
BRANCH   1  25
ATOM     25  O   LIG    1       20.905 -28.424  15.438  0.00  0.00    -0.376 OA
ATOM     26  H   LIG    1       21.708 -28.949  15.591  0.00  0.00    +0.211 HD
ENDBRANCH   1  25
TORSDOF 4
ENDMDL
MODEL 6
REMARK VINA RESULT:      -5.0      8.462     10.781
REMARK  Name = *****
REMARK                            x       y       z     vdW  Elec       q    Type
REMARK                         _______ _______ _______ _____ _____    ______ ____
ROOT
ATOM      1  C   LIG    1       26.122 -32.474   8.598  0.00  0.00    +0.132 C 
ATOM      2  C   LIG    1       25.811 -30.962   8.856  0.00  0.00    +0.014 C 
ATOM      3  C   LIG    1       24.580 -31.027   9.821  0.00  0.00    +0.002 C 
ATOM      4  C   LIG    1       24.880 -30.993  11.349  0.00  0.00    -0.003 C 
ATOM      5  C   LIG    1       25.974 -29.965  11.735  0.00  0.00    -0.000 C 
ATOM      6  C   LIG    1       27.241 -30.295  10.950  0.00  0.00    +0.005 C 
ATOM      7  C   LIG    1       25.449 -28.511  11.579  0.00  0.00    +0.019 C 
ATOM      8  C   LIG    1       24.239 -28.369  12.486  0.00  0.00    -0.064 C 
ATOM      9  C   LIG    1       24.189 -27.565  13.561  0.00  0.00    +0.026 C 
ATOM     10  C   LIG    1       25.396 -26.801  13.995  0.00  0.00    +0.080 C 
ATOM     11  C   LIG    1       26.708 -27.150  13.317  0.00  0.00    +0.059 C 
ATOM     12  N   LIG    1       25.434 -25.905  14.935  0.00  0.00    -0.092 NA
ATOM     13  C   LIG    1       23.103 -29.293  12.137  0.00  0.00    +0.031 C 
ATOM     14  C   LIG    1       26.475 -27.396  11.836  0.00  0.00    +0.014 C 
ATOM     15  C   LIG    1       23.594 -30.744  12.177  0.00  0.00    +0.008 C 
ATOM     16  C   LIG    1       23.845 -32.343   9.459  0.00  0.00    +0.008 C 
ATOM     17  C   LIG    1       27.034 -30.193   9.448  0.00  0.00    +0.011 C 
ATOM     18  C   LIG    1       24.754 -33.155   8.538  0.00  0.00    +0.049 C 
ENDROOT
BRANCH   1  20
ATOM     19  C   LIG    1       27.581 -32.922   6.451  0.00  0.00    +0.007 C 
ATOM     20  C   LIG    1       26.922 -32.720   7.421  0.00  0.00    -0.070 C 
ENDBRANCH   1  20
BRANCH  12  21
ATOM     21  O   LIG    1       24.174 -25.679  15.500  0.00  0.00    -0.409 OA
ATOM     22  H   LIG    1       23.930 -26.567  15.821  0.00  0.00    +0.328 HD
ENDBRANCH  12  21
BRANCH   2  23
ATOM     23  C   LIG    1       25.436 -30.147   7.556  0.00  0.00    +0.007 C 
ATOM     24  C   LIG    1       25.477 -28.626   7.566  0.00  0.00    +0.004 C 
ENDBRANCH   2  23
BRANCH   1  25
ATOM     25  O   LIG    1       26.804 -33.033   9.723  0.00  0.00    -0.376 OA
ATOM     26  H   LIG    1       26.386 -32.669  10.521  0.00  0.00    +0.211 HD
ENDBRANCH   1  25
TORSDOF 4
ENDMDL
MODEL 7
REMARK VINA RESULT:      -4.9      8.827     10.589
REMARK  Name = *****
REMARK                            x       y       z     vdW  Elec       q    Type
REMARK                         _______ _______ _______ _____ _____    ______ ____
ROOT
ATOM      1  C   LIG    1       24.138 -31.749   6.126  0.00  0.00    +0.132 C 
ATOM      2  C   LIG    1       24.601 -31.982   7.602  0.00  0.00    +0.014 C 
ATOM      3  C   LIG    1       25.672 -30.858   7.804  0.00  0.00    +0.002 C 
ATOM      4  C   LIG    1       25.174 -29.512   8.411  0.00  0.00    -0.003 C 
ATOM      5  C   LIG    1       24.178 -29.700   9.583  0.00  0.00    -0.000 C 
ATOM      6  C   LIG    1       22.997 -30.527   9.081  0.00  0.00    +0.005 C 
ATOM      7  C   LIG    1       24.900 -30.257  10.841  0.00  0.00    +0.019 C 
ATOM      8  C   LIG    1       25.984 -29.263  11.216  0.00  0.00    -0.064 C 
ATOM      9  C   LIG    1       25.990 -28.540  12.349  0.00  0.00    +0.026 C 
ATOM     10  C   LIG    1       24.843 -28.613  13.302  0.00  0.00    +0.080 C 
ATOM     11  C   LIG    1       23.601 -29.342  12.824  0.00  0.00    +0.059 C 
ATOM     12  N   LIG    1       24.792 -28.063  14.477  0.00  0.00    -0.092 NA
ATOM     13  C   LIG    1       27.030 -29.068  10.151  0.00  0.00    +0.031 C 
ATOM     14  C   LIG    1       23.999 -30.583  12.043  0.00  0.00    +0.014 C 
ATOM     15  C   LIG    1       26.358 -28.613   8.851  0.00  0.00    +0.008 C 
ATOM     16  C   LIG    1       26.275 -30.609   6.398  0.00  0.00    +0.008 C 
ATOM     17  C   LIG    1       23.417 -31.913   8.617  0.00  0.00    +0.011 C 
ATOM     18  C   LIG    1       25.403 -31.333   5.374  0.00  0.00    +0.049 C 
ENDROOT
BRANCH   1  20
ATOM     19  C   LIG    1       22.938 -33.825   5.034  0.00  0.00    +0.007 C 
ATOM     20  C   LIG    1       23.480 -32.887   5.527  0.00  0.00    -0.070 C 
ENDBRANCH   1  20
BRANCH  12  21
ATOM     21  O   LIG    1       25.983 -27.403  14.804  0.00  0.00    -0.409 OA
ATOM     22  H   LIG    1       25.744 -26.945  15.631  0.00  0.00    +0.328 HD
ENDBRANCH  12  21
BRANCH   2  23
ATOM     23  C   LIG    1       25.249 -33.399   7.863  0.00  0.00    +0.007 C 
ATOM     24  C   LIG    1       26.185 -33.608   9.043  0.00  0.00    +0.004 C 
ENDBRANCH   2  23
BRANCH   1  25
ATOM     25  O   LIG    1       23.244 -30.636   6.061  0.00  0.00    -0.376 OA
ATOM     26  H   LIG    1       23.787 -29.831   6.110  0.00  0.00    +0.211 HD
ENDBRANCH   1  25
TORSDOF 4
ENDMDL
MODEL 8
REMARK VINA RESULT:      -4.9     10.251     12.479
REMARK  Name = *****
REMARK                            x       y       z     vdW  Elec       q    Type
REMARK                         _______ _______ _______ _____ _____    ______ ____
ROOT
ATOM      1  C   LIG    1       27.594 -28.031  14.296  0.00  0.00    +0.132 C 
ATOM      2  C   LIG    1       26.460 -29.109  14.295  0.00  0.00    +0.014 C 
ATOM      3  C   LIG    1       25.165 -28.240  14.423  0.00  0.00    +0.002 C 
ATOM      4  C   LIG    1       24.461 -27.827  13.096  0.00  0.00    -0.003 C 
ATOM      5  C   LIG    1       24.393 -28.973  12.055  0.00  0.00    -0.000 C 
ATOM      6  C   LIG    1       25.815 -29.452  11.776  0.00  0.00    +0.005 C 
ATOM      7  C   LIG    1       23.391 -30.072  12.504  0.00  0.00    +0.019 C 
ATOM      8  C   LIG    1       22.033 -29.409  12.657  0.00  0.00    -0.064 C 
ATOM      9  C   LIG    1       20.965 -29.684  11.889  0.00  0.00    +0.026 C 
ATOM     10  C   LIG    1       21.080 -30.631  10.741  0.00  0.00    +0.080 C 
ATOM     11  C   LIG    1       22.479 -31.072  10.354  0.00  0.00    +0.059 C 
ATOM     12  N   LIG    1       20.098 -31.066  10.011  0.00  0.00    -0.092 NA
ATOM     13  C   LIG    1       21.999 -28.321  13.697  0.00  0.00    +0.031 C 
ATOM     14  C   LIG    1       23.308 -31.314  11.603  0.00  0.00    +0.014 C 
ATOM     15  C   LIG    1       23.044 -27.254  13.356  0.00  0.00    +0.008 C 
ATOM     16  C   LIG    1       25.595 -26.974  15.206  0.00  0.00    +0.008 C 
ATOM     17  C   LIG    1       26.492 -30.008  13.019  0.00  0.00    +0.011 C 
ATOM     18  C   LIG    1       27.121 -26.958  15.278  0.00  0.00    +0.049 C 
ENDROOT
BRANCH   1  20
ATOM     19  C   LIG    1       29.980 -28.977  14.889  0.00  0.00    +0.007 C 
ATOM     20  C   LIG    1       28.902 -28.550  14.621  0.00  0.00    -0.070 C 
ENDBRANCH   1  20
BRANCH  12  21
ATOM     21  O   LIG    1       18.860 -30.581  10.448  0.00  0.00    -0.409 OA
ATOM     22  H   LIG    1       18.819 -29.706  10.019  0.00  0.00    +0.328 HD
ENDBRANCH  12  21
BRANCH   2  23
ATOM     23  C   LIG    1       26.542 -30.136  15.492  0.00  0.00    +0.007 C 
ATOM     24  C   LIG    1       25.662 -31.377  15.500  0.00  0.00    +0.004 C 
ENDBRANCH   2  23
BRANCH   1  25
ATOM     25  O   LIG    1       27.674 -27.401  13.015  0.00  0.00    -0.376 OA
ATOM     26  H   LIG    1       26.809 -27.517  12.585  0.00  0.00    +0.211 HD
ENDBRANCH   1  25
TORSDOF 4
ENDMDL
MODEL 9
REMARK VINA RESULT:      -4.9      9.924     12.489
REMARK  Name = *****
REMARK                            x       y       z     vdW  Elec       q    Type
REMARK                         _______ _______ _______ _____ _____    ______ ____
ROOT
ATOM      1  C   LIG    1       27.761 -29.339  13.288  0.00  0.00    +0.132 C 
ATOM      2  C   LIG    1       26.365 -28.708  12.967  0.00  0.00    +0.014 C 
ATOM      3  C   LIG    1       26.012 -29.350  11.584  0.00  0.00    +0.002 C 
ATOM      4  C   LIG    1       25.163 -30.656  11.610  0.00  0.00    -0.003 C 
ATOM      5  C   LIG    1       24.004 -30.613  12.639  0.00  0.00    -0.000 C 
ATOM      6  C   LIG    1       24.598 -30.335  14.018  0.00  0.00    +0.005 C 
ATOM      7  C   LIG    1       22.890 -29.633  12.179  0.00  0.00    +0.019 C 
ATOM      8  C   LIG    1       22.389 -30.121  10.831  0.00  0.00    -0.064 C 
ATOM      9  C   LIG    1       21.149 -30.588  10.607  0.00  0.00    +0.026 C 
ATOM     10  C   LIG    1       20.181 -30.741  11.734  0.00  0.00    +0.080 C 
ATOM     11  C   LIG    1       20.731 -30.570  13.138  0.00  0.00    +0.059 C 
ATOM     12  N   LIG    1       18.927 -31.060  11.623  0.00  0.00    -0.092 NA
ATOM     13  C   LIG    1       23.443 -30.134   9.756  0.00  0.00    +0.031 C 
ATOM     14  C   LIG    1       21.730 -29.425  13.165  0.00  0.00    +0.014 C 
ATOM     15  C   LIG    1       24.618 -31.010  10.203  0.00  0.00    +0.008 C 
ATOM     16  C   LIG    1       27.375 -29.624  10.898  0.00  0.00    +0.008 C 
ATOM     17  C   LIG    1       25.310 -28.994  14.082  0.00  0.00    +0.011 C 
ATOM     18  C   LIG    1       28.476 -29.428  11.940  0.00  0.00    +0.049 C 
ENDROOT
BRANCH   1  20
ATOM     19  C   LIG    1       29.150 -28.017  15.095  0.00  0.00    +0.007 C 
ATOM     20  C   LIG    1       28.522 -28.614  14.279  0.00  0.00    -0.070 C 
ENDBRANCH   1  20
BRANCH  12  21
ATOM     21  O   LIG    1       18.536 -31.210  10.288  0.00  0.00    -0.409 OA
ATOM     22  H   LIG    1       18.473 -32.180  10.200  0.00  0.00    +0.328 HD
ENDBRANCH  12  21
BRANCH   2  23
ATOM     23  C   LIG    1       26.379 -27.133  12.844  0.00  0.00    +0.007 C 
ATOM     24  C   LIG    1       25.287 -26.303  13.502  0.00  0.00    +0.004 C 
ENDBRANCH   2  23
BRANCH   1  25
ATOM     25  O   LIG    1       27.598 -30.682  13.750  0.00  0.00    -0.376 OA
ATOM     26  H   LIG    1       27.611 -31.257  12.966  0.00  0.00    +0.211 HD
ENDBRANCH   1  25
TORSDOF 4
ENDMDL
