MODEL 1
REMARK VINA RESULT:      -6.7      0.000      0.000
REMARK  Name = *****
REMARK                            x       y       z     vdW  Elec       q    Type
REMARK                         _______ _______ _______ _____ _____    ______ ____
ROOT
ATOM      1  C   LIG    1       24.280 -21.459   6.619  0.00  0.00    +0.081 C 
ENDROOT
BRANCH   1   3
ATOM      2  C   LIG    1       26.622 -20.469   7.315  0.00  0.00    +0.006 C 
ATOM      3  C   LIG    1       25.139 -20.648   7.571  0.00  0.00    +0.010 C 
ATOM      4  C   LIG    1       26.161 -21.318   8.464  0.00  0.00    +0.006 C 
ENDBRANCH   1   3
BRANCH   1   5
ATOM      5  C   LIG    1       22.959 -20.773   6.336  0.00  0.00    +0.010 C 
ATOM      6  C   LIG    1       22.881 -19.637   5.339  0.00  0.00    +0.006 C 
ATOM      7  C   LIG    1       22.254 -20.961   5.010  0.00  0.00    +0.006 C 
ENDBRANCH   1   5
BRANCH   1   8
ATOM      8  N   LIG    1       24.014 -22.748   7.211  0.00  0.00    -0.296 N 
ATOM      9  H   LIG    1       23.614 -22.783   8.134  0.00  0.00    +0.151 HD
BRANCH   8  10
ATOM     10  C   LIG    1       24.195 -23.922   6.561  0.00  0.00    +0.278 C 
ATOM     11  O   LIG    1       25.333 -23.939   5.819  0.00  0.00    -0.464 OA
ATOM     12  C   LIG    1       25.166 -25.069   4.975  0.00  0.00    +0.255 C 
ATOM     13  C   LIG    1       24.161 -25.918   5.712  0.00  0.00    +0.187 C 
ATOM     14  N   LIG    1       23.436 -24.964   6.557  0.00  0.00    -0.234 NA
ENDBRANCH   8  10
ENDBRANCH   1   8
TORSDOF 4
ENDMDL
MODEL 2
REMARK VINA RESULT:      -6.4      2.100      4.606
REMARK  Name = *****
REMARK                            x       y       z     vdW  Elec       q    Type
REMARK                         _______ _______ _______ _____ _____    ______ ____
ROOT
ATOM      1  C   LIG    1       24.491 -21.582   6.620  0.00  0.00    +0.081 C 
ENDROOT
BRANCH   1   3
ATOM      2  C   LIG    1       22.475 -21.056   5.005  0.00  0.00    +0.006 C 
ATOM      3  C   LIG    1       23.072 -21.094   6.397  0.00  0.00    +0.010 C 
ATOM      4  C   LIG    1       22.800 -19.772   5.711  0.00  0.00    +0.006 C 
ENDBRANCH   1   3
BRANCH   1   5
ATOM      5  C   LIG    1       24.514 -22.953   7.266  0.00  0.00    +0.010 C 
ATOM      6  C   LIG    1       23.758 -24.108   6.645  0.00  0.00    +0.006 C 
ATOM      7  C   LIG    1       25.259 -24.103   6.622  0.00  0.00    +0.006 C 
ENDBRANCH   1   5
BRANCH   1   8
ATOM      8  N   LIG    1       25.175 -20.652   7.485  0.00  0.00    -0.296 N 
ATOM      9  H   LIG    1       24.657 -20.206   8.224  0.00  0.00    +0.151 HD
BRANCH   8  10
ATOM     10  C   LIG    1       26.505 -20.403   7.414  0.00  0.00    +0.278 C 
ATOM     11  O   LIG    1       26.938 -20.236   6.137  0.00  0.00    -0.464 OA
ATOM     12  C   LIG    1       28.350 -20.336   6.246  0.00  0.00    +0.255 C 
ATOM     13  C   LIG    1       28.619 -20.007   7.693  0.00  0.00    +0.187 C 
ATOM     14  N   LIG    1       27.360 -20.328   8.375  0.00  0.00    -0.234 NA
ENDBRANCH   8  10
ENDBRANCH   1   8
TORSDOF 4
ENDMDL
MODEL 3
REMARK VINA RESULT:      -6.2      1.217      2.987
REMARK  Name = *****
REMARK                            x       y       z     vdW  Elec       q    Type
REMARK                         _______ _______ _______ _____ _____    ______ ____
ROOT
ATOM      1  C   LIG    1       24.657 -22.342   6.253  0.00  0.00    +0.081 C 
ENDROOT
BRANCH   1   3
ATOM      2  C   LIG    1       23.003 -20.296   6.090  0.00  0.00    +0.006 C 
ATOM      3  C   LIG    1       24.207 -21.059   5.578  0.00  0.00    +0.010 C 
ATOM      4  C   LIG    1       22.926 -21.010   4.772  0.00  0.00    +0.006 C 
ENDBRANCH   1   3
BRANCH   1   5
ATOM      5  C   LIG    1       25.975 -22.158   6.977  0.00  0.00    +0.010 C 
ATOM      6  C   LIG    1       26.331 -20.825   7.599  0.00  0.00    +0.006 C 
ATOM      7  C   LIG    1       26.020 -21.998   8.481  0.00  0.00    +0.006 C 
ENDBRANCH   1   5
BRANCH   1   8
ATOM      8  N   LIG    1       24.819 -23.367   5.250  0.00  0.00    -0.296 N 
ATOM      9  H   LIG    1       25.045 -23.091   4.309  0.00  0.00    +0.151 HD
BRANCH   8  10
ATOM     10  C   LIG    1       24.767 -24.693   5.520  0.00  0.00    +0.278 C 
ATOM     11  O   LIG    1       25.864 -25.361   5.076  0.00  0.00    -0.464 OA
ATOM     12  C   LIG    1       25.472 -26.724   5.134  0.00  0.00    +0.255 C 
ATOM     13  C   LIG    1       24.348 -26.729   6.139  0.00  0.00    +0.187 C 
ATOM     14  N   LIG    1       23.831 -25.357   6.106  0.00  0.00    -0.234 NA
ENDBRANCH   8  10
ENDBRANCH   1   8
TORSDOF 4
ENDMDL
MODEL 4
REMARK VINA RESULT:      -6.2      1.900      4.441
REMARK  Name = *****
REMARK                            x       y       z     vdW  Elec       q    Type
REMARK                         _______ _______ _______ _____ _____    ______ ____
ROOT
ATOM      1  C   LIG    1       24.815 -22.227   6.285  0.00  0.00    +0.081 C 
ENDROOT
BRANCH   1   3
ATOM      2  C   LIG    1       25.559 -24.729   6.655  0.00  0.00    +0.006 C 
ATOM      3  C   LIG    1       24.670 -23.554   7.008  0.00  0.00    +0.010 C 
ATOM      4  C   LIG    1       24.101 -24.767   6.303  0.00  0.00    +0.006 C 
ENDBRANCH   1   3
BRANCH   1   5
ATOM      5  C   LIG    1       25.059 -21.089   7.255  0.00  0.00    +0.010 C 
ATOM      6  C   LIG    1       25.917 -21.297   8.484  0.00  0.00    +0.006 C 
ATOM      7  C   LIG    1       26.422 -20.438   7.362  0.00  0.00    +0.006 C 
ENDBRANCH   1   5
BRANCH   1   8
ATOM      8  N   LIG    1       23.602 -21.958   5.552  0.00  0.00    -0.296 N 
ATOM      9  H   LIG    1       22.895 -22.673   5.507  0.00  0.00    +0.151 HD
BRANCH   8  10
ATOM     10  C   LIG    1       23.320 -20.761   4.986  0.00  0.00    +0.278 C 
ATOM     11  O   LIG    1       24.085 -20.506   3.892  0.00  0.00    -0.464 OA
ATOM     12  C   LIG    1       23.895 -19.117   3.666  0.00  0.00    +0.255 C 
ATOM     13  C   LIG    1       22.585 -18.821   4.350  0.00  0.00    +0.187 C 
ATOM     14  N   LIG    1       22.461 -19.876   5.362  0.00  0.00    -0.234 NA
ENDBRANCH   8  10
ENDBRANCH   1   8
TORSDOF 4
ENDMDL
MODEL 5
REMARK VINA RESULT:      -6.2      2.177      4.360
REMARK  Name = *****
REMARK                            x       y       z     vdW  Elec       q    Type
REMARK                         _______ _______ _______ _____ _____    ______ ____
ROOT
ATOM      1  C   LIG    1       25.118 -22.406   6.215  0.00  0.00    +0.081 C 
ENDROOT
BRANCH   1   3
ATOM      2  C   LIG    1       25.958 -21.539   8.558  0.00  0.00    +0.006 C 
ATOM      3  C   LIG    1       26.247 -22.102   7.182  0.00  0.00    +0.010 C 
ATOM      4  C   LIG    1       26.618 -20.675   7.524  0.00  0.00    +0.006 C 
ENDBRANCH   1   3
BRANCH   1   5
ATOM      5  C   LIG    1       25.116 -23.863   5.799  0.00  0.00    +0.010 C 
ATOM      6  C   LIG    1       25.559 -24.938   6.767  0.00  0.00    +0.006 C 
ATOM      7  C   LIG    1       24.112 -24.835   6.381  0.00  0.00    +0.006 C 
ENDBRANCH   1   5
BRANCH   1   8
ATOM      8  N   LIG    1       25.277 -21.589   5.036  0.00  0.00    -0.296 N 
ATOM      9  H   LIG    1       26.011 -21.817   4.385  0.00  0.00    +0.151 HD
BRANCH   8  10
ATOM     10  C   LIG    1       24.441 -20.575   4.709  0.00  0.00    +0.278 C 
ATOM     11  O   LIG    1       23.514 -20.330   5.671  0.00  0.00    -0.464 OA
ATOM     12  C   LIG    1       22.557 -19.512   5.014  0.00  0.00    +0.255 C 
ATOM     13  C   LIG    1       23.329 -18.916   3.863  0.00  0.00    +0.187 C 
ATOM     14  N   LIG    1       24.420 -19.868   3.631  0.00  0.00    -0.234 NA
ENDBRANCH   8  10
ENDBRANCH   1   8
TORSDOF 4
ENDMDL
MODEL 6
REMARK VINA RESULT:      -6.0      3.187      4.764
REMARK  Name = *****
REMARK                            x       y       z     vdW  Elec       q    Type
REMARK                         _______ _______ _______ _____ _____    ______ ____
ROOT
ATOM      1  C   LIG    1       25.510 -20.381   5.677  0.00  0.00    +0.081 C 
ENDROOT
BRANCH   1   3
ATOM      2  C   LIG    1       23.408 -20.838   7.201  0.00  0.00    +0.006 C 
ATOM      3  C   LIG    1       24.445 -21.322   6.208  0.00  0.00    +0.010 C 
ATOM      4  C   LIG    1       24.471 -21.800   7.644  0.00  0.00    +0.006 C 
ENDBRANCH   1   3
BRANCH   1   5
ATOM      5  C   LIG    1       25.361 -20.155   4.186  0.00  0.00    +0.010 C 
ATOM      6  C   LIG    1       24.055 -19.649   3.613  0.00  0.00    +0.006 C 
ATOM      7  C   LIG    1       25.261 -18.755   3.620  0.00  0.00    +0.006 C 
ENDBRANCH   1   5
BRANCH   1   8
ATOM      8  N   LIG    1       26.810 -20.955   5.929  0.00  0.00    -0.296 N 
ATOM      9  H   LIG    1       27.018 -21.866   5.554  0.00  0.00    +0.151 HD
BRANCH   8  10
ATOM     10  C   LIG    1       27.804 -20.301   6.577  0.00  0.00    +0.278 C 
ATOM     11  O   LIG    1       28.571 -19.555   5.740  0.00  0.00    -0.464 OA
ATOM     12  C   LIG    1       29.717 -19.248   6.520  0.00  0.00    +0.255 C 
ATOM     13  C   LIG    1       29.234 -19.405   7.940  0.00  0.00    +0.187 C 
ATOM     14  N   LIG    1       28.095 -20.324   7.832  0.00  0.00    -0.234 NA
ENDBRANCH   8  10
ENDBRANCH   1   8
TORSDOF 4
ENDMDL
MODEL 7
REMARK VINA RESULT:      -6.0      2.604      4.248
REMARK  Name = *****
REMARK                            x       y       z     vdW  Elec       q    Type
REMARK                         _______ _______ _______ _____ _____    ______ ____
ROOT
ATOM      1  C   LIG    1       24.756 -21.242   5.763  0.00  0.00    +0.081 C 
ENDROOT
BRANCH   1   3
ATOM      2  C   LIG    1       24.102 -23.590   6.767  0.00  0.00    +0.006 C 
ATOM      3  C   LIG    1       24.746 -22.757   5.678  0.00  0.00    +0.010 C 
ATOM      4  C   LIG    1       25.595 -23.596   6.610  0.00  0.00    +0.006 C 
ENDBRANCH   1   3
BRANCH   1   5
ATOM      5  C   LIG    1       23.683 -20.628   4.887  0.00  0.00    +0.010 C 
ATOM      6  C   LIG    1       22.228 -20.998   5.080  0.00  0.00    +0.006 C 
ATOM      7  C   LIG    1       22.701 -19.622   5.451  0.00  0.00    +0.006 C 
ENDBRANCH   1   5
BRANCH   1   8
ATOM      8  N   LIG    1       26.043 -20.756   5.328  0.00  0.00    -0.296 N 
ATOM      9  H   LIG    1       26.199 -20.618   4.343  0.00  0.00    +0.151 HD
BRANCH   8  10
ATOM     10  C   LIG    1       27.033 -20.394   6.177  0.00  0.00    +0.278 C 
ATOM     11  O   LIG    1       28.167 -20.018   5.529  0.00  0.00    -0.464 OA
ATOM     12  C   LIG    1       29.153 -20.019   6.551  0.00  0.00    +0.255 C 
ATOM     13  C   LIG    1       28.351 -19.872   7.820  0.00  0.00    +0.187 C 
ATOM     14  N   LIG    1       27.022 -20.384   7.466  0.00  0.00    -0.234 NA
ENDBRANCH   8  10
ENDBRANCH   1   8
TORSDOF 4
ENDMDL
MODEL 8
REMARK VINA RESULT:      -6.0      1.698      2.080
REMARK  Name = *****
REMARK                            x       y       z     vdW  Elec       q    Type
REMARK                         _______ _______ _______ _____ _____    ______ ____
ROOT
ATOM      1  C   LIG    1       24.726 -21.547   5.310  0.00  0.00    +0.081 C 
ENDROOT
BRANCH   1   3
ATOM      2  C   LIG    1       24.805 -20.877   7.859  0.00  0.00    +0.006 C 
ATOM      3  C   LIG    1       24.159 -20.781   6.491  0.00  0.00    +0.010 C 
ATOM      4  C   LIG    1       23.461 -21.501   7.625  0.00  0.00    +0.006 C 
ENDBRANCH   1   3
BRANCH   1   5
ATOM      5  C   LIG    1       24.384 -20.876   3.995  0.00  0.00    +0.010 C 
ATOM      6  C   LIG    1       23.716 -19.518   3.976  0.00  0.00    +0.006 C 
ATOM      7  C   LIG    1       25.142 -19.652   3.528  0.00  0.00    +0.006 C 
ENDBRANCH   1   5
BRANCH   1   8
ATOM      8  N   LIG    1       24.172 -22.879   5.307  0.00  0.00    -0.296 N 
ATOM      9  H   LIG    1       23.203 -23.000   5.060  0.00  0.00    +0.151 HD
BRANCH   8  10
ATOM     10  C   LIG    1       24.904 -23.995   5.538  0.00  0.00    +0.278 C 
ATOM     11  O   LIG    1       24.958 -24.818   4.458  0.00  0.00    -0.464 OA
ATOM     12  C   LIG    1       25.448 -26.039   4.993  0.00  0.00    +0.255 C 
ATOM     13  C   LIG    1       26.150 -25.618   6.259  0.00  0.00    +0.187 C 
ATOM     14  N   LIG    1       25.508 -24.349   6.620  0.00  0.00    -0.234 NA
ENDBRANCH   8  10
ENDBRANCH   1   8
TORSDOF 4
ENDMDL
MODEL 9
REMARK VINA RESULT:      -5.9      1.581      1.810
REMARK  Name = *****
REMARK                            x       y       z     vdW  Elec       q    Type
REMARK                         _______ _______ _______ _____ _____    ______ ____
ROOT
ATOM      1  C   LIG    1       25.413 -22.321   6.959  0.00  0.00    +0.081 C 
ENDROOT
BRANCH   1   3
ATOM      2  C   LIG    1       27.184 -20.374   7.097  0.00  0.00    +0.006 C 
ATOM      3  C   LIG    1       26.283 -21.385   7.777  0.00  0.00    +0.010 C 
ATOM      4  C   LIG    1       27.788 -21.548   7.810  0.00  0.00    +0.006 C 
ENDBRANCH   1   3
BRANCH   1   5
ATOM      5  C   LIG    1       23.939 -22.085   7.222  0.00  0.00    +0.010 C 
ATOM      6  C   LIG    1       23.366 -20.685   7.181  0.00  0.00    +0.006 C 
ATOM      7  C   LIG    1       23.008 -21.668   6.104  0.00  0.00    +0.006 C 
ENDBRANCH   1   5
BRANCH   1   8
ATOM      8  N   LIG    1       25.732 -23.684   7.310  0.00  0.00    -0.296 N 
ATOM      9  H   LIG    1       25.970 -23.894   8.265  0.00  0.00    +0.151 HD
BRANCH   8  10
ATOM     10  C   LIG    1       25.650 -24.719   6.441  0.00  0.00    +0.278 C 
ATOM     11  O   LIG    1       26.056 -25.895   6.989  0.00  0.00    -0.464 OA
ATOM     12  C   LIG    1       26.226 -26.747   5.866  0.00  0.00    +0.255 C 
ATOM     13  C   LIG    1       25.361 -26.114   4.805  0.00  0.00    +0.187 C 
ATOM     14  N   LIG    1       25.266 -24.708   5.211  0.00  0.00    -0.234 NA
ENDBRANCH   8  10
ENDBRANCH   1   8
TORSDOF 4
ENDMDL
