MODEL 1
REMARK VINA RESULT:       2.2      0.000      0.000
REMARK  Name = *****
REMARK                            x       y       z     vdW  Elec       q    Type
REMARK                         _______ _______ _______ _____ _____    ______ ____
ROOT
ATOM      1  C   LIG    1       22.516 -17.404   4.539  0.00  0.00    +0.185 C 
ATOM      2  C   LIG    1       23.409 -18.667   4.569  0.00  0.00    +0.063 C 
ATOM      3  C   LIG    1       22.508 -19.903   4.647  0.00  0.00    -0.044 C 
ATOM      4  C   LIG    1       23.191 -21.144   4.934  0.00  0.00    -0.000 C 
ATOM      5  C   LIG    1       24.501 -21.281   4.678  0.00  0.00    -0.023 C 
ATOM      6  C   LIG    1       25.358 -20.192   4.058  0.00  0.00    +0.012 C 
ATOM      7  C   LIG    1       26.397 -19.755   5.103  0.00  0.00    +0.012 C 
ATOM      8  C   LIG    1       21.185 -19.870   4.399  0.00  0.00    -0.020 C 
ATOM      9  C   LIG    1       20.448 -18.630   3.937  0.00  0.00    +0.012 C 
ATOM     10  C   LIG    1       19.430 -18.969   2.850  0.00  0.00    +0.012 C 
ATOM     11  C   LIG    1       24.489 -19.003   3.480  0.00  0.00    +0.007 C 
ATOM     12  C   LIG    1       21.421 -17.523   3.478  0.00  0.00    +0.052 C 
ENDROOT
BRANCH   1  13
ATOM     13  O   LIG    1       23.297 -16.213   4.455  0.00  0.00    -0.460 OA
BRANCH  13  14
ATOM     14  C   LIG    1       22.830 -15.142   5.165  0.00  0.00    +0.313 C 
ATOM     15  O   LIG    1       21.986 -15.207   6.059  0.00  0.00    -0.250 OA
BRANCH  14  16
ATOM     16  C   LIG    1       23.629 -13.874   4.823  0.00  0.00    +0.062 C 
ATOM     17  C   LIG    1       22.868 -12.626   5.313  0.00  0.00    +0.022 C 
ATOM     18  C   LIG    1       24.988 -13.902   5.545  0.00  0.00    +0.022 C 
BRANCH  16  20
ATOM     19  C   LIG    1       23.809 -12.375   2.703  0.00  0.00    +0.005 C 
ATOM     20  C   LIG    1       23.809 -13.789   3.283  0.00  0.00    +0.014 C 
ENDBRANCH  16  20
ENDBRANCH  14  16
ENDBRANCH  13  14
ENDBRANCH   1  13
BRANCH  11  21
ATOM     21  C   LIG    1       25.368 -17.853   2.927  0.00  0.00    +0.008 C 
BRANCH  21  22
ATOM     22  C   LIG    1       26.028 -17.010   4.054  0.00  0.00    +0.045 C 
BRANCH  22  23
ATOM     23  C   LIG    1       27.203 -16.137   3.572  0.00  0.00    +0.179 C 
ATOM     24  O   LIG    1       26.681 -15.117   2.693  0.00  0.00    -0.461 OA
ATOM     25  C   LIG    1       26.976 -13.802   2.767  0.00  0.00    +0.310 C 
ATOM     26  O   LIG    1       26.759 -13.061   1.812  0.00  0.00    -0.251 OA
ATOM     27  C   LIG    1       27.580 -13.276   4.033  0.00  0.00    +0.152 C 
ATOM     28  C   LIG    1       27.480 -14.246   5.189  0.00  0.00    +0.129 C 
ATOM     29  C   LIG    1       28.015 -15.591   4.743  0.00  0.00    +0.076 C 
BRANCH  28  30
ATOM     30  O   LIG    1       28.273 -13.752   6.267  0.00  0.00    -0.391 OA
ATOM     31  H   LIG    1       28.766 -14.496   6.653  0.00  0.00    +0.210 HD
ENDBRANCH  28  30
ENDBRANCH  22  23
ENDBRANCH  21  22
ENDBRANCH  11  21
TORSDOF 8
ENDMDL
MODEL 2
REMARK VINA RESULT:       3.6      1.923      6.040
REMARK  Name = *****
REMARK                            x       y       z     vdW  Elec       q    Type
REMARK                         _______ _______ _______ _____ _____    ______ ____
ROOT
ATOM      1  C   LIG    1       23.651 -14.575   4.229  0.00  0.00    +0.185 C 
ATOM      2  C   LIG    1       24.934 -14.031   3.556  0.00  0.00    +0.063 C 
ATOM      3  C   LIG    1       24.808 -12.510   3.418  0.00  0.00    -0.044 C 
ATOM      4  C   LIG    1       25.810 -11.884   2.586  0.00  0.00    -0.000 C 
ATOM      5  C   LIG    1       26.988 -12.485   2.362  0.00  0.00    -0.023 C 
ATOM      6  C   LIG    1       27.381 -13.823   2.962  0.00  0.00    +0.012 C 
ATOM      7  C   LIG    1       27.526 -14.833   1.813  0.00  0.00    +0.012 C 
ATOM      8  C   LIG    1       23.882 -11.784   4.071  0.00  0.00    -0.020 C 
ATOM      9  C   LIG    1       22.913 -12.367   5.078  0.00  0.00    +0.012 C 
ATOM     10  C   LIG    1       22.755 -11.447   6.287  0.00  0.00    +0.012 C 
ATOM     11  C   LIG    1       26.384 -14.283   4.101  0.00  0.00    +0.007 C 
ATOM     12  C   LIG    1       23.318 -13.796   5.501  0.00  0.00    +0.052 C 
ENDROOT
BRANCH   1  13
ATOM     13  O   LIG    1       23.711 -15.991   4.398  0.00  0.00    -0.460 OA
BRANCH  13  14
ATOM     14  C   LIG    1       22.563 -16.587   4.844  0.00  0.00    +0.313 C 
ATOM     15  O   LIG    1       21.664 -16.009   5.454  0.00  0.00    -0.250 OA
BRANCH  14  16
ATOM     16  C   LIG    1       22.465 -18.031   4.327  0.00  0.00    +0.062 C 
ATOM     17  C   LIG    1       21.124 -18.237   3.597  0.00  0.00    +0.022 C 
ATOM     18  C   LIG    1       23.592 -18.300   3.314  0.00  0.00    +0.022 C 
BRANCH  16  20
ATOM     19  C   LIG    1       22.385 -20.486   5.185  0.00  0.00    +0.005 C 
ATOM     20  C   LIG    1       22.545 -19.007   5.532  0.00  0.00    +0.014 C 
ENDBRANCH  16  20
ENDBRANCH  14  16
ENDBRANCH  13  14
ENDBRANCH   1  13
BRANCH  11  21
ATOM     21  C   LIG    1       26.736 -15.688   4.652  0.00  0.00    +0.008 C 
BRANCH  21  22
ATOM     22  C   LIG    1       26.278 -16.833   3.705  0.00  0.00    +0.045 C 
BRANCH  22  23
ATOM     23  C   LIG    1       27.228 -18.046   3.689  0.00  0.00    +0.179 C 
ATOM     24  O   LIG    1       28.150 -17.916   4.793  0.00  0.00    -0.461 OA
ATOM     25  C   LIG    1       28.452 -18.895   5.672  0.00  0.00    +0.310 C 
ATOM     26  O   LIG    1       29.460 -18.817   6.368  0.00  0.00    -0.251 OA
ATOM     27  C   LIG    1       27.535 -20.076   5.768  0.00  0.00    +0.152 C 
ATOM     28  C   LIG    1       26.205 -19.855   5.084  0.00  0.00    +0.129 C 
ATOM     29  C   LIG    1       26.458 -19.364   3.673  0.00  0.00    +0.076 C 
BRANCH  28  30
ATOM     30  O   LIG    1       25.506 -21.097   5.037  0.00  0.00    -0.391 OA
ATOM     31  H   LIG    1       25.928 -21.712   5.660  0.00  0.00    +0.210 HD
ENDBRANCH  28  30
ENDBRANCH  22  23
ENDBRANCH  21  22
ENDBRANCH  11  21
TORSDOF 8
ENDMDL
MODEL 3
REMARK VINA RESULT:       4.3      2.398      5.447
REMARK  Name = *****
REMARK                            x       y       z     vdW  Elec       q    Type
REMARK                         _______ _______ _______ _____ _____    ______ ____
ROOT
ATOM      1  C   LIG    1       25.580 -15.365   3.961  0.00  0.00    +0.185 C 
ATOM      2  C   LIG    1       24.359 -16.253   4.299  0.00  0.00    +0.063 C 
ATOM      3  C   LIG    1       23.102 -15.377   4.304  0.00  0.00    -0.044 C 
ATOM      4  C   LIG    1       21.918 -16.004   4.845  0.00  0.00    -0.000 C 
ATOM      5  C   LIG    1       21.807 -17.340   4.884  0.00  0.00    -0.023 C 
ATOM      6  C   LIG    1       22.867 -18.291   4.357  0.00  0.00    +0.012 C 
ATOM      7  C   LIG    1       23.434 -19.077   5.550  0.00  0.00    +0.012 C 
ATOM      8  C   LIG    1       23.065 -14.136   3.782  0.00  0.00    -0.020 C 
ATOM      9  C   LIG    1       24.230 -13.493   3.060  0.00  0.00    +0.012 C 
ATOM     10  C   LIG    1       23.758 -12.735   1.821  0.00  0.00    +0.012 C 
ATOM     11  C   LIG    1       23.967 -17.545   3.498  0.00  0.00    +0.007 C 
ATOM     12  C   LIG    1       25.327 -14.523   2.711  0.00  0.00    +0.052 C 
ENDROOT
BRANCH   1  13
ATOM     13  O   LIG    1       26.787 -16.126   3.930  0.00  0.00    -0.460 OA
BRANCH  13  14
ATOM     14  C   LIG    1       27.908 -15.487   4.384  0.00  0.00    +0.313 C 
ATOM     15  O   LIG    1       28.917 -16.052   4.803  0.00  0.00    -0.250 OA
BRANCH  14  16
ATOM     16  C   LIG    1       27.807 -13.974   4.133  0.00  0.00    +0.062 C 
ATOM     17  C   LIG    1       27.259 -13.712   2.717  0.00  0.00    +0.022 C 
ATOM     18  C   LIG    1       26.825 -13.343   5.136  0.00  0.00    +0.022 C 
BRANCH  16  20
ATOM     19  C   LIG    1       29.252 -11.821   4.358  0.00  0.00    +0.005 C 
ATOM     20  C   LIG    1       29.222 -13.345   4.256  0.00  0.00    +0.014 C 
ENDBRANCH  16  20
ENDBRANCH  14  16
ENDBRANCH  13  14
ENDBRANCH   1  13
BRANCH  11  21
ATOM     21  C   LIG    1       25.094 -18.501   3.034  0.00  0.00    +0.008 C 
BRANCH  21  22
ATOM     22  C   LIG    1       26.310 -18.504   4.001  0.00  0.00    +0.045 C 
BRANCH  22  23
ATOM     23  C   LIG    1       26.852 -19.912   4.317  0.00  0.00    +0.179 C 
ATOM     24  O   LIG    1       28.052 -19.771   5.108  0.00  0.00    -0.461 OA
ATOM     25  C   LIG    1       28.318 -20.450   6.244  0.00  0.00    +0.310 C 
ATOM     26  O   LIG    1       29.467 -20.517   6.674  0.00  0.00    -0.251 OA
ATOM     27  C   LIG    1       27.185 -21.124   6.956  0.00  0.00    +0.152 C 
ATOM     28  C   LIG    1       25.825 -20.676   6.469  0.00  0.00    +0.129 C 
ATOM     29  C   LIG    1       25.784 -20.795   4.959  0.00  0.00    +0.076 C 
BRANCH  28  30
ATOM     30  O   LIG    1       24.834 -21.528   7.040  0.00  0.00    -0.391 OA
ATOM     31  H   LIG    1       24.644 -22.245   6.412  0.00  0.00    +0.210 HD
ENDBRANCH  28  30
ENDBRANCH  22  23
ENDBRANCH  21  22
ENDBRANCH  11  21
TORSDOF 8
ENDMDL
MODEL 4
REMARK VINA RESULT:       4.4      2.321      7.335
REMARK  Name = *****
REMARK                            x       y       z     vdW  Elec       q    Type
REMARK                         _______ _______ _______ _____ _____    ______ ____
ROOT
ATOM      1  C   LIG    1       27.270 -15.707   4.679  0.00  0.00    +0.185 C 
ATOM      2  C   LIG    1       25.917 -14.960   4.735  0.00  0.00    +0.063 C 
ATOM      3  C   LIG    1       26.186 -13.453   4.675  0.00  0.00    -0.044 C 
ATOM      4  C   LIG    1       25.047 -12.613   4.968  0.00  0.00    -0.000 C 
ATOM      5  C   LIG    1       23.797 -13.080   4.827  0.00  0.00    -0.023 C 
ATOM      6  C   LIG    1       23.468 -14.478   4.337  0.00  0.00    +0.012 C 
ATOM      7  C   LIG    1       22.794 -15.239   5.491  0.00  0.00    +0.012 C 
ATOM      8  C   LIG    1       27.370 -12.929   4.310  0.00  0.00    -0.020 C 
ATOM      9  C   LIG    1       28.547 -13.758   3.838  0.00  0.00    +0.012 C 
ATOM     10  C   LIG    1       29.242 -13.098   2.648  0.00  0.00    +0.012 C 
ATOM     11  C   LIG    1       24.733 -15.214   3.736  0.00  0.00    +0.007 C 
ATOM     12  C   LIG    1       28.132 -15.210   3.519  0.00  0.00    +0.052 C 
ENDROOT
BRANCH   1  13
ATOM     13  O   LIG    1       27.088 -17.122   4.720  0.00  0.00    -0.460 OA
BRANCH  13  14
ATOM     14  C   LIG    1       28.156 -17.849   5.170  0.00  0.00    +0.313 C 
ATOM     15  O   LIG    1       29.249 -17.374   5.474  0.00  0.00    -0.250 OA
BRANCH  14  16
ATOM     16  C   LIG    1       27.752 -19.311   5.415  0.00  0.00    +0.062 C 
ATOM     17  C   LIG    1       27.029 -19.435   6.771  0.00  0.00    +0.022 C 
ATOM     18  C   LIG    1       26.772 -19.773   4.323  0.00  0.00    +0.022 C 
BRANCH  16  20
ATOM     19  C   LIG    1       29.274 -20.957   6.737  0.00  0.00    +0.005 C 
ATOM     20  C   LIG    1       29.029 -20.193   5.437  0.00  0.00    +0.014 C 
ENDBRANCH  16  20
ENDBRANCH  14  16
ENDBRANCH  13  14
ENDBRANCH   1  13
BRANCH  11  21
ATOM     21  C   LIG    1       24.416 -16.672   3.316  0.00  0.00    +0.008 C 
BRANCH  21  22
ATOM     22  C   LIG    1       23.932 -17.544   4.508  0.00  0.00    +0.045 C 
BRANCH  22  23
ATOM     23  C   LIG    1       23.024 -18.718   4.093  0.00  0.00    +0.179 C 
ATOM     24  O   LIG    1       23.757 -19.557   3.173  0.00  0.00    -0.461 OA
ATOM     25  C   LIG    1       23.851 -20.900   3.253  0.00  0.00    +0.310 C 
ATOM     26  O   LIG    1       24.209 -21.558   2.279  0.00  0.00    -0.251 OA
ATOM     27  C   LIG    1       23.502 -21.565   4.549  0.00  0.00    +0.152 C 
ATOM     28  C   LIG    1       23.395 -20.597   5.705  0.00  0.00    +0.129 C 
ATOM     29  C   LIG    1       22.475 -19.462   5.307  0.00  0.00    +0.076 C 
BRANCH  28  30
ATOM     30  O   LIG    1       22.845 -21.285   6.826  0.00  0.00    -0.391 OA
ATOM     31  H   LIG    1       22.828 -20.677   7.585  0.00  0.00    +0.210 HD
ENDBRANCH  28  30
ENDBRANCH  22  23
ENDBRANCH  21  22
ENDBRANCH  11  21
TORSDOF 8
ENDMDL
MODEL 5
REMARK VINA RESULT:       4.5      1.273      1.717
REMARK  Name = *****
REMARK                            x       y       z     vdW  Elec       q    Type
REMARK                         _______ _______ _______ _____ _____    ______ ____
ROOT
ATOM      1  C   LIG    1       23.370 -18.578   4.956  0.00  0.00    +0.185 C 
ATOM      2  C   LIG    1       24.676 -19.370   5.203  0.00  0.00    +0.063 C 
ATOM      3  C   LIG    1       24.312 -20.785   5.662  0.00  0.00    -0.044 C 
ATOM      4  C   LIG    1       25.414 -21.569   6.172  0.00  0.00    -0.000 C 
ATOM      5  C   LIG    1       26.678 -21.276   5.830  0.00  0.00    -0.023 C 
ATOM      6  C   LIG    1       27.059 -20.150   4.886  0.00  0.00    +0.012 C 
ATOM      7  C   LIG    1       27.853 -19.107   5.690  0.00  0.00    +0.012 C 
ATOM      8  C   LIG    1       23.076 -21.304   5.544  0.00  0.00    -0.020 C 
ATOM      9  C   LIG    1       21.924 -20.587   4.871  0.00  0.00    +0.012 C 
ATOM     10  C   LIG    1       21.112 -21.545   4.002  0.00  0.00    +0.012 C 
ATOM     11  C   LIG    1       25.804 -19.556   4.127  0.00  0.00    +0.007 C 
ATOM     12  C   LIG    1       22.405 -19.360   4.067  0.00  0.00    +0.052 C 
ENDROOT
BRANCH   1  13
ATOM     13  O   LIG    1       23.642 -17.248   4.513  0.00  0.00    -0.460 OA
BRANCH  13  14
ATOM     14  C   LIG    1       22.568 -16.403   4.472  0.00  0.00    +0.313 C 
ATOM     15  O   LIG    1       21.421 -16.738   4.179  0.00  0.00    -0.250 OA
BRANCH  14  16
ATOM     16  C   LIG    1       22.949 -15.016   5.013  0.00  0.00    +0.062 C 
ATOM     17  C   LIG    1       21.993 -14.617   6.155  0.00  0.00    +0.022 C 
ATOM     18  C   LIG    1       24.374 -15.054   5.592  0.00  0.00    +0.022 C 
BRANCH  16  20
ATOM     19  C   LIG    1       23.565 -12.655   4.106  0.00  0.00    +0.005 C 
ATOM     20  C   LIG    1       22.833 -13.974   3.867  0.00  0.00    +0.014 C 
ENDBRANCH  16  20
ENDBRANCH  14  16
ENDBRANCH  13  14
ENDBRANCH   1  13
BRANCH  11  21
ATOM     21  C   LIG    1       26.182 -18.350   3.231  0.00  0.00    +0.008 C 
BRANCH  21  22
ATOM     22  C   LIG    1       26.303 -17.024   4.033  0.00  0.00    +0.045 C 
BRANCH  22  23
ATOM     23  C   LIG    1       27.080 -15.917   3.294  0.00  0.00    +0.179 C 
ATOM     24  O   LIG    1       26.127 -15.068   2.617  0.00  0.00    -0.461 OA
ATOM     25  C   LIG    1       26.122 -13.720   2.658  0.00  0.00    +0.310 C 
ATOM     26  O   LIG    1       25.499 -13.074   1.819  0.00  0.00    -0.251 OA
ATOM     27  C   LIG    1       26.898 -13.035   3.742  0.00  0.00    +0.152 C 
ATOM     28  C   LIG    1       27.328 -13.971   4.848  0.00  0.00    +0.129 C 
ATOM     29  C   LIG    1       28.022 -15.168   4.232  0.00  0.00    +0.076 C 
BRANCH  28  30
ATOM     30  O   LIG    1       28.239 -13.279   5.700  0.00  0.00    -0.391 OA
ATOM     31  H   LIG    1       29.142 -13.572   5.489  0.00  0.00    +0.210 HD
ENDBRANCH  28  30
ENDBRANCH  22  23
ENDBRANCH  21  22
ENDBRANCH  11  21
TORSDOF 8
ENDMDL
