MODEL 1
REMARK VINA RESULT:      -7.9      0.000      0.000
REMARK  Name = *****
REMARK                            x       y       z     vdW  Elec       q    Type
REMARK                         _______ _______ _______ _____ _____    ______ ____
ROOT
ATOM      1  S   LIG    1       30.804 -19.719   8.192  0.00  0.00    +0.074 S 
ATOM      2  O   LIG    1       30.845 -20.388   9.477  0.00  0.00    -0.150 OA
ATOM      3  O   LIG    1       31.859 -19.855   7.215  0.00  0.00    -0.150 OA
ENDROOT
BRANCH   1   4
ATOM      4  C   LIG    1       29.284 -20.214   7.417  0.00  0.00    +0.109 A 
ATOM      5  C   LIG    1       28.533 -21.263   7.951  0.00  0.00    +0.030 A 
ATOM      6  C   LIG    1       27.315 -21.607   7.356  0.00  0.00    +0.024 A 
ATOM      7  C   LIG    1       26.826 -20.891   6.259  0.00  0.00    +0.025 A 
ATOM      8  C   LIG    1       27.628 -19.892   5.695  0.00  0.00    +0.024 A 
ATOM      9  C   LIG    1       28.841 -19.529   6.285  0.00  0.00    +0.030 A 
BRANCH   7  10
ATOM     10  N   LIG    1       25.668 -21.318   5.600  0.00  0.00    -0.358 N 
ATOM     11  H   LIG    1       25.846 -21.751   4.699  0.00  0.00    +0.142 HD
ATOM     12  H   LIG    1       25.052 -21.885   6.177  0.00  0.00    +0.142 HD
ENDBRANCH   7  10
ENDBRANCH   1   4
BRANCH   1  13
ATOM     13  N   LIG    1       30.551 -18.046   8.398  0.00  0.00    -0.192 N 
ATOM     14  H   LIG    1       31.056 -17.619   7.618  0.00  0.00    +0.176 HD
BRANCH  13  18
ATOM     15  C   LIG    1       32.270 -16.395  13.038  0.00  0.00    +0.075 C 
ATOM     16  C   LIG    1       32.065 -16.850  11.640  0.00  0.00    +0.101 A 
ATOM     17  S   LIG    1       30.492 -17.212  11.042  0.00  0.00    -0.035 S 
ATOM     18  C   LIG    1       31.246 -17.624   9.565  0.00  0.00    +0.201 A 
ATOM     19  N   LIG    1       32.538 -17.408   9.524  0.00  0.00    -0.124 NA
ATOM     20  N   LIG    1       33.025 -16.996  10.749  0.00  0.00    -0.145 NA
ENDBRANCH  13  18
ENDBRANCH   1  13
TORSDOF 4
ENDMDL
MODEL 2
REMARK VINA RESULT:      -7.6      3.231      4.652
REMARK  Name = *****
REMARK                            x       y       z     vdW  Elec       q    Type
REMARK                         _______ _______ _______ _____ _____    ______ ____
ROOT
ATOM      1  S   LIG    1       26.479 -21.537   7.949  0.00  0.00    +0.074 S 
ATOM      2  O   LIG    1       26.693 -20.516   8.956  0.00  0.00    -0.150 OA
ATOM      3  O   LIG    1       26.023 -22.867   8.281  0.00  0.00    -0.150 OA
ENDROOT
BRANCH   1   4
ATOM      4  C   LIG    1       25.334 -20.852   6.775  0.00  0.00    +0.109 A 
ATOM      5  C   LIG    1       25.788 -20.402   5.533  0.00  0.00    +0.030 A 
ATOM      6  C   LIG    1       24.866 -19.911   4.603  0.00  0.00    +0.024 A 
ATOM      7  C   LIG    1       23.497 -19.900   4.889  0.00  0.00    +0.025 A 
ATOM      8  C   LIG    1       23.072 -20.287   6.165  0.00  0.00    +0.024 A 
ATOM      9  C   LIG    1       23.979 -20.790   7.100  0.00  0.00    +0.030 A 
BRANCH   7  10
ATOM     10  N   LIG    1       22.599 -19.298   4.000  0.00  0.00    -0.358 N 
ATOM     11  H   LIG    1       22.418 -18.319   4.202  0.00  0.00    +0.142 HD
ATOM     12  H   LIG    1       22.827 -19.446   3.021  0.00  0.00    +0.142 HD
ENDBRANCH   7  10
ENDBRANCH   1   4
BRANCH   1  13
ATOM     13  N   LIG    1       27.874 -21.731   6.990  0.00  0.00    -0.192 N 
ATOM     14  H   LIG    1       28.137 -22.710   7.127  0.00  0.00    +0.176 HD
BRANCH  13  18
ATOM     15  C   LIG    1       31.612 -18.391   8.431  0.00  0.00    +0.075 C 
ATOM     16  C   LIG    1       30.653 -19.508   8.241  0.00  0.00    +0.101 A 
ATOM     17  S   LIG    1       29.476 -19.469   6.985  0.00  0.00    -0.035 S 
ATOM     18  C   LIG    1       28.931 -20.977   7.571  0.00  0.00    +0.201 A 
ATOM     19  N   LIG    1       29.642 -21.481   8.550  0.00  0.00    -0.124 NA
ATOM     20  N   LIG    1       30.623 -20.605   8.971  0.00  0.00    -0.145 NA
ENDBRANCH  13  18
ENDBRANCH   1  13
TORSDOF 4
ENDMDL
MODEL 3
REMARK VINA RESULT:      -7.4      2.933      4.157
REMARK  Name = *****
REMARK                            x       y       z     vdW  Elec       q    Type
REMARK                         _______ _______ _______ _____ _____    ______ ____
ROOT
ATOM      1  S   LIG    1       27.358 -20.555   7.003  0.00  0.00    +0.074 S 
ATOM      2  O   LIG    1       27.287 -19.666   5.859  0.00  0.00    -0.150 OA
ATOM      3  O   LIG    1       27.071 -20.110   8.347  0.00  0.00    -0.150 OA
ENDROOT
BRANCH   1   4
ATOM      4  C   LIG    1       26.281 -21.921   6.645  0.00  0.00    +0.109 A 
ATOM      5  C   LIG    1       25.280 -21.791   5.681  0.00  0.00    +0.030 A 
ATOM      6  C   LIG    1       24.473 -22.893   5.377  0.00  0.00    +0.024 A 
ATOM      7  C   LIG    1       24.681 -24.127   6.001  0.00  0.00    +0.025 A 
ATOM      8  C   LIG    1       25.641 -24.215   7.017  0.00  0.00    +0.024 A 
ATOM      9  C   LIG    1       26.462 -23.128   7.322  0.00  0.00    +0.030 A 
BRANCH   7  10
ATOM     10  N   LIG    1       23.793 -25.186   5.778  0.00  0.00    -0.358 N 
ATOM     11  H   LIG    1       24.250 -26.086   5.666  0.00  0.00    +0.142 HD
ATOM     12  H   LIG    1       23.029 -25.230   6.447  0.00  0.00    +0.142 HD
ENDBRANCH   7  10
ENDBRANCH   1   4
BRANCH   1  13
ATOM     13  N   LIG    1       28.876 -21.326   7.064  0.00  0.00    -0.192 N 
ATOM     14  H   LIG    1       28.716 -22.145   7.657  0.00  0.00    +0.176 HD
BRANCH  13  18
ATOM     15  C   LIG    1       32.114 -17.753   9.053  0.00  0.00    +0.075 C 
ATOM     16  C   LIG    1       31.267 -18.927   8.726  0.00  0.00    +0.101 A 
ATOM     17  S   LIG    1       30.325 -18.973   7.285  0.00  0.00    -0.035 S 
ATOM     18  C   LIG    1       29.772 -20.504   7.803  0.00  0.00    +0.201 A 
ATOM     19  N   LIG    1       30.330 -20.953   8.900  0.00  0.00    -0.124 NA
ATOM     20  N   LIG    1       31.173 -20.015   9.464  0.00  0.00    -0.145 NA
ENDBRANCH  13  18
ENDBRANCH   1  13
TORSDOF 4
ENDMDL
MODEL 4
REMARK VINA RESULT:      -7.2      3.126      4.570
REMARK  Name = *****
REMARK                            x       y       z     vdW  Elec       q    Type
REMARK                         _______ _______ _______ _____ _____    ______ ____
ROOT
ATOM      1  S   LIG    1       26.871 -21.304   7.643  0.00  0.00    +0.074 S 
ATOM      2  O   LIG    1       27.116 -20.257   8.616  0.00  0.00    -0.150 OA
ATOM      3  O   LIG    1       26.643 -22.678   8.026  0.00  0.00    -0.150 OA
ENDROOT
BRANCH   1   4
ATOM      4  C   LIG    1       25.477 -20.774   6.677  0.00  0.00    +0.109 A 
ATOM      5  C   LIG    1       25.655 -20.365   5.354  0.00  0.00    +0.030 A 
ATOM      6  C   LIG    1       24.539 -19.998   4.594  0.00  0.00    +0.024 A 
ATOM      7  C   LIG    1       23.251 -20.071   5.132  0.00  0.00    +0.025 A 
ATOM      8  C   LIG    1       23.102 -20.414   6.481  0.00  0.00    +0.024 A 
ATOM      9  C   LIG    1       24.204 -20.794   7.249  0.00  0.00    +0.030 A 
BRANCH   7  10
ATOM     10  N   LIG    1       22.157 -19.589   4.403  0.00  0.00    -0.358 N 
ATOM     11  H   LIG    1       21.820 -20.235   3.696  0.00  0.00    +0.142 HD
ATOM     12  H   LIG    1       21.400 -19.236   4.983  0.00  0.00    +0.142 HD
ENDBRANCH   7  10
ENDBRANCH   1   4
BRANCH   1  13
ATOM     13  N   LIG    1       28.107 -21.329   6.470  0.00  0.00    -0.192 N 
ATOM     14  H   LIG    1       28.576 -22.225   6.622  0.00  0.00    +0.176 HD
BRANCH  13  18
ATOM     15  C   LIG    1       31.880 -18.280   8.389  0.00  0.00    +0.075 C 
ATOM     16  C   LIG    1       30.751 -18.918   7.665  0.00  0.00    +0.101 A 
ATOM     17  S   LIG    1       30.217 -20.504   8.068  0.00  0.00    -0.035 S 
ATOM     18  C   LIG    1       29.073 -20.342   6.810  0.00  0.00    +0.201 A 
ATOM     19  N   LIG    1       29.052 -19.168   6.229  0.00  0.00    -0.124 NA
ATOM     20  N   LIG    1       30.059 -18.348   6.699  0.00  0.00    -0.145 NA
ENDBRANCH  13  18
ENDBRANCH   1  13
TORSDOF 4
ENDMDL
MODEL 5
REMARK VINA RESULT:      -7.2      5.196      8.314
REMARK  Name = *****
REMARK                            x       y       z     vdW  Elec       q    Type
REMARK                         _______ _______ _______ _____ _____    ______ ____
ROOT
ATOM      1  S   LIG    1       24.072 -21.241   6.038  0.00  0.00    +0.074 S 
ATOM      2  O   LIG    1       23.207 -20.079   6.102  0.00  0.00    -0.150 OA
ATOM      3  O   LIG    1       24.190 -22.052   4.848  0.00  0.00    -0.150 OA
ENDROOT
BRANCH   1   4
ATOM      4  C   LIG    1       25.701 -20.679   6.471  0.00  0.00    +0.109 A 
ATOM      5  C   LIG    1       26.098 -20.641   7.809  0.00  0.00    +0.030 A 
ATOM      6  C   LIG    1       27.400 -20.242   8.127  0.00  0.00    +0.024 A 
ATOM      7  C   LIG    1       28.315 -19.917   7.121  0.00  0.00    +0.025 A 
ATOM      8  C   LIG    1       27.876 -19.891   5.792  0.00  0.00    +0.024 A 
ATOM      9  C   LIG    1       26.582 -20.298   5.458  0.00  0.00    +0.030 A 
BRANCH   7  10
ATOM     10  N   LIG    1       29.575 -19.406   7.455  0.00  0.00    -0.358 N 
ATOM     11  H   LIG    1       29.544 -18.658   8.141  0.00  0.00    +0.142 HD
ATOM     12  H   LIG    1       30.255 -20.119   7.704  0.00  0.00    +0.142 HD
ENDBRANCH   7  10
ENDBRANCH   1   4
BRANCH   1  13
ATOM     13  N   LIG    1       23.731 -22.311   7.319  0.00  0.00    -0.192 N 
ATOM     14  H   LIG    1       24.392 -22.042   8.052  0.00  0.00    +0.176 HD
BRANCH  13  18
ATOM     15  C   LIG    1       26.014 -26.796   5.946  0.00  0.00    +0.075 C 
ATOM     16  C   LIG    1       25.113 -25.662   6.275  0.00  0.00    +0.101 A 
ATOM     17  S   LIG    1       25.742 -24.143   6.785  0.00  0.00    -0.035 S 
ATOM     18  C   LIG    1       24.122 -23.623   6.930  0.00  0.00    +0.201 A 
ATOM     19  N   LIG    1       23.223 -24.491   6.535  0.00  0.00    -0.124 NA
ATOM     20  N   LIG    1       23.798 -25.699   6.191  0.00  0.00    -0.145 NA
ENDBRANCH  13  18
ENDBRANCH   1  13
TORSDOF 4
ENDMDL
MODEL 6
REMARK VINA RESULT:      -7.1      3.640      4.978
REMARK  Name = *****
REMARK                            x       y       z     vdW  Elec       q    Type
REMARK                         _______ _______ _______ _____ _____    ______ ____
ROOT
ATOM      1  S   LIG    1       26.430 -21.476   7.530  0.00  0.00    +0.074 S 
ATOM      2  O   LIG    1       25.678 -20.409   6.899  0.00  0.00    -0.150 OA
ATOM      3  O   LIG    1       26.654 -21.526   8.956  0.00  0.00    -0.150 OA
ENDROOT
BRANCH   1   4
ATOM      4  C   LIG    1       25.642 -22.996   7.053  0.00  0.00    +0.109 A 
ATOM      5  C   LIG    1       24.250 -23.076   6.997  0.00  0.00    +0.030 A 
ATOM      6  C   LIG    1       23.648 -24.265   6.572  0.00  0.00    +0.024 A 
ATOM      7  C   LIG    1       24.425 -25.358   6.171  0.00  0.00    +0.025 A 
ATOM      8  C   LIG    1       25.816 -25.281   6.305  0.00  0.00    +0.024 A 
ATOM      9  C   LIG    1       26.431 -24.096   6.716  0.00  0.00    +0.030 A 
BRANCH   7  10
ATOM     10  N   LIG    1       23.814 -26.579   5.863  0.00  0.00    -0.358 N 
ATOM     11  H   LIG    1       24.208 -27.040   5.049  0.00  0.00    +0.142 HD
ATOM     12  H   LIG    1       23.736 -27.211   6.656  0.00  0.00    +0.142 HD
ENDBRANCH   7  10
ENDBRANCH   1   4
BRANCH   1  13
ATOM     13  N   LIG    1       27.959 -21.642   6.796  0.00  0.00    -0.192 N 
ATOM     14  H   LIG    1       28.223 -22.612   6.986  0.00  0.00    +0.176 HD
BRANCH  13  18
ATOM     15  C   LIG    1       31.237 -18.123   8.817  0.00  0.00    +0.075 C 
ATOM     16  C   LIG    1       30.414 -19.303   8.451  0.00  0.00    +0.101 A 
ATOM     17  S   LIG    1       29.310 -19.244   7.131  0.00  0.00    -0.035 S 
ATOM     18  C   LIG    1       28.897 -20.855   7.521  0.00  0.00    +0.201 A 
ATOM     19  N   LIG    1       29.602 -21.389   8.487  0.00  0.00    -0.124 NA
ATOM     20  N   LIG    1       30.461 -20.471   9.060  0.00  0.00    -0.145 NA
ENDBRANCH  13  18
ENDBRANCH   1  13
TORSDOF 4
ENDMDL
MODEL 7
REMARK VINA RESULT:      -7.0      7.685     10.848
REMARK  Name = *****
REMARK                            x       y       z     vdW  Elec       q    Type
REMARK                         _______ _______ _______ _____ _____    ______ ____
ROOT
ATOM      1  S   LIG    1       25.553 -26.332   6.012  0.00  0.00    +0.074 S 
ATOM      2  O   LIG    1       25.998 -26.140   4.645  0.00  0.00    -0.150 OA
ATOM      3  O   LIG    1       26.426 -26.840   7.045  0.00  0.00    -0.150 OA
ENDROOT
BRANCH   1   4
ATOM      4  C   LIG    1       24.923 -24.764   6.560  0.00  0.00    +0.109 A 
ATOM      5  C   LIG    1       25.794 -23.792   7.055  0.00  0.00    +0.030 A 
ATOM      6  C   LIG    1       25.287 -22.546   7.436  0.00  0.00    +0.024 A 
ATOM      7  C   LIG    1       23.927 -22.252   7.292  0.00  0.00    +0.025 A 
ATOM      8  C   LIG    1       23.061 -23.264   6.863  0.00  0.00    +0.024 A 
ATOM      9  C   LIG    1       23.555 -24.509   6.468  0.00  0.00    +0.030 A 
BRANCH   7  10
ATOM     10  N   LIG    1       23.412 -21.048   7.786  0.00  0.00    -0.358 N 
ATOM     11  H   LIG    1       23.840 -20.222   7.379  0.00  0.00    +0.142 HD
ATOM     12  H   LIG    1       22.397 -20.996   7.768  0.00  0.00    +0.142 HD
ENDBRANCH   7  10
ENDBRANCH   1   4
BRANCH   1  13
ATOM     13  N   LIG    1       24.148 -27.295   6.051  0.00  0.00    -0.192 N 
ATOM     14  H   LIG    1       23.721 -27.077   6.955  0.00  0.00    +0.176 HD
BRANCH  13  18
ATOM     15  C   LIG    1       25.373 -32.214   7.282  0.00  0.00    +0.075 C 
ATOM     16  C   LIG    1       25.132 -30.885   6.665  0.00  0.00    +0.101 A 
ATOM     17  S   LIG    1       24.452 -29.591   7.575  0.00  0.00    -0.035 S 
ATOM     18  C   LIG    1       24.537 -28.660   6.146  0.00  0.00    +0.201 A 
ATOM     19  N   LIG    1       25.112 -29.256   5.130  0.00  0.00    -0.124 NA
ATOM     20  N   LIG    1       25.423 -30.570   5.419  0.00  0.00    -0.145 NA
ENDBRANCH  13  18
ENDBRANCH   1  13
TORSDOF 4
ENDMDL
MODEL 8
REMARK VINA RESULT:      -7.0      7.742      8.751
REMARK  Name = *****
REMARK                            x       y       z     vdW  Elec       q    Type
REMARK                         _______ _______ _______ _____ _____    ______ ____
ROOT
ATOM      1  S   LIG    1       24.742 -23.049   6.255  0.00  0.00    +0.074 S 
ATOM      2  O   LIG    1       23.524 -22.850   7.017  0.00  0.00    -0.150 OA
ATOM      3  O   LIG    1       25.991 -22.420   6.616  0.00  0.00    -0.150 OA
ENDROOT
BRANCH   1   4
ATOM      4  C   LIG    1       25.017 -24.803   6.199  0.00  0.00    +0.109 A 
ATOM      5  C   LIG    1       26.240 -25.335   6.612  0.00  0.00    +0.030 A 
ATOM      6  C   LIG    1       26.422 -26.721   6.607  0.00  0.00    +0.024 A 
ATOM      7  C   LIG    1       25.384 -27.578   6.228  0.00  0.00    +0.025 A 
ATOM      8  C   LIG    1       24.192 -27.022   5.748  0.00  0.00    +0.024 A 
ATOM      9  C   LIG    1       23.992 -25.640   5.759  0.00  0.00    +0.030 A 
BRANCH   7  10
ATOM     10  N   LIG    1       25.614 -28.954   6.113  0.00  0.00    -0.358 N 
ATOM     11  H   LIG    1       24.978 -29.424   5.478  0.00  0.00    +0.142 HD
ATOM     12  H   LIG    1       26.584 -29.194   5.923  0.00  0.00    +0.142 HD
ENDBRANCH   7  10
ENDBRANCH   1   4
BRANCH   1  13
ATOM     13  N   LIG    1       24.480 -22.693   4.609  0.00  0.00    -0.192 N 
ATOM     14  H   LIG    1       25.415 -22.722   4.196  0.00  0.00    +0.176 HD
BRANCH  13  18
ATOM     15  C   LIG    1       22.166 -18.019   4.508  0.00  0.00    +0.075 C 
ATOM     16  C   LIG    1       23.050 -19.208   4.409  0.00  0.00    +0.101 A 
ATOM     17  S   LIG    1       22.528 -20.755   4.955  0.00  0.00    -0.035 S 
ATOM     18  C   LIG    1       24.068 -21.336   4.499  0.00  0.00    +0.201 A 
ATOM     19  N   LIG    1       24.840 -20.456   3.910  0.00  0.00    -0.124 NA
ATOM     20  N   LIG    1       24.263 -19.201   3.894  0.00  0.00    -0.145 NA
ENDBRANCH  13  18
ENDBRANCH   1  13
TORSDOF 4
ENDMDL
MODEL 9
REMARK VINA RESULT:      -7.0      5.095      8.370
REMARK  Name = *****
REMARK                            x       y       z     vdW  Elec       q    Type
REMARK                         _______ _______ _______ _____ _____    ______ ____
ROOT
ATOM      1  S   LIG    1       24.313 -21.304   5.992  0.00  0.00    +0.074 S 
ATOM      2  O   LIG    1       23.457 -20.134   6.018  0.00  0.00    -0.150 OA
ATOM      3  O   LIG    1       24.427 -22.153   4.829  0.00  0.00    -0.150 OA
ENDROOT
BRANCH   1   4
ATOM      4  C   LIG    1       25.945 -20.740   6.410  0.00  0.00    +0.109 A 
ATOM      5  C   LIG    1       26.808 -20.286   5.411  0.00  0.00    +0.030 A 
ATOM      6  C   LIG    1       28.071 -19.799   5.764  0.00  0.00    +0.024 A 
ATOM      7  C   LIG    1       28.463 -19.731   7.105  0.00  0.00    +0.025 A 
ATOM      8  C   LIG    1       27.612 -20.259   8.083  0.00  0.00    +0.024 A 
ATOM      9  C   LIG    1       26.344 -20.736   7.747  0.00  0.00    +0.030 A 
BRANCH   7  10
ATOM     10  N   LIG    1       29.770 -19.356   7.437  0.00  0.00    -0.358 N 
ATOM     11  H   LIG    1       29.947 -18.361   7.341  0.00  0.00    +0.142 HD
ATOM     12  H   LIG    1       30.083 -19.711   8.337  0.00  0.00    +0.142 HD
ENDBRANCH   7  10
ENDBRANCH   1   4
BRANCH   1  13
ATOM     13  N   LIG    1       23.961 -22.329   7.306  0.00  0.00    -0.192 N 
ATOM     14  H   LIG    1       24.674 -22.096   8.003  0.00  0.00    +0.176 HD
BRANCH  13  18
ATOM     15  C   LIG    1       25.864 -26.992   5.947  0.00  0.00    +0.075 C 
ATOM     16  C   LIG    1       25.060 -25.787   6.273  0.00  0.00    +0.101 A 
ATOM     17  S   LIG    1       25.813 -24.322   6.775  0.00  0.00    -0.035 S 
ATOM     18  C   LIG    1       24.242 -23.670   6.922  0.00  0.00    +0.201 A 
ATOM     19  N   LIG    1       23.274 -24.463   6.534  0.00  0.00    -0.124 NA
ATOM     20  N   LIG    1       23.747 -25.715   6.193  0.00  0.00    -0.145 NA
ENDBRANCH  13  18
ENDBRANCH   1  13
TORSDOF 4
ENDMDL
