MODEL 1
REMARK VINA RESULT:      -8.4      0.000      0.000
REMARK  Name = *****
REMARK                            x       y       z     vdW  Elec       q    Type
REMARK                         _______ _______ _______ _____ _____    ______ ____
ROOT
ATOM      1  C   LIG    1       25.006 -21.607   6.051  0.00  0.00    +0.071 C 
ATOM      2  C   LIG    1       24.446 -21.229   7.446  0.00  0.00    +0.018 C 
ATOM      3  C   LIG    1       25.491 -21.208   8.558  0.00  0.00    +0.001 C 
ATOM      4  C   LIG    1       26.614 -20.242   8.222  0.00  0.00    +0.000 C 
ATOM      5  C   LIG    1       27.259 -20.605   6.894  0.00  0.00    +0.001 C 
ATOM      6  C   LIG    1       26.236 -20.694   5.758  0.00  0.00    +0.018 C 
ENDROOT
BRANCH   1   7
ATOM      7  C   LIG    1       23.941 -21.444   4.873  0.00  0.00    +0.006 C 
ATOM      8  C   LIG    1       22.548 -20.894   5.259  0.00  0.00    +0.004 C 
ATOM      9  C   LIG    1       22.464 -19.375   5.375  0.00  0.00    +0.000 C 
ATOM     10  C   LIG    1       22.954 -18.666   4.119  0.00  0.00    +0.000 C 
ATOM     11  C   LIG    1       24.312 -19.163   3.646  0.00  0.00    +0.000 C 
ATOM     12  C   LIG    1       24.411 -20.690   3.598  0.00  0.00    +0.004 C 
ENDBRANCH   1   7
BRANCH   1  13
ATOM     13  C   LIG    1       25.439 -23.111   6.115  0.00  0.00    +0.314 C 
ATOM     14  O   LIG    1       26.168 -23.580   6.968  0.00  0.00    -0.250 OA
BRANCH  13  15
ATOM     15  O   LIG    1       24.872 -23.846   5.098  0.00  0.00    -0.463 OA
BRANCH  15  16
ATOM     16  C   LIG    1       25.248 -25.243   5.053  0.00  0.00    +0.247 C 
BRANCH  16  17
ATOM     17  C   LIG    1       24.145 -26.121   5.679  0.00  0.00    +0.125 C 
BRANCH  17  18
ATOM     18  N   LIG    1       24.607 -27.385   6.289  0.00  0.00    -0.300 NA
BRANCH  18  20
ATOM     19  C   LIG    1       24.078 -29.882   6.058  0.00  0.00    +0.020 C 
ATOM     20  C   LIG    1       24.473 -28.557   5.408  0.00  0.00    +0.081 C 
ENDBRANCH  18  20
BRANCH  18  21
ATOM     21  C   LIG    1       25.965 -27.244   6.853  0.00  0.00    +0.081 C 
ATOM     22  C   LIG    1       26.126 -27.961   8.195  0.00  0.00    +0.020 C 
ENDBRANCH  18  21
ENDBRANCH  17  18
ENDBRANCH  16  17
ENDBRANCH  15  16
ENDBRANCH  13  15
ENDBRANCH   1  13
TORSDOF 8
ENDMDL
MODEL 2
REMARK VINA RESULT:      -8.2      3.143      6.490
REMARK  Name = *****
REMARK                            x       y       z     vdW  Elec       q    Type
REMARK                         _______ _______ _______ _____ _____    ______ ____
ROOT
ATOM      1  C   LIG    1       24.386 -21.812   6.550  0.00  0.00    +0.071 C 
ATOM      2  C   LIG    1       22.998 -21.123   6.514  0.00  0.00    +0.018 C 
ATOM      3  C   LIG    1       22.954 -19.842   5.684  0.00  0.00    +0.001 C 
ATOM      4  C   LIG    1       23.383 -20.115   4.253  0.00  0.00    +0.000 C 
ATOM      5  C   LIG    1       24.775 -20.725   4.213  0.00  0.00    +0.001 C 
ATOM      6  C   LIG    1       24.881 -21.983   5.081  0.00  0.00    +0.018 C 
ENDROOT
BRANCH   1   7
ATOM      7  C   LIG    1       24.369 -23.238   7.265  0.00  0.00    +0.006 C 
ATOM      8  C   LIG    1       23.384 -24.291   6.705  0.00  0.00    +0.004 C 
ATOM      9  C   LIG    1       23.882 -25.052   5.481  0.00  0.00    +0.000 C 
ATOM     10  C   LIG    1       25.238 -25.705   5.710  0.00  0.00    +0.000 C 
ATOM     11  C   LIG    1       26.269 -24.748   6.288  0.00  0.00    +0.000 C 
ATOM     12  C   LIG    1       25.741 -23.938   7.475  0.00  0.00    +0.004 C 
ENDBRANCH   1   7
BRANCH   1  13
ATOM     13  C   LIG    1       25.352 -20.873   7.351  0.00  0.00    +0.314 C 
ATOM     14  O   LIG    1       25.099 -20.396   8.440  0.00  0.00    -0.250 OA
BRANCH  13  15
ATOM     15  O   LIG    1       26.537 -20.673   6.679  0.00  0.00    -0.463 OA
BRANCH  15  16
ATOM     16  C   LIG    1       27.738 -20.997   7.419  0.00  0.00    +0.247 C 
BRANCH  16  17
ATOM     17  C   LIG    1       28.762 -19.849   7.319  0.00  0.00    +0.125 C 
BRANCH  17  18
ATOM     18  N   LIG    1       29.736 -19.766   8.427  0.00  0.00    -0.300 NA
BRANCH  18  20
ATOM     19  C   LIG    1       31.021 -21.854   9.177  0.00  0.00    +0.020 C 
ATOM     20  C   LIG    1       30.910 -20.639   8.257  0.00  0.00    +0.081 C 
ENDBRANCH  18  20
BRANCH  18  21
ATOM     21  C   LIG    1       30.102 -18.365   8.717  0.00  0.00    +0.081 C 
ATOM     22  C   LIG    1       31.614 -18.134   8.709  0.00  0.00    +0.020 C 
ENDBRANCH  18  21
ENDBRANCH  17  18
ENDBRANCH  16  17
ENDBRANCH  15  16
ENDBRANCH  13  15
ENDBRANCH   1  13
TORSDOF 8
ENDMDL
MODEL 3
REMARK VINA RESULT:      -8.1      2.922      6.312
REMARK  Name = *****
REMARK                            x       y       z     vdW  Elec       q    Type
REMARK                         _______ _______ _______ _____ _____    ______ ____
ROOT
ATOM      1  C   LIG    1       24.377 -21.855   6.582  0.00  0.00    +0.071 C 
ATOM      2  C   LIG    1       22.965 -21.222   6.485  0.00  0.00    +0.018 C 
ATOM      3  C   LIG    1       22.913 -19.922   5.688  0.00  0.00    +0.001 C 
ATOM      4  C   LIG    1       23.432 -20.136   4.276  0.00  0.00    +0.000 C 
ATOM      5  C   LIG    1       24.849 -20.688   4.300  0.00  0.00    +0.001 C 
ATOM      6  C   LIG    1       24.960 -21.964   5.139  0.00  0.00    +0.018 C 
ENDROOT
BRANCH   1   7
ATOM      7  C   LIG    1       24.380 -23.301   7.258  0.00  0.00    +0.006 C 
ATOM      8  C   LIG    1       23.399 -24.347   6.679  0.00  0.00    +0.004 C 
ATOM      9  C   LIG    1       23.891 -25.069   5.429  0.00  0.00    +0.000 C 
ATOM     10  C   LIG    1       25.255 -25.715   5.627  0.00  0.00    +0.000 C 
ATOM     11  C   LIG    1       26.284 -24.765   6.220  0.00  0.00    +0.000 C 
ATOM     12  C   LIG    1       25.760 -23.993   7.434  0.00  0.00    +0.004 C 
ENDBRANCH   1   7
BRANCH   1  13
ATOM     13  C   LIG    1       25.256 -20.901   7.461  0.00  0.00    +0.314 C 
ATOM     14  O   LIG    1       24.902 -20.423   8.521  0.00  0.00    -0.250 OA
BRANCH  13  15
ATOM     15  O   LIG    1       26.493 -20.687   6.895  0.00  0.00    -0.463 OA
BRANCH  15  16
ATOM     16  C   LIG    1       27.566 -20.407   7.826  0.00  0.00    +0.247 C 
BRANCH  16  17
ATOM     17  C   LIG    1       28.877 -21.070   7.357  0.00  0.00    +0.125 C 
BRANCH  17  18
ATOM     18  N   LIG    1       30.071 -20.202   7.375  0.00  0.00    -0.300 NA
BRANCH  18  20
ATOM     19  C   LIG    1       29.450 -18.475   5.586  0.00  0.00    +0.020 C 
ATOM     20  C   LIG    1       29.793 -18.795   7.040  0.00  0.00    +0.081 C 
ENDBRANCH  18  20
BRANCH  18  21
ATOM     21  C   LIG    1       30.824 -20.352   8.638  0.00  0.00    +0.081 C 
ATOM     22  C   LIG    1       31.091 -21.814   8.999  0.00  0.00    +0.020 C 
ENDBRANCH  18  21
ENDBRANCH  17  18
ENDBRANCH  16  17
ENDBRANCH  15  16
ENDBRANCH  13  15
ENDBRANCH   1  13
TORSDOF 8
ENDMDL
MODEL 4
REMARK VINA RESULT:      -7.8      2.946      5.856
REMARK  Name = *****
REMARK                            x       y       z     vdW  Elec       q    Type
REMARK                         _______ _______ _______ _____ _____    ______ ____
ROOT
ATOM      1  C   LIG    1       24.585 -21.977   6.478  0.00  0.00    +0.071 C 
ATOM      2  C   LIG    1       25.215 -22.818   5.339  0.00  0.00    +0.018 C 
ATOM      3  C   LIG    1       25.211 -24.323   5.593  0.00  0.00    +0.001 C 
ATOM      4  C   LIG    1       23.796 -24.826   5.824  0.00  0.00    +0.000 C 
ATOM      5  C   LIG    1       23.144 -24.090   6.984  0.00  0.00    +0.001 C 
ATOM      6  C   LIG    1       23.178 -22.570   6.798  0.00  0.00    +0.018 C 
ENDROOT
BRANCH   1   7
ATOM      7  C   LIG    1       24.431 -20.431   6.116  0.00  0.00    +0.006 C 
ATOM      8  C   LIG    1       25.266 -19.904   4.925  0.00  0.00    +0.004 C 
ATOM      9  C   LIG    1       24.658 -20.157   3.550  0.00  0.00    +0.000 C 
ATOM     10  C   LIG    1       23.233 -19.631   3.436  0.00  0.00    +0.000 C 
ATOM     11  C   LIG    1       22.340 -20.078   4.583  0.00  0.00    +0.000 C 
ATOM     12  C   LIG    1       22.985 -19.884   5.958  0.00  0.00    +0.004 C 
ENDBRANCH   1   7
BRANCH   1  13
ATOM     13  C   LIG    1       25.529 -22.098   7.723  0.00  0.00    +0.314 C 
ATOM     14  O   LIG    1       25.143 -22.170   8.873  0.00  0.00    -0.250 OA
BRANCH  13  15
ATOM     15  O   LIG    1       26.854 -22.137   7.351  0.00  0.00    -0.463 OA
BRANCH  15  16
ATOM     16  C   LIG    1       27.639 -20.975   7.712  0.00  0.00    +0.247 C 
BRANCH  16  17
ATOM     17  C   LIG    1       29.116 -21.174   7.316  0.00  0.00    +0.125 C 
BRANCH  17  18
ATOM     18  N   LIG    1       30.047 -20.129   7.786  0.00  0.00    -0.300 NA
BRANCH  18  20
ATOM     19  C   LIG    1       30.942 -22.029   9.257  0.00  0.00    +0.020 C 
ATOM     20  C   LIG    1       31.122 -20.635   8.658  0.00  0.00    +0.081 C 
ENDBRANCH  18  20
BRANCH  18  21
ATOM     21  C   LIG    1       30.557 -19.317   6.662  0.00  0.00    +0.081 C 
ATOM     22  C   LIG    1       29.447 -18.562   5.927  0.00  0.00    +0.020 C 
ENDBRANCH  18  21
ENDBRANCH  17  18
ENDBRANCH  16  17
ENDBRANCH  15  16
ENDBRANCH  13  15
ENDBRANCH   1  13
TORSDOF 8
ENDMDL
MODEL 5
REMARK VINA RESULT:      -7.4      1.314      3.845
REMARK  Name = *****
REMARK                            x       y       z     vdW  Elec       q    Type
REMARK                         _______ _______ _______ _____ _____    ______ ____
ROOT
ATOM      1  C   LIG    1       24.285 -21.604   6.654  0.00  0.00    +0.071 C 
ATOM      2  C   LIG    1       25.101 -21.383   5.355  0.00  0.00    +0.018 C 
ATOM      3  C   LIG    1       24.253 -21.060   4.127  0.00  0.00    +0.001 C 
ATOM      4  C   LIG    1       23.407 -19.822   4.370  0.00  0.00    +0.000 C 
ATOM      5  C   LIG    1       22.522 -20.004   5.594  0.00  0.00    +0.001 C 
ATOM      6  C   LIG    1       23.327 -20.387   6.839  0.00  0.00    +0.018 C 
ENDROOT
BRANCH   1   7
ATOM      7  C   LIG    1       25.194 -21.757   7.957  0.00  0.00    +0.006 C 
ATOM      8  C   LIG    1       26.240 -22.896   7.951  0.00  0.00    +0.004 C 
ATOM      9  C   LIG    1       27.545 -22.568   7.233  0.00  0.00    +0.000 C 
ATOM     10  C   LIG    1       28.194 -21.292   7.754  0.00  0.00    +0.000 C 
ATOM     11  C   LIG    1       27.229 -20.119   7.821  0.00  0.00    +0.000 C 
ATOM     12  C   LIG    1       25.894 -20.473   8.482  0.00  0.00    +0.004 C 
ENDBRANCH   1   7
BRANCH   1  13
ATOM     13  C   LIG    1       23.465 -22.927   6.469  0.00  0.00    +0.314 C 
ATOM     14  O   LIG    1       22.312 -23.075   6.824  0.00  0.00    -0.250 OA
BRANCH  13  15
ATOM     15  O   LIG    1       24.206 -23.897   5.832  0.00  0.00    -0.463 OA
BRANCH  15  16
ATOM     16  C   LIG    1       23.956 -25.257   6.263  0.00  0.00    +0.247 C 
BRANCH  16  17
ATOM     17  C   LIG    1       24.511 -26.261   5.232  0.00  0.00    +0.125 C 
BRANCH  17  18
ATOM     18  N   LIG    1       25.674 -27.055   5.679  0.00  0.00    -0.300 NA
BRANCH  18  20
ATOM     19  C   LIG    1       26.191 -27.881   8.050  0.00  0.00    +0.020 C 
ATOM     20  C   LIG    1       26.128 -26.734   7.042  0.00  0.00    +0.081 C 
ENDBRANCH  18  20
BRANCH  18  21
ATOM     21  C   LIG    1       25.447 -28.501   5.476  0.00  0.00    +0.081 C 
ATOM     22  C   LIG    1       23.968 -28.884   5.543  0.00  0.00    +0.020 C 
ENDBRANCH  18  21
ENDBRANCH  17  18
ENDBRANCH  16  17
ENDBRANCH  15  16
ENDBRANCH  13  15
ENDBRANCH   1  13
TORSDOF 8
ENDMDL
MODEL 6
REMARK VINA RESULT:      -7.1      1.184      3.585
REMARK  Name = *****
REMARK                            x       y       z     vdW  Elec       q    Type
REMARK                         _______ _______ _______ _____ _____    ______ ____
ROOT
ATOM      1  C   LIG    1       24.524 -22.265   6.503  0.00  0.00    +0.071 C 
ATOM      2  C   LIG    1       25.110 -21.820   5.139  0.00  0.00    +0.018 C 
ATOM      3  C   LIG    1       24.061 -21.432   4.100  0.00  0.00    +0.001 C 
ATOM      4  C   LIG    1       23.177 -20.312   4.622  0.00  0.00    +0.000 C 
ATOM      5  C   LIG    1       22.509 -20.715   5.928  0.00  0.00    +0.001 C 
ATOM      6  C   LIG    1       23.523 -21.169   6.982  0.00  0.00    +0.018 C 
ENDROOT
BRANCH   1   7
ATOM      7  C   LIG    1       25.633 -22.489   7.628  0.00  0.00    +0.006 C 
ATOM      8  C   LIG    1       27.107 -22.535   7.161  0.00  0.00    +0.004 C 
ATOM      9  C   LIG    1       27.762 -21.172   6.964  0.00  0.00    +0.000 C 
ATOM     10  C   LIG    1       27.654 -20.288   8.199  0.00  0.00    +0.000 C 
ATOM     11  C   LIG    1       26.239 -20.204   8.749  0.00  0.00    +0.000 C 
ATOM     12  C   LIG    1       25.562 -21.571   8.880  0.00  0.00    +0.004 C 
ENDBRANCH   1   7
BRANCH   1  13
ATOM     13  C   LIG    1       23.781 -23.625   6.269  0.00  0.00    +0.314 C 
ATOM     14  O   LIG    1       22.710 -23.916   6.764  0.00  0.00    -0.250 OA
BRANCH  13  15
ATOM     15  O   LIG    1       24.482 -24.444   5.412  0.00  0.00    -0.463 OA
BRANCH  15  16
ATOM     16  C   LIG    1       25.167 -25.558   6.032  0.00  0.00    +0.247 C 
BRANCH  16  17
ATOM     17  C   LIG    1       24.279 -26.818   6.016  0.00  0.00    +0.125 C 
BRANCH  17  18
ATOM     18  N   LIG    1       24.907 -28.047   6.540  0.00  0.00    -0.300 NA
BRANCH  18  20
ATOM     19  C   LIG    1       25.063 -30.476   5.735  0.00  0.00    +0.020 C 
ATOM     20  C   LIG    1       25.335 -28.992   5.495  0.00  0.00    +0.081 C 
ENDBRANCH  18  20
BRANCH  18  21
ATOM     21  C   LIG    1       25.982 -27.732   7.503  0.00  0.00    +0.081 C 
ATOM     22  C   LIG    1       25.987 -28.668   8.713  0.00  0.00    +0.020 C 
ENDBRANCH  18  21
ENDBRANCH  17  18
ENDBRANCH  16  17
ENDBRANCH  15  16
ENDBRANCH  13  15
ENDBRANCH   1  13
TORSDOF 8
ENDMDL
MODEL 7
REMARK VINA RESULT:      -6.7      3.583      5.743
REMARK  Name = *****
REMARK                            x       y       z     vdW  Elec       q    Type
REMARK                         _______ _______ _______ _____ _____    ______ ____
ROOT
ATOM      1  C   LIG    1       25.067 -21.235   5.835  0.00  0.00    +0.071 C 
ATOM      2  C   LIG    1       25.472 -22.702   6.133  0.00  0.00    +0.018 C 
ATOM      3  C   LIG    1       26.360 -22.871   7.362  0.00  0.00    +0.001 C 
ATOM      4  C   LIG    1       25.680 -22.308   8.598  0.00  0.00    +0.000 C 
ATOM      5  C   LIG    1       25.323 -20.843   8.399  0.00  0.00    +0.001 C 
ATOM      6  C   LIG    1       24.478 -20.619   7.142  0.00  0.00    +0.018 C 
ENDROOT
BRANCH   1   7
ATOM      7  C   LIG    1       23.993 -21.098   4.662  0.00  0.00    +0.006 C 
ATOM      8  C   LIG    1       22.533 -20.806   5.080  0.00  0.00    +0.004 C 
ATOM      9  C   LIG    1       22.224 -19.340   5.363  0.00  0.00    +0.000 C 
ATOM     10  C   LIG    1       22.607 -18.429   4.205  0.00  0.00    +0.000 C 
ATOM     11  C   LIG    1       24.024 -18.663   3.706  0.00  0.00    +0.000 C 
ATOM     12  C   LIG    1       24.349 -20.143   3.489  0.00  0.00    +0.004 C 
ENDBRANCH   1   7
BRANCH   1  13
ATOM     13  C   LIG    1       26.365 -20.472   5.403  0.00  0.00    +0.314 C 
ATOM     14  O   LIG    1       26.731 -20.336   4.252  0.00  0.00    -0.250 OA
BRANCH  13  15
ATOM     15  O   LIG    1       27.032 -19.952   6.489  0.00  0.00    -0.463 OA
BRANCH  15  16
ATOM     16  C   LIG    1       28.450 -19.725   6.302  0.00  0.00    +0.247 C 
BRANCH  16  17
ATOM     17  C   LIG    1       29.272 -20.622   7.251  0.00  0.00    +0.125 C 
BRANCH  17  18
ATOM     18  N   LIG    1       29.906 -19.929   8.391  0.00  0.00    -0.300 NA
BRANCH  18  20
ATOM     19  C   LIG    1       31.115 -22.055   9.159  0.00  0.00    +0.020 C 
ATOM     20  C   LIG    1       31.154 -20.559   8.853  0.00  0.00    +0.081 C 
ENDBRANCH  18  20
BRANCH  18  21
ATOM     21  C   LIG    1       30.058 -18.484   8.124  0.00  0.00    +0.081 C 
ATOM     22  C   LIG    1       30.220 -17.660   9.402  0.00  0.00    +0.020 C 
ENDBRANCH  18  21
ENDBRANCH  17  18
ENDBRANCH  16  17
ENDBRANCH  15  16
ENDBRANCH  13  15
ENDBRANCH   1  13
TORSDOF 8
ENDMDL
MODEL 8
REMARK VINA RESULT:      -6.0      3.120      6.463
REMARK  Name = *****
REMARK                            x       y       z     vdW  Elec       q    Type
REMARK                         _______ _______ _______ _____ _____    ______ ____
ROOT
ATOM      1  C   LIG    1       24.969 -21.459   5.693  0.00  0.00    +0.071 C 
ATOM      2  C   LIG    1       23.490 -21.551   6.146  0.00  0.00    +0.018 C 
ATOM      3  C   LIG    1       22.758 -20.212   6.181  0.00  0.00    +0.001 C 
ATOM      4  C   LIG    1       22.793 -19.544   4.817  0.00  0.00    +0.000 C 
ATOM      5  C   LIG    1       24.227 -19.355   4.346  0.00  0.00    +0.001 C 
ATOM      6  C   LIG    1       25.017 -20.666   4.350  0.00  0.00    +0.018 C 
ENDROOT
BRANCH   1   7
ATOM      7  C   LIG    1       25.661 -22.882   5.486  0.00  0.00    +0.006 C 
ATOM      8  C   LIG    1       26.288 -23.544   6.735  0.00  0.00    +0.004 C 
ATOM      9  C   LIG    1       25.305 -24.293   7.629  0.00  0.00    +0.000 C 
ATOM     10  C   LIG    1       24.494 -25.330   6.865  0.00  0.00    +0.000 C 
ATOM     11  C   LIG    1       23.857 -24.774   5.601  0.00  0.00    +0.000 C 
ATOM     12  C   LIG    1       24.833 -23.966   4.741  0.00  0.00    +0.004 C 
ENDBRANCH   1   7
BRANCH   1  13
ATOM     13  C   LIG    1       25.752 -20.691   6.813  0.00  0.00    +0.314 C 
ATOM     14  O   LIG    1       25.346 -20.531   7.947  0.00  0.00    -0.250 OA
BRANCH  13  15
ATOM     15  O   LIG    1       26.972 -20.240   6.360  0.00  0.00    -0.463 OA
BRANCH  15  16
ATOM     16  C   LIG    1       28.125 -20.717   7.093  0.00  0.00    +0.247 C 
BRANCH  16  17
ATOM     17  C   LIG    1       28.898 -19.537   7.715  0.00  0.00    +0.125 C 
BRANCH  17  18
ATOM     18  N   LIG    1       29.866 -19.895   8.772  0.00  0.00    -0.300 NA
BRANCH  18  20
ATOM     19  C   LIG    1       31.116 -22.092   9.198  0.00  0.00    +0.020 C 
ATOM     20  C   LIG    1       30.900 -20.849   8.336  0.00  0.00    +0.081 C 
ENDBRANCH  18  20
BRANCH  18  21
ATOM     21  C   LIG    1       30.432 -18.690   9.413  0.00  0.00    +0.081 C 
ATOM     22  C   LIG    1       30.305 -17.440   8.540  0.00  0.00    +0.020 C 
ENDBRANCH  18  21
ENDBRANCH  17  18
ENDBRANCH  16  17
ENDBRANCH  15  16
ENDBRANCH  13  15
ENDBRANCH   1  13
TORSDOF 8
ENDMDL
MODEL 9
REMARK VINA RESULT:      -5.7      2.981      8.912
REMARK  Name = *****
REMARK                            x       y       z     vdW  Elec       q    Type
REMARK                         _______ _______ _______ _____ _____    ______ ____
ROOT
ATOM      1  C   LIG    1       24.979 -30.135   7.873  0.00  0.00    +0.071 C 
ATOM      2  C   LIG    1       26.253 -30.764   8.491  0.00  0.00    +0.018 C 
ATOM      3  C   LIG    1       26.568 -30.285   9.906  0.00  0.00    +0.001 C 
ATOM      4  C   LIG    1       25.402 -30.563  10.840  0.00  0.00    +0.000 C 
ATOM      5  C   LIG    1       24.130 -29.906  10.326  0.00  0.00    +0.001 C 
ATOM      6  C   LIG    1       23.807 -30.315   8.886  0.00  0.00    +0.018 C 
ENDROOT
BRANCH   1   7
ATOM      7  C   LIG    1       24.565 -30.782   6.474  0.00  0.00    +0.006 C 
ATOM      8  C   LIG    1       25.698 -31.012   5.446  0.00  0.00    +0.004 C 
ATOM      9  C   LIG    1       26.508 -32.288   5.654  0.00  0.00    +0.000 C 
ATOM     10  C   LIG    1       25.631 -33.531   5.722  0.00  0.00    +0.000 C 
ATOM     11  C   LIG    1       24.469 -33.388   6.692  0.00  0.00    +0.000 C 
ATOM     12  C   LIG    1       23.702 -32.073   6.523  0.00  0.00    +0.004 C 
ENDBRANCH   1   7
BRANCH   1  13
ATOM     13  C   LIG    1       25.277 -28.614   7.640  0.00  0.00    +0.314 C 
ATOM     14  O   LIG    1       26.173 -27.999   8.184  0.00  0.00    -0.250 OA
BRANCH  13  15
ATOM     15  O   LIG    1       24.412 -28.062   6.722  0.00  0.00    -0.463 OA
BRANCH  15  16
ATOM     16  C   LIG    1       24.955 -26.988   5.917  0.00  0.00    +0.247 C 
BRANCH  16  17
ATOM     17  C   LIG    1       24.073 -25.729   6.028  0.00  0.00    +0.125 C 
BRANCH  17  18
ATOM     18  N   LIG    1       24.788 -24.440   5.940  0.00  0.00    -0.300 NA
BRANCH  18  20
ATOM     19  C   LIG    1       22.562 -23.480   6.773  0.00  0.00    +0.020 C 
ATOM     20  C   LIG    1       23.921 -23.262   6.110  0.00  0.00    +0.081 C 
ENDBRANCH  18  20
BRANCH  18  21
ATOM     21  C   LIG    1       25.967 -24.418   6.831  0.00  0.00    +0.081 C 
ATOM     22  C   LIG    1       26.249 -23.028   7.404  0.00  0.00    +0.020 C 
ENDBRANCH  18  21
ENDBRANCH  17  18
ENDBRANCH  16  17
ENDBRANCH  15  16
ENDBRANCH  13  15
ENDBRANCH   1  13
TORSDOF 8
ENDMDL
