MODEL 1
REMARK VINA RESULT:      -7.0      0.000      0.000
REMARK  Name = *****
REMARK                            x       y       z     vdW  Elec       q    Type
REMARK                         _______ _______ _______ _____ _____    ______ ____
ROOT
ATOM      1  N   LIG    1       25.345 -19.374   4.263  0.00  0.00    -0.344 NA
ATOM      2  C   LIG    1       25.937 -19.981   5.404  0.00  0.00    +0.090 C 
ATOM      3  C   LIG    1       25.104 -20.724   6.271  0.00  0.00    +0.052 C 
ATOM      4  C   LIG    1       25.593 -21.337   7.426  0.00  0.00    +0.054 C 
ATOM      5  C   LIG    1       26.928 -21.200   7.764  0.00  0.00    +0.148 C 
ATOM      6  C   LIG    1       27.829 -20.473   6.970  0.00  0.00    +0.103 C 
ATOM      7  F   LIG    1       27.325 -21.822   8.884  0.00  0.00    -0.203 F 
ATOM      8  C   LIG    1       23.660 -20.880   5.980  0.00  0.00    +0.203 C 
ATOM      9  O   LIG    1       22.931 -21.569   6.691  0.00  0.00    -0.286 OA
ATOM     10  C   LIG    1       23.103 -20.182   4.812  0.00  0.00    +0.122 C 
ATOM     11  C   LIG    1       27.305 -19.901   5.776  0.00  0.00    +0.171 C 
ATOM     12  F   LIG    1       28.169 -19.233   4.991  0.00  0.00    -0.201 F 
ATOM     13  C   LIG    1       23.970 -19.490   4.064  0.00  0.00    +0.105 C 
ENDROOT
BRANCH   6  14
ATOM     14  N   LIG    1       29.196 -20.277   7.315  0.00  0.00    -0.323 NA
ATOM     15  C   LIG    1       29.746 -21.406   8.108  0.00  0.00    +0.123 C 
ATOM     16  C   LIG    1       31.256 -21.187   8.445  0.00  0.00    +0.068 C 
ATOM     17  C   LIG    1       31.748 -22.258   9.419  0.00  0.00    +0.025 C 
ATOM     18  N   LIG    1       31.552 -19.863   9.043  0.00  0.00    -0.310 NA
ATOM     19  H   LIG    1       31.046 -19.788   9.928  0.00  0.00    +0.122 HD
ATOM     20  C   LIG    1       31.046 -18.815   8.136  0.00  0.00    +0.100 C 
ATOM     21  C   LIG    1       29.532 -18.950   7.885  0.00  0.00    +0.120 C 
ENDBRANCH   6  14
BRANCH   1  23
ATOM     22  C   LIG    1       25.945 -17.150   3.318  0.00  0.00    +0.027 C 
ATOM     23  C   LIG    1       26.169 -18.655   3.268  0.00  0.00    +0.118 C 
ENDBRANCH   1  23
BRANCH  10  24
ATOM     24  C   LIG    1       21.673 -20.228   4.436  0.00  0.00    +0.342 C 
ATOM     25  O   LIG    1       21.060 -19.263   4.018  0.00  0.00    -0.245 OA
BRANCH  24  26
ATOM     26  O   LIG    1       21.091 -21.441   4.585  0.00  0.00    -0.477 OA
ATOM     27  H   LIG    1       20.433 -21.486   5.321  0.00  0.00    +0.295 HD
ENDBRANCH  24  26
ENDBRANCH  10  24
TORSDOF 4
ENDMDL
MODEL 2
REMARK VINA RESULT:      -6.6      1.129      1.330
REMARK  Name = *****
REMARK                            x       y       z     vdW  Elec       q    Type
REMARK                         _______ _______ _______ _____ _____    ______ ____
ROOT
ATOM      1  N   LIG    1       25.258 -19.559   4.436  0.00  0.00    -0.344 NA
ATOM      2  C   LIG    1       25.926 -20.102   5.567  0.00  0.00    +0.090 C 
ATOM      3  C   LIG    1       25.187 -20.927   6.445  0.00  0.00    +0.052 C 
ATOM      4  C   LIG    1       25.754 -21.486   7.592  0.00  0.00    +0.054 C 
ATOM      5  C   LIG    1       27.072 -21.211   7.911  0.00  0.00    +0.148 C 
ATOM      6  C   LIG    1       27.882 -20.395   7.105  0.00  0.00    +0.103 C 
ATOM      7  F   LIG    1       27.548 -21.789   9.024  0.00  0.00    -0.203 F 
ATOM      8  C   LIG    1       23.763 -21.232   6.175  0.00  0.00    +0.203 C 
ATOM      9  O   LIG    1       23.120 -21.992   6.897  0.00  0.00    -0.286 OA
ATOM     10  C   LIG    1       23.120 -20.595   5.017  0.00  0.00    +0.122 C 
ATOM     11  C   LIG    1       27.284 -19.880   5.919  0.00  0.00    +0.171 C 
ATOM     12  F   LIG    1       28.063 -19.126   5.123  0.00  0.00    -0.201 F 
ATOM     13  C   LIG    1       23.900 -19.817   4.257  0.00  0.00    +0.105 C 
ENDROOT
BRANCH   6  14
ATOM     14  N   LIG    1       29.227 -20.058   7.430  0.00  0.00    -0.323 NA
ATOM     15  C   LIG    1       29.317 -19.198   8.638  0.00  0.00    +0.123 C 
ATOM     16  C   LIG    1       30.801 -18.871   8.998  0.00  0.00    +0.068 C 
ATOM     17  C   LIG    1       30.863 -17.834  10.121  0.00  0.00    +0.025 C 
ATOM     18  N   LIG    1       31.594 -18.351   7.859  0.00  0.00    -0.310 NA
ATOM     19  H   LIG    1       31.174 -17.474   7.547  0.00  0.00    +0.122 HD
ATOM     20  C   LIG    1       31.512 -19.320   6.750  0.00  0.00    +0.100 C 
ATOM     21  C   LIG    1       30.058 -19.567   6.305  0.00  0.00    +0.120 C 
ENDBRANCH   6  14
BRANCH   1  23
ATOM     22  C   LIG    1       25.515 -17.313   3.395  0.00  0.00    +0.027 C 
ATOM     23  C   LIG    1       25.988 -18.759   3.430  0.00  0.00    +0.118 C 
ENDBRANCH   1  23
BRANCH  10  24
ATOM     24  C   LIG    1       21.697 -20.789   4.662  0.00  0.00    +0.342 C 
ATOM     25  O   LIG    1       21.024 -19.938   4.108  0.00  0.00    -0.245 OA
BRANCH  24  26
ATOM     26  O   LIG    1       21.194 -22.001   4.995  0.00  0.00    -0.477 OA
ATOM     27  H   LIG    1       21.462 -22.317   5.892  0.00  0.00    +0.295 HD
ENDBRANCH  24  26
ENDBRANCH  10  24
TORSDOF 4
ENDMDL
MODEL 3
REMARK VINA RESULT:      -6.4      1.884      3.529
REMARK  Name = *****
REMARK                            x       y       z     vdW  Elec       q    Type
REMARK                         _______ _______ _______ _____ _____    ______ ____
ROOT
ATOM      1  N   LIG    1       25.323 -21.800   6.687  0.00  0.00    -0.344 NA
ATOM      2  C   LIG    1       26.402 -20.882   6.568  0.00  0.00    +0.090 C 
ATOM      3  C   LIG    1       26.445 -20.048   5.429  0.00  0.00    +0.052 C 
ATOM      4  C   LIG    1       27.477 -19.132   5.217  0.00  0.00    +0.054 C 
ATOM      5  C   LIG    1       28.516 -19.046   6.128  0.00  0.00    +0.148 C 
ATOM      6  C   LIG    1       28.565 -19.840   7.284  0.00  0.00    +0.103 C 
ATOM      7  F   LIG    1       29.468 -18.139   5.861  0.00  0.00    -0.203 F 
ATOM      8  C   LIG    1       25.380 -20.116   4.402  0.00  0.00    +0.203 C 
ATOM      9  O   LIG    1       25.370 -19.360   3.433  0.00  0.00    -0.286 OA
ATOM     10  C   LIG    1       24.321 -21.124   4.560  0.00  0.00    +0.122 C 
ATOM     11  C   LIG    1       27.470 -20.729   7.490  0.00  0.00    +0.171 C 
ATOM     12  F   LIG    1       27.491 -21.469   8.613  0.00  0.00    -0.201 F 
ATOM     13  C   LIG    1       24.378 -21.879   5.664  0.00  0.00    +0.105 C 
ENDROOT
BRANCH   6  14
ATOM     14  N   LIG    1       29.641 -19.806   8.215  0.00  0.00    -0.323 NA
ATOM     15  C   LIG    1       29.855 -18.449   8.781  0.00  0.00    +0.123 C 
ATOM     16  C   LIG    1       31.016 -18.441   9.825  0.00  0.00    +0.068 C 
ATOM     17  C   LIG    1       31.346 -17.009  10.248  0.00  0.00    +0.025 C 
ATOM     18  N   LIG    1       32.268 -19.067   9.337  0.00  0.00    -0.310 NA
ATOM     19  H   LIG    1       32.602 -18.535   8.532  0.00  0.00    +0.122 HD
ATOM     20  C   LIG    1       31.961 -20.438   8.885  0.00  0.00    +0.100 C 
ATOM     21  C   LIG    1       30.898 -20.454   7.771  0.00  0.00    +0.120 C 
ENDBRANCH   6  14
BRANCH   1  23
ATOM     22  C   LIG    1       25.626 -24.073   7.653  0.00  0.00    +0.027 C 
ATOM     23  C   LIG    1       25.166 -22.642   7.891  0.00  0.00    +0.118 C 
ENDBRANCH   1  23
BRANCH  10  24
ATOM     24  C   LIG    1       23.223 -21.318   3.587  0.00  0.00    +0.342 C 
ATOM     25  O   LIG    1       22.084 -20.933   3.778  0.00  0.00    -0.245 OA
BRANCH  24  26
ATOM     26  O   LIG    1       23.586 -21.958   2.451  0.00  0.00    -0.477 OA
ATOM     27  H   LIG    1       23.616 -21.378   1.652  0.00  0.00    +0.295 HD
ENDBRANCH  24  26
ENDBRANCH  10  24
TORSDOF 4
ENDMDL
MODEL 4
REMARK VINA RESULT:      -6.2     10.393     12.924
REMARK  Name = *****
REMARK                            x       y       z     vdW  Elec       q    Type
REMARK                         _______ _______ _______ _____ _____    ______ ____
ROOT
ATOM      1  N   LIG    1       25.218 -27.611  13.096  0.00  0.00    -0.344 NA
ATOM      2  C   LIG    1       23.930 -28.165  12.868  0.00  0.00    +0.090 C 
ATOM      3  C   LIG    1       23.807 -29.196  11.909  0.00  0.00    +0.052 C 
ATOM      4  C   LIG    1       22.579 -29.784  11.604  0.00  0.00    +0.054 C 
ATOM      5  C   LIG    1       21.428 -29.336  12.229  0.00  0.00    +0.148 C 
ATOM      6  C   LIG    1       21.449 -28.311  13.188  0.00  0.00    +0.103 C 
ATOM      7  F   LIG    1       20.287 -29.954  11.890  0.00  0.00    -0.203 F 
ATOM      8  C   LIG    1       24.997 -29.696  11.183  0.00  0.00    +0.203 C 
ATOM      9  O   LIG    1       24.920 -30.630  10.387  0.00  0.00    -0.286 OA
ATOM     10  C   LIG    1       26.291 -29.043  11.428  0.00  0.00    +0.122 C 
ATOM     11  C   LIG    1       22.726 -27.767  13.508  0.00  0.00    +0.171 C 
ATOM     12  F   LIG    1       22.760 -26.809  14.451  0.00  0.00    -0.201 F 
ATOM     13  C   LIG    1       26.300 -28.064  12.342  0.00  0.00    +0.105 C 
ENDROOT
BRANCH   6  14
ATOM     14  N   LIG    1       20.278 -27.799  13.815  0.00  0.00    -0.323 NA
ATOM     15  C   LIG    1       19.312 -28.871  14.168  0.00  0.00    +0.123 C 
ATOM     16  C   LIG    1       18.052 -28.292  14.887  0.00  0.00    +0.068 C 
ATOM     17  C   LIG    1       16.992 -29.379  15.067  0.00  0.00    +0.025 C 
ATOM     18  N   LIG    1       17.420 -27.159  14.170  0.00  0.00    -0.310 NA
ATOM     19  H   LIG    1       17.103 -27.491  13.257  0.00  0.00    +0.122 HD
ATOM     20  C   LIG    1       18.440 -26.116  13.950  0.00  0.00    +0.100 C 
ATOM     21  C   LIG    1       19.640 -26.643  13.141  0.00  0.00    +0.120 C 
ENDBRANCH   6  14
BRANCH   1  23
ATOM     22  C   LIG    1       25.551 -25.189  13.563  0.00  0.00    +0.027 C 
ATOM     23  C   LIG    1       25.436 -26.591  14.144  0.00  0.00    +0.118 C 
ENDBRANCH   1  23
BRANCH  10  24
ATOM     24  C   LIG    1       27.545 -29.424  10.740  0.00  0.00    +0.342 C 
ATOM     25  O   LIG    1       28.583 -29.666  11.328  0.00  0.00    -0.245 OA
BRANCH  24  26
ATOM     26  O   LIG    1       27.447 -29.490   9.391  0.00  0.00    -0.477 OA
ATOM     27  H   LIG    1       27.507 -28.614   8.938  0.00  0.00    +0.295 HD
ENDBRANCH  24  26
ENDBRANCH  10  24
TORSDOF 4
ENDMDL
MODEL 5
REMARK VINA RESULT:      -5.7      9.993     11.640
REMARK  Name = *****
REMARK                            x       y       z     vdW  Elec       q    Type
REMARK                         _______ _______ _______ _____ _____    ______ ____
ROOT
ATOM      1  N   LIG    1       24.079 -26.732  13.939  0.00  0.00    -0.344 NA
ATOM      2  C   LIG    1       24.878 -27.402  12.974  0.00  0.00    +0.090 C 
ATOM      3  C   LIG    1       26.142 -26.855  12.659  0.00  0.00    +0.052 C 
ATOM      4  C   LIG    1       26.986 -27.433  11.708  0.00  0.00    +0.054 C 
ATOM      5  C   LIG    1       26.575 -28.562  11.022  0.00  0.00    +0.148 C 
ATOM      6  C   LIG    1       25.333 -29.172  11.259  0.00  0.00    +0.103 C 
ATOM      7  F   LIG    1       27.442 -29.064  10.129  0.00  0.00    -0.203 F 
ATOM      8  C   LIG    1       26.624 -25.629  13.336  0.00  0.00    +0.203 C 
ATOM      9  O   LIG    1       27.744 -25.170  13.117  0.00  0.00    -0.286 OA
ATOM     10  C   LIG    1       25.726 -24.956  14.286  0.00  0.00    +0.122 C 
ATOM     11  C   LIG    1       24.519 -28.582  12.269  0.00  0.00    +0.171 C 
ATOM     12  F   LIG    1       23.343 -29.179  12.528  0.00  0.00    -0.201 F 
ATOM     13  C   LIG    1       24.542 -25.543  14.503  0.00  0.00    +0.105 C 
ENDROOT
BRANCH   6  14
ATOM     14  N   LIG    1       24.865 -30.306  10.538  0.00  0.00    -0.323 NA
ATOM     15  C   LIG    1       25.785 -31.466  10.650  0.00  0.00    +0.123 C 
ATOM     16  C   LIG    1       25.236 -32.710   9.882  0.00  0.00    +0.068 C 
ATOM     17  C   LIG    1       26.282 -33.824   9.848  0.00  0.00    +0.025 C 
ATOM     18  N   LIG    1       24.835 -32.424   8.484  0.00  0.00    -0.310 NA
ATOM     19  H   LIG    1       25.661 -32.110   7.970  0.00  0.00    +0.122 HD
ATOM     20  C   LIG    1       23.855 -31.321   8.493  0.00  0.00    +0.100 C 
ATOM     21  C   LIG    1       24.424 -30.047   9.146  0.00  0.00    +0.120 C 
ENDBRANCH   6  14
BRANCH   1  23
ATOM     22  C   LIG    1       21.608 -26.663  13.650  0.00  0.00    +0.027 C 
ATOM     23  C   LIG    1       22.785 -27.293  14.381  0.00  0.00    +0.118 C 
ENDBRANCH   1  23
BRANCH  10  24
ATOM     24  C   LIG    1       26.074 -23.707  14.998  0.00  0.00    +0.342 C 
ATOM     25  O   LIG    1       25.246 -22.892  15.361  0.00  0.00    -0.245 OA
BRANCH  24  26
ATOM     26  O   LIG    1       27.398 -23.541  15.226  0.00  0.00    -0.477 OA
ATOM     27  H   LIG    1       27.940 -23.444  14.406  0.00  0.00    +0.295 HD
ENDBRANCH  24  26
ENDBRANCH  10  24
TORSDOF 4
ENDMDL
MODEL 6
REMARK VINA RESULT:      -5.5      3.552      7.124
REMARK  Name = *****
REMARK                            x       y       z     vdW  Elec       q    Type
REMARK                         _______ _______ _______ _____ _____    ______ ____
ROOT
ATOM      1  N   LIG    1       29.058 -19.734   6.188  0.00  0.00    -0.344 NA
ATOM      2  C   LIG    1       27.865 -20.410   6.562  0.00  0.00    +0.090 C 
ATOM      3  C   LIG    1       27.902 -21.249   7.698  0.00  0.00    +0.052 C 
ATOM      4  C   LIG    1       26.785 -21.968   8.126  0.00  0.00    +0.054 C 
ATOM      5  C   LIG    1       25.602 -21.891   7.411  0.00  0.00    +0.148 C 
ATOM      6  C   LIG    1       25.472 -21.091   6.265  0.00  0.00    +0.103 C 
ATOM      7  F   LIG    1       24.571 -22.604   7.888  0.00  0.00    -0.203 F 
ATOM      8  C   LIG    1       29.147 -21.399   8.485  0.00  0.00    +0.203 C 
ATOM      9  O   LIG    1       29.184 -22.081   9.508  0.00  0.00    -0.286 OA
ATOM     10  C   LIG    1       30.359 -20.715   8.013  0.00  0.00    +0.122 C 
ATOM     11  C   LIG    1       26.619 -20.335   5.885  0.00  0.00    +0.171 C 
ATOM     12  F   LIG    1       26.493 -19.539   4.808  0.00  0.00    -0.201 F 
ATOM     13  C   LIG    1       30.226 -19.957   6.917  0.00  0.00    +0.105 C 
ENDROOT
BRANCH   6  14
ATOM     14  N   LIG    1       24.283 -21.026   5.484  0.00  0.00    -0.323 NA
ATOM     15  C   LIG    1       23.872 -19.628   5.198  0.00  0.00    +0.123 C 
ATOM     16  C   LIG    1       22.587 -19.579   4.311  0.00  0.00    +0.068 C 
ATOM     17  C   LIG    1       22.073 -18.144   4.191  0.00  0.00    +0.025 C 
ATOM     18  N   LIG    1       21.474 -20.417   4.819  0.00  0.00    -0.310 NA
ATOM     19  H   LIG    1       21.202 -20.066   5.739  0.00  0.00    +0.122 HD
ATOM     20  C   LIG    1       21.964 -21.799   4.981  0.00  0.00    +0.100 C 
ATOM     21  C   LIG    1       23.162 -21.878   5.947  0.00  0.00    +0.120 C 
ENDBRANCH   6  14
BRANCH   1  23
ATOM     22  C   LIG    1       28.877 -17.340   5.534  0.00  0.00    +0.027 C 
ATOM     23  C   LIG    1       29.072 -18.774   5.064  0.00  0.00    +0.118 C 
ENDBRANCH   1  23
BRANCH  10  24
ATOM     24  C   LIG    1       31.672 -20.814   8.688  0.00  0.00    +0.342 C 
ATOM     25  O   LIG    1       32.258 -19.854   9.155  0.00  0.00    -0.245 OA
BRANCH  24  26
ATOM     26  O   LIG    1       32.176 -22.069   8.756  0.00  0.00    -0.477 OA
ATOM     27  H   LIG    1       31.613 -22.754   8.320  0.00  0.00    +0.295 HD
ENDBRANCH  24  26
ENDBRANCH  10  24
TORSDOF 4
ENDMDL
MODEL 7
REMARK VINA RESULT:      -5.5     10.414     12.965
REMARK  Name = *****
REMARK                            x       y       z     vdW  Elec       q    Type
REMARK                         _______ _______ _______ _____ _____    ______ ____
ROOT
ATOM      1  N   LIG    1       25.686 -28.408  12.011  0.00  0.00    -0.344 NA
ATOM      2  C   LIG    1       24.296 -28.549  12.272  0.00  0.00    +0.090 C 
ATOM      3  C   LIG    1       23.674 -27.591  13.104  0.00  0.00    +0.052 C 
ATOM      4  C   LIG    1       22.319 -27.661  13.432  0.00  0.00    +0.054 C 
ATOM      5  C   LIG    1       21.551 -28.711  12.961  0.00  0.00    +0.148 C 
ATOM      6  C   LIG    1       22.083 -29.715  12.136  0.00  0.00    +0.103 C 
ATOM      7  F   LIG    1       20.256 -28.707  13.312  0.00  0.00    -0.203 F 
ATOM      8  C   LIG    1       24.450 -26.462  13.666  0.00  0.00    +0.203 C 
ATOM      9  O   LIG    1       23.914 -25.587  14.346  0.00  0.00    -0.286 OA
ATOM     10  C   LIG    1       25.894 -26.405  13.400  0.00  0.00    +0.122 C 
ATOM     11  C   LIG    1       23.457 -29.585  11.784  0.00  0.00    +0.171 C 
ATOM     12  F   LIG    1       23.966 -30.523  10.966  0.00  0.00    -0.201 F 
ATOM     13  C   LIG    1       26.393 -27.369  12.615  0.00  0.00    +0.105 C 
ENDROOT
BRANCH   6  14
ATOM     14  N   LIG    1       21.330 -30.831  11.672  0.00  0.00    -0.323 NA
ATOM     15  C   LIG    1       20.146 -30.421  10.874  0.00  0.00    +0.123 C 
ATOM     16  C   LIG    1       19.355 -31.659  10.345  0.00  0.00    +0.068 C 
ATOM     17  C   LIG    1       18.044 -31.219   9.695  0.00  0.00    +0.025 C 
ATOM     18  N   LIG    1       19.027 -32.655  11.394  0.00  0.00    -0.310 NA
ATOM     19  H   LIG    1       18.428 -32.205  12.088  0.00  0.00    +0.122 HD
ATOM     20  C   LIG    1       20.278 -33.061  12.062  0.00  0.00    +0.100 C 
ATOM     21  C   LIG    1       21.014 -31.862  12.690  0.00  0.00    +0.120 C 
ENDBRANCH   6  14
BRANCH   1  23
ATOM     22  C   LIG    1       26.648 -28.672   9.731  0.00  0.00    +0.027 C 
ATOM     23  C   LIG    1       26.385 -29.321  11.082  0.00  0.00    +0.118 C 
ENDBRANCH   1  23
BRANCH  10  24
ATOM     24  C   LIG    1       26.785 -25.351  13.934  0.00  0.00    +0.342 C 
ATOM     25  O   LIG    1       27.663 -24.822  13.277  0.00  0.00    -0.245 OA
BRANCH  24  26
ATOM     26  O   LIG    1       26.543 -25.010  15.221  0.00  0.00    -0.477 OA
ATOM     27  H   LIG    1       26.518 -24.035  15.383  0.00  0.00    +0.295 HD
ENDBRANCH  24  26
ENDBRANCH  10  24
TORSDOF 4
ENDMDL
MODEL 8
REMARK VINA RESULT:      -5.4     10.497     11.838
REMARK  Name = *****
REMARK                            x       y       z     vdW  Elec       q    Type
REMARK                         _______ _______ _______ _____ _____    ______ ____
ROOT
ATOM      1  N   LIG    1       25.155 -30.331   5.712  0.00  0.00    -0.344 NA
ATOM      2  C   LIG    1       25.291 -30.735   7.067  0.00  0.00    +0.090 C 
ATOM      3  C   LIG    1       25.951 -31.956   7.336  0.00  0.00    +0.052 C 
ATOM      4  C   LIG    1       26.112 -32.443   8.634  0.00  0.00    +0.054 C 
ATOM      5  C   LIG    1       25.590 -31.736   9.703  0.00  0.00    +0.148 C 
ATOM      6  C   LIG    1       24.911 -30.519   9.535  0.00  0.00    +0.103 C 
ATOM      7  F   LIG    1       25.791 -32.263  10.920  0.00  0.00    -0.203 F 
ATOM      8  C   LIG    1       26.503 -32.774   6.232  0.00  0.00    +0.203 C 
ATOM      9  O   LIG    1       27.130 -33.810   6.449  0.00  0.00    -0.286 OA
ATOM     10  C   LIG    1       26.281 -32.324   4.850  0.00  0.00    +0.122 C 
ATOM     11  C   LIG    1       24.806 -30.030   8.200  0.00  0.00    +0.171 C 
ATOM     12  F   LIG    1       24.188 -28.847   8.033  0.00  0.00    -0.201 F 
ATOM     13  C   LIG    1       25.629 -31.164   4.700  0.00  0.00    +0.105 C 
ENDROOT
BRANCH   6  14
ATOM     14  N   LIG    1       24.324 -29.792  10.609  0.00  0.00    -0.323 NA
ATOM     15  C   LIG    1       25.343 -29.179  11.499  0.00  0.00    +0.123 C 
ATOM     16  C   LIG    1       24.679 -28.358  12.649  0.00  0.00    +0.068 C 
ATOM     17  C   LIG    1       25.733 -27.900  13.658  0.00  0.00    +0.025 C 
ATOM     18  N   LIG    1       23.635 -29.102  13.393  0.00  0.00    -0.310 NA
ATOM     19  H   LIG    1       24.070 -29.914  13.835  0.00  0.00    +0.122 HD
ATOM     20  C   LIG    1       22.629 -29.587  12.430  0.00  0.00    +0.100 C 
ATOM     21  C   LIG    1       23.252 -30.496  11.353  0.00  0.00    +0.120 C 
ENDBRANCH   6  14
BRANCH   1  23
ATOM     22  C   LIG    1       25.603 -27.937   5.198  0.00  0.00    +0.027 C 
ATOM     23  C   LIG    1       24.553 -29.027   5.361  0.00  0.00    +0.118 C 
ENDBRANCH   1  23
BRANCH  10  24
ATOM     24  C   LIG    1       26.749 -33.070   3.661  0.00  0.00    +0.342 C 
ATOM     25  O   LIG    1       26.162 -33.063   2.594  0.00  0.00    -0.245 OA
BRANCH  24  26
ATOM     26  O   LIG    1       27.897 -33.762   3.847  0.00  0.00    -0.477 OA
ATOM     27  H   LIG    1       27.888 -34.354   4.639  0.00  0.00    +0.295 HD
ENDBRANCH  24  26
ENDBRANCH  10  24
TORSDOF 4
ENDMDL
MODEL 9
REMARK VINA RESULT:      -5.4     10.155     11.395
REMARK  Name = *****
REMARK                            x       y       z     vdW  Elec       q    Type
REMARK                         _______ _______ _______ _____ _____    ______ ____
ROOT
ATOM      1  N   LIG    1       22.997 -31.042  10.300  0.00  0.00    -0.344 NA
ATOM      2  C   LIG    1       24.060 -30.146  10.594  0.00  0.00    +0.090 C 
ATOM      3  C   LIG    1       25.043 -29.930   9.603  0.00  0.00    +0.052 C 
ATOM      4  C   LIG    1       26.135 -29.084   9.811  0.00  0.00    +0.054 C 
ATOM      5  C   LIG    1       26.290 -28.451  11.032  0.00  0.00    +0.148 C 
ATOM      6  C   LIG    1       25.370 -28.611  12.080  0.00  0.00    +0.103 C 
ATOM      7  F   LIG    1       27.358 -27.649  11.154  0.00  0.00    -0.203 F 
ATOM      8  C   LIG    1       24.950 -30.604   8.288  0.00  0.00    +0.203 C 
ATOM      9  O   LIG    1       25.765 -30.386   7.393  0.00  0.00    -0.286 OA
ATOM     10  C   LIG    1       23.854 -31.559   8.068  0.00  0.00    +0.122 C 
ATOM     11  C   LIG    1       24.245 -29.444  11.815  0.00  0.00    +0.171 C 
ATOM     12  F   LIG    1       23.341 -29.576  12.802  0.00  0.00    -0.201 F 
ATOM     13  C   LIG    1       22.984 -31.707   9.075  0.00  0.00    +0.105 C 
ENDROOT
BRANCH   6  14
ATOM     14  N   LIG    1       25.527 -28.009  13.360  0.00  0.00    -0.323 NA
ATOM     15  C   LIG    1       25.278 -26.545  13.330  0.00  0.00    +0.123 C 
ATOM     16  C   LIG    1       25.419 -25.911  14.751  0.00  0.00    +0.068 C 
ATOM     17  C   LIG    1       25.350 -24.386  14.665  0.00  0.00    +0.025 C 
ATOM     18  N   LIG    1       26.680 -26.268  15.445  0.00  0.00    -0.310 NA
ATOM     19  H   LIG    1       27.463 -25.915  14.893  0.00  0.00    +0.122 HD
ATOM     20  C   LIG    1       26.784 -27.739  15.500  0.00  0.00    +0.100 C 
ATOM     21  C   LIG    1       26.761 -28.373  14.096  0.00  0.00    +0.120 C 
ENDBRANCH   6  14
BRANCH   1  23
ATOM     22  C   LIG    1       20.550 -30.800  10.686  0.00  0.00    +0.027 C 
ATOM     23  C   LIG    1       21.887 -31.250  11.255  0.00  0.00    +0.118 C 
ENDBRANCH   1  23
BRANCH  10  24
ATOM     24  C   LIG    1       23.672 -32.323   6.815  0.00  0.00    +0.342 C 
ATOM     25  O   LIG    1       23.843 -33.526   6.733  0.00  0.00    -0.245 OA
BRANCH  24  26
ATOM     26  O   LIG    1       23.288 -31.577   5.752  0.00  0.00    -0.477 OA
ATOM     27  H   LIG    1       23.965 -31.515   5.035  0.00  0.00    +0.295 HD
ENDBRANCH  24  26
ENDBRANCH  10  24
TORSDOF 4
ENDMDL
