MODEL 1
REMARK VINA RESULT:      -6.7      0.000      0.000
REMARK  Name = *****
REMARK                            x       y       z     vdW  Elec       q    Type
REMARK                         _______ _______ _______ _____ _____    ______ ____
ROOT
ATOM      1  O   LIG    1       25.002 -28.548   7.914  0.00  0.00    -0.340 OA
ENDROOT
BRANCH   1   5
ATOM      2  C   LIG    1       25.066 -25.331   6.777  0.00  0.00    +0.283 C 
ATOM      3  C   LIG    1       24.308 -26.036   5.619  0.00  0.00    +0.201 C 
ATOM      4  C   LIG    1       24.227 -27.554   5.775  0.00  0.00    +0.180 C 
ATOM      5  C   LIG    1       25.387 -28.165   6.555  0.00  0.00    +0.192 C 
ATOM      6  C   LIG    1       26.584 -27.208   6.606  0.00  0.00    +0.261 C 
ATOM      7  O   LIG    1       26.167 -26.056   7.327  0.00  0.00    -0.332 OA
BRANCH   6   8
ATOM      8  C   LIG    1       27.247 -26.940   5.224  0.00  0.00    +0.337 C 
ATOM      9  O   LIG    1       26.610 -26.692   4.211  0.00  0.00    -0.248 OA
BRANCH   8  10
ATOM     10  O   LIG    1       28.600 -26.977   5.203  0.00  0.00    -0.479 OA
ATOM     11  H   LIG    1       29.055 -27.575   5.824  0.00  0.00    +0.295 HD
ENDBRANCH   8  10
ENDBRANCH   6   8
BRANCH   4  12
ATOM     12  O   LIG    1       24.201 -28.176   4.484  0.00  0.00    -0.386 OA
ATOM     13  H   LIG    1       24.449 -27.507   3.817  0.00  0.00    +0.210 HD
ENDBRANCH   4  12
BRANCH   3  14
ATOM     14  O   LIG    1       22.952 -25.565   5.485  0.00  0.00    -0.384 OA
ATOM     15  H   LIG    1       22.570 -25.919   4.663  0.00  0.00    +0.210 HD
ENDBRANCH   3  14
BRANCH   2  16
ATOM     16  O   LIG    1       25.606 -24.064   6.449  0.00  0.00    -0.341 OA
BRANCH  16  18
ATOM     17  C   LIG    1       26.487 -21.781   7.063  0.00  0.00    +0.160 C 
ATOM     18  C   LIG    1       25.506 -22.947   7.342  0.00  0.00    +0.177 C 
ATOM     19  C   LIG    1       24.077 -22.408   7.073  0.00  0.00    +0.176 C 
ATOM     20  C   LIG    1       23.978 -21.855   5.631  0.00  0.00    +0.178 C 
ATOM     21  O   LIG    1       24.989 -20.861   5.368  0.00  0.00    -0.341 OA
ATOM     22  C   LIG    1       26.311 -21.348   5.587  0.00  0.00    +0.270 C 
BRANCH  17  25
ATOM     23  C   LIG    1       30.085 -21.430   8.292  0.00  0.00    +0.109 C 
ATOM     24  C   LIG    1       28.675 -21.015   7.967  0.00  0.00    +0.210 C 
ATOM     25  N   LIG    1       27.884 -22.025   7.458  0.00  0.00    -0.305 N 
ATOM     26  H   LIG    1       28.368 -22.805   7.052  0.00  0.00    +0.149 HD
ATOM     27  O   LIG    1       28.275 -19.871   8.186  0.00  0.00    -0.276 OA
ENDBRANCH  17  25
BRANCH  22  28
ATOM     28  O   LIG    1       27.192 -20.288   5.267  0.00  0.00    -0.365 OA
ATOM     29  H   LIG    1       26.601 -19.585   4.950  0.00  0.00    +0.212 HD
ENDBRANCH  22  28
BRANCH  19  30
ATOM     30  O   LIG    1       23.112 -23.448   7.269  0.00  0.00    -0.387 OA
ATOM     31  H   LIG    1       22.855 -23.442   8.214  0.00  0.00    +0.210 HD
ENDBRANCH  19  30
BRANCH  20  32
ATOM     32  C   LIG    1       22.618 -21.194   5.366  0.00  0.00    +0.190 C 
BRANCH  32  33
ATOM     33  O   LIG    1       21.566 -22.160   5.383  0.00  0.00    -0.392 OA
ATOM     34  H   LIG    1       20.751 -21.670   5.594  0.00  0.00    +0.209 HD
ENDBRANCH  32  33
ENDBRANCH  20  32
ENDBRANCH  16  18
ENDBRANCH   2  16
ENDBRANCH   1   5
BRANCH   1  35
ATOM     35  C   LIG    1       24.326 -29.820   8.085  0.00  0.00    +0.274 C 
ATOM     36  C   LIG    1       25.327 -30.985   8.315  0.00  0.00    +0.160 C 
ATOM     37  C   LIG    1       25.451 -31.263   9.829  0.00  0.00    +0.177 C 
ATOM     38  C   LIG    1       24.072 -31.722  10.360  0.00  0.00    +0.176 C 
ATOM     39  C   LIG    1       22.891 -30.996   9.660  0.00  0.00    +0.178 C 
ATOM     40  O   LIG    1       23.304 -29.725   9.118  0.00  0.00    -0.341 OA
BRANCH  36  41
ATOM     41  N   LIG    1       24.985 -32.132   7.443  0.00  0.00    -0.305 N 
ATOM     42  H   LIG    1       24.342 -32.834   7.790  0.00  0.00    +0.149 HD
ATOM     43  C   LIG    1       25.452 -32.277   6.159  0.00  0.00    +0.210 C 
ATOM     44  O   LIG    1       26.206 -31.458   5.627  0.00  0.00    -0.276 OA
ATOM     45  C   LIG    1       24.961 -33.501   5.427  0.00  0.00    +0.109 C 
ENDBRANCH  36  41
BRANCH  38  46
ATOM     46  O   LIG    1       23.900 -33.136  10.185  0.00  0.00    -0.387 OA
ATOM     47  H   LIG    1       24.798 -33.480   9.994  0.00  0.00    +0.210 HD
ENDBRANCH  38  46
BRANCH  39  48
ATOM     48  C   LIG    1       21.705 -30.861  10.657  0.00  0.00    +0.190 C 
BRANCH  48  49
ATOM     49  O   LIG    1       22.007 -31.526  11.891  0.00  0.00    -0.392 OA
ATOM     50  H   LIG    1       22.269 -30.857  12.550  0.00  0.00    +0.209 HD
ENDBRANCH  48  49
ENDBRANCH  39  48
BRANCH  37  51
ATOM     51  O   LIG    1       25.845 -30.097  10.624  0.00  0.00    -0.341 OA
BRANCH  51  52
ATOM     52  C   LIG    1       27.066 -30.174  11.365  0.00  0.00    +0.283 C 
ATOM     53  C   LIG    1       27.878 -28.850  11.296  0.00  0.00    +0.201 C 
ATOM     54  C   LIG    1       27.325 -27.824  12.287  0.00  0.00    +0.179 C 
ATOM     55  C   LIG    1       27.369 -28.415  13.700  0.00  0.00    +0.185 C 
ATOM     56  C   LIG    1       26.595 -29.734  13.734  0.00  0.00    +0.260 C 
ATOM     57  O   LIG    1       26.888 -30.670  12.692  0.00  0.00    -0.332 OA
BRANCH  56  58
ATOM     58  C   LIG    1       25.108 -29.349  13.943  0.00  0.00    +0.337 C 
ATOM     59  O   LIG    1       24.700 -28.424  14.589  0.00  0.00    -0.248 OA
BRANCH  58  60
ATOM     60  O   LIG    1       24.282 -30.288  13.396  0.00  0.00    -0.479 OA
ATOM     61  H   LIG    1       23.600 -30.525  14.048  0.00  0.00    +0.295 HD
ENDBRANCH  58  60
ENDBRANCH  56  58
BRANCH  55  62
ATOM     62  O   LIG    1       28.729 -28.636  14.112  0.00  0.00    -0.386 OA
ATOM     63  H   LIG    1       29.240 -28.733  13.283  0.00  0.00    +0.210 HD
ENDBRANCH  55  62
BRANCH  54  64
ATOM     64  O   LIG    1       25.993 -27.440  11.956  0.00  0.00    -0.386 OA
ATOM     65  H   LIG    1       25.463 -28.226  11.736  0.00  0.00    +0.210 HD
ENDBRANCH  54  64
BRANCH  53  66
ATOM     66  O   LIG    1       29.269 -29.122  11.568  0.00  0.00    -0.384 OA
ATOM     67  H   LIG    1       29.730 -28.252  11.625  0.00  0.00    +0.210 HD
ENDBRANCH  53  66
ENDBRANCH  51  52
ENDBRANCH  37  51
ENDBRANCH   1  35
TORSDOF 24
ENDMDL
MODEL 2
REMARK VINA RESULT:      -6.3      0.760      1.631
REMARK  Name = *****
REMARK                            x       y       z     vdW  Elec       q    Type
REMARK                         _______ _______ _______ _____ _____    ______ ____
ROOT
ATOM      1  O   LIG    1       24.914 -28.624   7.935  0.00  0.00    -0.340 OA
ENDROOT
BRANCH   1   5
ATOM      2  C   LIG    1       25.017 -25.407   6.802  0.00  0.00    +0.283 C 
ATOM      3  C   LIG    1       24.317 -26.115   5.610  0.00  0.00    +0.201 C 
ATOM      4  C   LIG    1       24.235 -27.634   5.762  0.00  0.00    +0.180 C 
ATOM      5  C   LIG    1       25.359 -28.240   6.596  0.00  0.00    +0.192 C 
ATOM      6  C   LIG    1       26.549 -27.278   6.702  0.00  0.00    +0.261 C 
ATOM      7  O   LIG    1       26.095 -26.128   7.402  0.00  0.00    -0.332 OA
BRANCH   6   8
ATOM      8  C   LIG    1       27.274 -27.008   5.352  0.00  0.00    +0.337 C 
ATOM      9  O   LIG    1       26.689 -26.913   4.283  0.00  0.00    -0.248 OA
BRANCH   8  10
ATOM     10  O   LIG    1       28.617 -26.858   5.425  0.00  0.00    -0.479 OA
ATOM     11  H   LIG    1       29.097 -27.330   6.130  0.00  0.00    +0.295 HD
ENDBRANCH   8  10
ENDBRANCH   6   8
BRANCH   4  12
ATOM     12  O   LIG    1       24.271 -28.256   4.472  0.00  0.00    -0.386 OA
ATOM     13  H   LIG    1       23.351 -28.378   4.166  0.00  0.00    +0.210 HD
ENDBRANCH   4  12
BRANCH   3  14
ATOM     14  O   LIG    1       22.966 -25.650   5.413  0.00  0.00    -0.384 OA
ATOM     15  H   LIG    1       22.988 -24.743   5.063  0.00  0.00    +0.210 HD
ENDBRANCH   3  14
BRANCH   2  16
ATOM     16  O   LIG    1       25.567 -24.138   6.499  0.00  0.00    -0.341 OA
BRANCH  16  18
ATOM     17  C   LIG    1       26.439 -21.864   7.156  0.00  0.00    +0.160 C 
ATOM     18  C   LIG    1       25.450 -23.030   7.401  0.00  0.00    +0.177 C 
ATOM     19  C   LIG    1       24.028 -22.484   7.105  0.00  0.00    +0.176 C 
ATOM     20  C   LIG    1       23.964 -21.917   5.666  0.00  0.00    +0.178 C 
ATOM     21  O   LIG    1       24.983 -20.922   5.437  0.00  0.00    -0.341 OA
ATOM     22  C   LIG    1       26.298 -21.415   5.681  0.00  0.00    +0.270 C 
BRANCH  17  25
ATOM     23  C   LIG    1       30.026 -21.526   8.421  0.00  0.00    +0.109 C 
ATOM     24  C   LIG    1       28.628 -21.100   8.059  0.00  0.00    +0.210 C 
ATOM     25  N   LIG    1       27.827 -22.115   7.580  0.00  0.00    -0.305 N 
ATOM     26  H   LIG    1       28.301 -22.920   7.214  0.00  0.00    +0.149 HD
ATOM     27  O   LIG    1       28.246 -19.941   8.226  0.00  0.00    -0.276 OA
ENDBRANCH  17  25
BRANCH  22  28
ATOM     28  O   LIG    1       27.189 -20.355   5.392  0.00  0.00    -0.365 OA
ATOM     29  H   LIG    1       26.887 -20.029   4.528  0.00  0.00    +0.212 HD
ENDBRANCH  22  28
BRANCH  19  30
ATOM     30  O   LIG    1       23.057 -23.524   7.267  0.00  0.00    -0.387 OA
ATOM     31  H   LIG    1       23.224 -24.198   6.576  0.00  0.00    +0.210 HD
ENDBRANCH  19  30
BRANCH  20  32
ATOM     32  C   LIG    1       22.611 -21.249   5.377  0.00  0.00    +0.190 C 
BRANCH  32  33
ATOM     33  O   LIG    1       21.551 -22.205   5.409  0.00  0.00    -0.392 OA
ATOM     34  H   LIG    1       21.104 -22.143   4.545  0.00  0.00    +0.209 HD
ENDBRANCH  32  33
ENDBRANCH  20  32
ENDBRANCH  16  18
ENDBRANCH   2  16
ENDBRANCH   1   5
BRANCH   1  35
ATOM     35  C   LIG    1       24.273 -29.917   8.083  0.00  0.00    +0.274 C 
ATOM     36  C   LIG    1       25.296 -31.043   8.397  0.00  0.00    +0.160 C 
ATOM     37  C   LIG    1       25.329 -31.294   9.921  0.00  0.00    +0.177 C 
ATOM     38  C   LIG    1       23.936 -31.795  10.367  0.00  0.00    +0.176 C 
ATOM     39  C   LIG    1       22.779 -31.122   9.579  0.00  0.00    +0.178 C 
ATOM     40  O   LIG    1       23.182 -29.844   9.044  0.00  0.00    -0.341 OA
BRANCH  36  41
ATOM     41  N   LIG    1       25.054 -32.212   7.523  0.00  0.00    -0.305 N 
ATOM     42  H   LIG    1       24.447 -32.953   7.857  0.00  0.00    +0.149 HD
ATOM     43  C   LIG    1       25.565 -32.334   6.255  0.00  0.00    +0.210 C 
ATOM     44  O   LIG    1       26.281 -31.471   5.739  0.00  0.00    -0.276 OA
ATOM     45  C   LIG    1       25.175 -33.591   5.517  0.00  0.00    +0.109 C 
ENDBRANCH  36  41
BRANCH  38  46
ATOM     46  O   LIG    1       23.825 -33.216  10.205  0.00  0.00    -0.387 OA
ATOM     47  H   LIG    1       22.869 -33.410  10.307  0.00  0.00    +0.210 HD
ENDBRANCH  38  46
BRANCH  39  48
ATOM     48  C   LIG    1       21.525 -31.016  10.494  0.00  0.00    +0.190 C 
BRANCH  48  49
ATOM     49  O   LIG    1       21.783 -31.611  11.772  0.00  0.00    -0.392 OA
ATOM     50  H   LIG    1       22.653 -31.308  12.089  0.00  0.00    +0.209 HD
ENDBRANCH  48  49
ENDBRANCH  39  48
BRANCH  37  51
ATOM     51  O   LIG    1       25.628 -30.103  10.721  0.00  0.00    -0.341 OA
BRANCH  51  52
ATOM     52  C   LIG    1       25.079 -30.028  12.040  0.00  0.00    +0.283 C 
ATOM     53  C   LIG    1       25.918 -30.836  13.070  0.00  0.00    +0.201 C 
ATOM     54  C   LIG    1       27.142 -30.035  13.519  0.00  0.00    +0.179 C 
ATOM     55  C   LIG    1       26.678 -28.703  14.119  0.00  0.00    +0.185 C 
ATOM     56  C   LIG    1       25.826 -27.944  13.100  0.00  0.00    +0.260 C 
ATOM     57  O   LIG    1       24.792 -28.692  12.454  0.00  0.00    -0.332 OA
BRANCH  56  58
ATOM     58  C   LIG    1       26.826 -27.184  12.191  0.00  0.00    +0.337 C 
ATOM     59  O   LIG    1       27.061 -27.425  11.040  0.00  0.00    -0.248 OA
BRANCH  58  60
ATOM     60  O   LIG    1       27.528 -26.260  12.910  0.00  0.00    -0.479 OA
ATOM     61  H   LIG    1       26.907 -25.602  13.268  0.00  0.00    +0.295 HD
ENDBRANCH  58  60
ENDBRANCH  56  58
BRANCH  55  62
ATOM     62  O   LIG    1       25.920 -28.928  15.320  0.00  0.00    -0.386 OA
ATOM     63  H   LIG    1       26.454 -28.541  16.043  0.00  0.00    +0.210 HD
ENDBRANCH  55  62
BRANCH  54  64
ATOM     64  O   LIG    1       28.040 -29.800  12.438  0.00  0.00    -0.386 OA
ATOM     65  H   LIG    1       28.562 -28.994  12.605  0.00  0.00    +0.210 HD
ENDBRANCH  54  64
BRANCH  53  66
ATOM     66  O   LIG    1       25.092 -31.178  14.203  0.00  0.00    -0.384 OA
ATOM     67  H   LIG    1       25.688 -31.537  14.901  0.00  0.00    +0.210 HD
ENDBRANCH  53  66
ENDBRANCH  51  52
ENDBRANCH  37  51
ENDBRANCH   1  35
TORSDOF 24
ENDMDL
MODEL 3
REMARK VINA RESULT:      -5.6      1.523      3.810
REMARK  Name = *****
REMARK                            x       y       z     vdW  Elec       q    Type
REMARK                         _______ _______ _______ _____ _____    ______ ____
ROOT
ATOM      1  O   LIG    1       25.222 -28.259   8.197  0.00  0.00    -0.340 OA
ENDROOT
BRANCH   1   5
ATOM      2  C   LIG    1       25.154 -25.070   6.985  0.00  0.00    +0.283 C 
ATOM      3  C   LIG    1       24.194 -25.782   5.992  0.00  0.00    +0.201 C 
ATOM      4  C   LIG    1       24.111 -27.294   6.199  0.00  0.00    +0.180 C 
ATOM      5  C   LIG    1       25.375 -27.916   6.784  0.00  0.00    +0.192 C 
ATOM      6  C   LIG    1       26.582 -26.987   6.604  0.00  0.00    +0.261 C 
ATOM      7  O   LIG    1       26.319 -25.809   7.355  0.00  0.00    -0.332 OA
BRANCH   6   8
ATOM      8  C   LIG    1       27.002 -26.765   5.122  0.00  0.00    +0.337 C 
ATOM      9  O   LIG    1       26.253 -26.303   4.274  0.00  0.00    -0.248 OA
BRANCH   8  10
ATOM     10  O   LIG    1       28.277 -27.100   4.815  0.00  0.00    -0.479 OA
ATOM     11  H   LIG    1       28.465 -27.427   3.916  0.00  0.00    +0.295 HD
ENDBRANCH   8  10
ENDBRANCH   6   8
BRANCH   4  12
ATOM     12  O   LIG    1       23.850 -27.943   4.948  0.00  0.00    -0.386 OA
ATOM     13  H   LIG    1       23.541 -27.269   4.312  0.00  0.00    +0.210 HD
ENDBRANCH   4  12
BRANCH   3  14
ATOM     14  O   LIG    1       22.845 -25.281   6.081  0.00  0.00    -0.384 OA
ATOM     15  H   LIG    1       22.561 -25.290   7.011  0.00  0.00    +0.210 HD
ENDBRANCH   3  14
BRANCH   2  16
ATOM     16  O   LIG    1       25.655 -23.824   6.536  0.00  0.00    -0.341 OA
BRANCH  16  18
ATOM     17  C   LIG    1       26.686 -21.575   7.031  0.00  0.00    +0.160 C 
ATOM     18  C   LIG    1       25.631 -22.658   7.369  0.00  0.00    +0.177 C 
ATOM     19  C   LIG    1       24.240 -22.039   7.069  0.00  0.00    +0.176 C 
ATOM     20  C   LIG    1       24.176 -21.559   5.599  0.00  0.00    +0.178 C 
ATOM     21  O   LIG    1       25.251 -20.649   5.286  0.00  0.00    -0.341 OA
ATOM     22  C   LIG    1       26.537 -21.210   5.534  0.00  0.00    +0.270 C 
BRANCH  17  25
ATOM     23  C   LIG    1       30.284 -21.409   8.299  0.00  0.00    +0.109 C 
ATOM     24  C   LIG    1       28.901 -20.922   7.958  0.00  0.00    +0.210 C 
ATOM     25  N   LIG    1       28.065 -21.890   7.441  0.00  0.00    -0.305 N 
ATOM     26  H   LIG    1       28.512 -22.695   7.041  0.00  0.00    +0.149 HD
ATOM     27  O   LIG    1       28.558 -19.759   8.171  0.00  0.00    -0.276 OA
ENDBRANCH  17  25
BRANCH  22  28
ATOM     28  O   LIG    1       27.487 -20.230   5.160  0.00  0.00    -0.365 OA
ATOM     29  H   LIG    1       27.984 -20.066   5.979  0.00  0.00    +0.212 HD
ENDBRANCH  22  28
BRANCH  19  30
ATOM     30  O   LIG    1       23.209 -23.002   7.317  0.00  0.00    -0.387 OA
ATOM     31  H   LIG    1       22.808 -22.792   8.186  0.00  0.00    +0.210 HD
ENDBRANCH  19  30
BRANCH  20  32
ATOM     32  C   LIG    1       22.862 -20.823   5.297  0.00  0.00    +0.190 C 
BRANCH  32  33
ATOM     33  O   LIG    1       21.812 -21.748   5.012  0.00  0.00    -0.392 OA
ATOM     34  H   LIG    1       21.110 -21.570   5.665  0.00  0.00    +0.209 HD
ENDBRANCH  32  33
ENDBRANCH  20  32
ENDBRANCH  16  18
ENDBRANCH   2  16
ENDBRANCH   1   5
BRANCH   1  35
ATOM     35  C   LIG    1       25.950 -29.414   8.688  0.00  0.00    +0.274 C 
ATOM     36  C   LIG    1       25.979 -29.468  10.240  0.00  0.00    +0.160 C 
ATOM     37  C   LIG    1       24.866 -30.415  10.741  0.00  0.00    +0.177 C 
ATOM     38  C   LIG    1       25.160 -31.841  10.221  0.00  0.00    +0.176 C 
ATOM     39  C   LIG    1       25.785 -31.840   8.798  0.00  0.00    +0.178 C 
ATOM     40  O   LIG    1       25.447 -30.637   8.078  0.00  0.00    -0.341 OA
BRANCH  36  41
ATOM     41  N   LIG    1       27.356 -29.732  10.716  0.00  0.00    -0.305 N 
ATOM     42  H   LIG    1       27.933 -30.388  10.202  0.00  0.00    +0.149 HD
ATOM     43  C   LIG    1       27.923 -29.097  11.794  0.00  0.00    +0.210 C 
ATOM     44  O   LIG    1       27.322 -28.252  12.462  0.00  0.00    -0.276 OA
ATOM     45  C   LIG    1       29.349 -29.486  12.098  0.00  0.00    +0.109 C 
ENDBRANCH  36  41
BRANCH  38  46
ATOM     46  O   LIG    1       26.052 -32.536  11.104  0.00  0.00    -0.387 OA
ATOM     47  H   LIG    1       25.745 -32.307  12.007  0.00  0.00    +0.210 HD
ENDBRANCH  38  46
BRANCH  39  48
ATOM     48  C   LIG    1       25.349 -33.128   8.043  0.00  0.00    +0.190 C 
BRANCH  48  49
ATOM     49  O   LIG    1       24.335 -33.825   8.779  0.00  0.00    -0.392 OA
ATOM     50  H   LIG    1       24.452 -34.783   8.644  0.00  0.00    +0.209 HD
ENDBRANCH  48  49
ENDBRANCH  39  48
BRANCH  37  51
ATOM     51  O   LIG    1       23.522 -30.062  10.275  0.00  0.00    -0.341 OA
BRANCH  51  52
ATOM     52  C   LIG    1       22.527 -31.090  10.262  0.00  0.00    +0.283 C 
ATOM     53  C   LIG    1       22.816 -32.198  11.314  0.00  0.00    +0.201 C 
ATOM     54  C   LIG    1       22.361 -31.755  12.705  0.00  0.00    +0.179 C 
ATOM     55  C   LIG    1       20.865 -31.422  12.663  0.00  0.00    +0.185 C 
ATOM     56  C   LIG    1       20.601 -30.357  11.597  0.00  0.00    +0.260 C 
ATOM     57  O   LIG    1       21.194 -30.582  10.314  0.00  0.00    -0.332 OA
BRANCH  56  58
ATOM     58  C   LIG    1       20.884 -28.994  12.279  0.00  0.00    +0.337 C 
ATOM     59  O   LIG    1       21.915 -28.382  12.239  0.00  0.00    -0.248 OA
BRANCH  58  60
ATOM     60  O   LIG    1       19.832 -28.617  13.064  0.00  0.00    -0.479 OA
ATOM     61  H   LIG    1       20.127 -27.916  13.670  0.00  0.00    +0.295 HD
ENDBRANCH  58  60
ENDBRANCH  56  58
BRANCH  55  62
ATOM     62  O   LIG    1       20.094 -32.602  12.376  0.00  0.00    -0.386 OA
ATOM     63  H   LIG    1       20.315 -33.237  13.087  0.00  0.00    +0.210 HD
ENDBRANCH  55  62
BRANCH  54  64
ATOM     64  O   LIG    1       23.102 -30.628  13.166  0.00  0.00    -0.386 OA
ATOM     65  H   LIG    1       24.055 -30.776  13.031  0.00  0.00    +0.210 HD
ENDBRANCH  54  64
BRANCH  53  66
ATOM     66  O   LIG    1       22.150 -33.417  10.925  0.00  0.00    -0.384 OA
ATOM     67  H   LIG    1       22.690 -33.831  10.212  0.00  0.00    +0.210 HD
ENDBRANCH  53  66
ENDBRANCH  51  52
ENDBRANCH  37  51
ENDBRANCH   1  35
TORSDOF 24
ENDMDL
MODEL 4
REMARK VINA RESULT:      -5.5      1.472      4.002
REMARK  Name = *****
REMARK                            x       y       z     vdW  Elec       q    Type
REMARK                         _______ _______ _______ _____ _____    ______ ____
ROOT
ATOM      1  O   LIG    1       25.094 -28.308   8.183  0.00  0.00    -0.340 OA
ENDROOT
BRANCH   1   5
ATOM      2  C   LIG    1       25.113 -25.118   6.972  0.00  0.00    +0.283 C 
ATOM      3  C   LIG    1       24.209 -25.824   5.924  0.00  0.00    +0.201 C 
ATOM      4  C   LIG    1       24.106 -27.335   6.124  0.00  0.00    +0.180 C 
ATOM      5  C   LIG    1       25.331 -27.965   6.781  0.00  0.00    +0.192 C 
ATOM      6  C   LIG    1       26.551 -27.041   6.672  0.00  0.00    +0.261 C 
ATOM      7  O   LIG    1       26.250 -25.864   7.409  0.00  0.00    -0.332 OA
BRANCH   6   8
ATOM      8  C   LIG    1       27.058 -26.821   5.218  0.00  0.00    +0.337 C 
ATOM      9  O   LIG    1       26.344 -26.418   4.312  0.00  0.00    -0.248 OA
BRANCH   8  10
ATOM     10  O   LIG    1       28.368 -27.085   5.005  0.00  0.00    -0.479 OA
ATOM     11  H   LIG    1       28.833 -27.658   5.642  0.00  0.00    +0.295 HD
ENDBRANCH   8  10
ENDBRANCH   6   8
BRANCH   4  12
ATOM     12  O   LIG    1       23.916 -27.982   4.859  0.00  0.00    -0.386 OA
ATOM     13  H   LIG    1       22.969 -27.922   4.625  0.00  0.00    +0.210 HD
ENDBRANCH   4  12
BRANCH   3  14
ATOM     14  O   LIG    1       22.859 -25.316   5.935  0.00  0.00    -0.384 OA
ATOM     15  H   LIG    1       22.883 -24.344   5.934  0.00  0.00    +0.210 HD
ENDBRANCH   3  14
BRANCH   2  16
ATOM     16  O   LIG    1       25.645 -23.874   6.555  0.00  0.00    -0.341 OA
BRANCH  16  18
ATOM     17  C   LIG    1       26.655 -21.620   7.071  0.00  0.00    +0.160 C 
ATOM     18  C   LIG    1       25.613 -22.718   7.402  0.00  0.00    +0.177 C 
ATOM     19  C   LIG    1       24.214 -22.111   7.116  0.00  0.00    +0.176 C 
ATOM     20  C   LIG    1       24.138 -21.614   5.652  0.00  0.00    +0.178 C 
ATOM     21  O   LIG    1       25.201 -20.689   5.344  0.00  0.00    -0.341 OA
ATOM     22  C   LIG    1       26.495 -21.239   5.579  0.00  0.00    +0.270 C 
BRANCH  17  25
ATOM     23  C   LIG    1       30.259 -21.428   8.317  0.00  0.00    +0.109 C 
ATOM     24  C   LIG    1       28.870 -20.952   7.988  0.00  0.00    +0.210 C 
ATOM     25  N   LIG    1       28.039 -21.925   7.470  0.00  0.00    -0.305 N 
ATOM     26  H   LIG    1       28.491 -22.724   7.064  0.00  0.00    +0.149 HD
ATOM     27  O   LIG    1       28.517 -19.793   8.210  0.00  0.00    -0.276 OA
ENDBRANCH  17  25
BRANCH  22  28
ATOM     28  O   LIG    1       27.431 -20.244   5.212  0.00  0.00    -0.365 OA
ATOM     29  H   LIG    1       27.307 -20.153   4.252  0.00  0.00    +0.212 HD
ENDBRANCH  22  28
BRANCH  19  30
ATOM     30  O   LIG    1       23.195 -23.088   7.357  0.00  0.00    -0.387 OA
ATOM     31  H   LIG    1       22.583 -23.075   6.591  0.00  0.00    +0.210 HD
ENDBRANCH  19  30
BRANCH  20  32
ATOM     32  C   LIG    1       22.814 -20.890   5.364  0.00  0.00    +0.190 C 
BRANCH  32  33
ATOM     33  O   LIG    1       21.772 -21.822   5.075  0.00  0.00    -0.392 OA
ATOM     34  H   LIG    1       21.834 -22.011   4.121  0.00  0.00    +0.209 HD
ENDBRANCH  32  33
ENDBRANCH  20  32
ENDBRANCH  16  18
ENDBRANCH   2  16
ENDBRANCH   1   5
BRANCH   1  35
ATOM     35  C   LIG    1       25.921 -29.348   8.766  0.00  0.00    +0.274 C 
ATOM     36  C   LIG    1       25.681 -29.495  10.293  0.00  0.00    +0.160 C 
ATOM     37  C   LIG    1       24.689 -30.652  10.547  0.00  0.00    +0.177 C 
ATOM     38  C   LIG    1       25.329 -31.968  10.047  0.00  0.00    +0.176 C 
ATOM     39  C   LIG    1       26.188 -31.767   8.768  0.00  0.00    +0.178 C 
ATOM     40  O   LIG    1       25.770 -30.597   8.034  0.00  0.00    -0.341 OA
BRANCH  36  41
ATOM     41  N   LIG    1       26.974 -29.544  11.012  0.00  0.00    -0.305 N 
ATOM     42  H   LIG    1       27.820 -29.726  10.483  0.00  0.00    +0.149 HD
ATOM     43  C   LIG    1       27.106 -29.305  12.358  0.00  0.00    +0.210 C 
ATOM     44  O   LIG    1       26.147 -29.034  13.084  0.00  0.00    -0.276 OA
ATOM     45  C   LIG    1       28.516 -29.375  12.893  0.00  0.00    +0.109 C 
ENDBRANCH  36  41
BRANCH  38  46
ATOM     46  O   LIG    1       26.160 -32.552  11.061  0.00  0.00    -0.387 OA
ATOM     47  H   LIG    1       26.292 -31.840  11.723  0.00  0.00    +0.210 HD
ENDBRANCH  38  46
BRANCH  39  48
ATOM     48  C   LIG    1       26.139 -33.060   7.906  0.00  0.00    +0.190 C 
BRANCH  48  49
ATOM     49  O   LIG    1       26.285 -32.743   6.515  0.00  0.00    -0.392 OA
ATOM     50  H   LIG    1       27.198 -32.441   6.357  0.00  0.00    +0.209 HD
ENDBRANCH  48  49
ENDBRANCH  39  48
BRANCH  37  51
ATOM     51  O   LIG    1       23.409 -30.510   9.846  0.00  0.00    -0.341 OA
BRANCH  51  52
ATOM     52  C   LIG    1       22.276 -30.075  10.604  0.00  0.00    +0.283 C 
ATOM     53  C   LIG    1       20.998 -30.894  10.270  0.00  0.00    +0.201 C 
ATOM     54  C   LIG    1       21.001 -32.230  11.014  0.00  0.00    +0.179 C 
ATOM     55  C   LIG    1       21.098 -31.966  12.521  0.00  0.00    +0.185 C 
ATOM     56  C   LIG    1       22.344 -31.129  12.821  0.00  0.00    +0.260 C 
ATOM     57  O   LIG    1       22.543 -29.972  12.003  0.00  0.00    -0.332 OA
BRANCH  56  58
ATOM     58  C   LIG    1       23.518 -32.136  12.922  0.00  0.00    +0.337 C 
ATOM     59  O   LIG    1       23.470 -33.308  12.669  0.00  0.00    -0.248 OA
BRANCH  58  60
ATOM     60  O   LIG    1       24.618 -31.545  13.474  0.00  0.00    -0.479 OA
ATOM     61  H   LIG    1       25.353 -31.592  12.838  0.00  0.00    +0.295 HD
ENDBRANCH  58  60
ENDBRANCH  56  58
BRANCH  55  62
ATOM     62  O   LIG    1       19.925 -31.280  12.990  0.00  0.00    -0.386 OA
ATOM     63  H   LIG    1       20.255 -30.569  13.575  0.00  0.00    +0.210 HD
ENDBRANCH  55  62
BRANCH  54  64
ATOM     64  O   LIG    1       22.075 -33.065  10.591  0.00  0.00    -0.386 OA
ATOM     65  H   LIG    1       21.729 -33.846  10.124  0.00  0.00    +0.210 HD
ENDBRANCH  54  64
BRANCH  53  66
ATOM     66  O   LIG    1       19.828 -30.123  10.614  0.00  0.00    -0.384 OA
ATOM     67  H   LIG    1       20.130 -29.206  10.812  0.00  0.00    +0.210 HD
ENDBRANCH  53  66
ENDBRANCH  51  52
ENDBRANCH  37  51
ENDBRANCH   1  35
TORSDOF 24
ENDMDL
MODEL 5
REMARK VINA RESULT:      -5.0      1.114      1.294
REMARK  Name = *****
REMARK                            x       y       z     vdW  Elec       q    Type
REMARK                         _______ _______ _______ _____ _____    ______ ____
ROOT
ATOM      1  O   LIG    1       25.512 -28.223   8.068  0.00  0.00    -0.340 OA
ENDROOT
BRANCH   1   5
ATOM      2  C   LIG    1       25.265 -25.004   6.963  0.00  0.00    +0.283 C 
ATOM      3  C   LIG    1       24.222 -25.707   6.052  0.00  0.00    +0.201 C 
ATOM      4  C   LIG    1       24.186 -27.225   6.221  0.00  0.00    +0.180 C 
ATOM      5  C   LIG    1       25.514 -27.838   6.657  0.00  0.00    +0.192 C 
ATOM      6  C   LIG    1       26.680 -26.880   6.384  0.00  0.00    +0.261 C 
ATOM      7  O   LIG    1       26.474 -25.729   7.193  0.00  0.00    -0.332 OA
BRANCH   6   8
ATOM      8  C   LIG    1       26.944 -26.609   4.874  0.00  0.00    +0.337 C 
ATOM      9  O   LIG    1       26.331 -25.775   4.225  0.00  0.00    -0.248 OA
BRANCH   8  10
ATOM     10  O   LIG    1       27.924 -27.349   4.306  0.00  0.00    -0.479 OA
ATOM     11  H   LIG    1       28.283 -28.104   4.807  0.00  0.00    +0.295 HD
ENDBRANCH   8  10
ENDBRANCH   6   8
BRANCH   4  12
ATOM     12  O   LIG    1       23.811 -27.845   4.984  0.00  0.00    -0.386 OA
ATOM     13  H   LIG    1       22.968 -28.319   5.123  0.00  0.00    +0.210 HD
ENDBRANCH   4  12
BRANCH   3  14
ATOM     14  O   LIG    1       22.880 -25.236   6.291  0.00  0.00    -0.384 OA
ATOM     15  H   LIG    1       22.430 -25.107   5.439  0.00  0.00    +0.210 HD
ENDBRANCH   3  14
BRANCH   2  16
ATOM     16  O   LIG    1       25.696 -23.736   6.504  0.00  0.00    -0.341 OA
BRANCH  16  18
ATOM     17  C   LIG    1       26.780 -21.524   7.052  0.00  0.00    +0.160 C 
ATOM     18  C   LIG    1       25.690 -22.583   7.355  0.00  0.00    +0.177 C 
ATOM     19  C   LIG    1       24.321 -21.922   7.043  0.00  0.00    +0.176 C 
ATOM     20  C   LIG    1       24.295 -21.417   5.581  0.00  0.00    +0.178 C 
ATOM     21  O   LIG    1       25.398 -20.531   5.300  0.00  0.00    -0.341 OA
ATOM     22  C   LIG    1       26.665 -21.131   5.559  0.00  0.00    +0.270 C 
BRANCH  17  25
ATOM     23  C   LIG    1       30.432 -21.457   8.163  0.00  0.00    +0.109 C 
ATOM     24  C   LIG    1       29.084 -20.917   7.770  0.00  0.00    +0.210 C 
ATOM     25  N   LIG    1       28.143 -21.883   7.478  0.00  0.00    -0.305 N 
ATOM     26  H   LIG    1       28.498 -22.789   7.235  0.00  0.00    +0.149 HD
ATOM     27  O   LIG    1       28.854 -19.707   7.758  0.00  0.00    -0.276 OA
ENDBRANCH  17  25
BRANCH  22  28
ATOM     28  O   LIG    1       27.647 -20.171   5.216  0.00  0.00    -0.365 OA
ATOM     29  H   LIG    1       27.333 -19.358   5.646  0.00  0.00    +0.212 HD
ENDBRANCH  22  28
BRANCH  19  30
ATOM     30  O   LIG    1       23.261 -22.860   7.259  0.00  0.00    -0.387 OA
ATOM     31  H   LIG    1       22.477 -22.358   7.564  0.00  0.00    +0.210 HD
ENDBRANCH  19  30
BRANCH  20  32
ATOM     32  C   LIG    1       23.006 -20.641   5.270  0.00  0.00    +0.190 C 
BRANCH  32  33
ATOM     33  O   LIG    1       21.923 -21.533   5.002  0.00  0.00    -0.392 OA
ATOM     34  H   LIG    1       21.242 -21.005   4.548  0.00  0.00    +0.209 HD
ENDBRANCH  32  33
ENDBRANCH  20  32
ENDBRANCH  16  18
ENDBRANCH   2  16
ENDBRANCH   1   5
BRANCH   1  35
ATOM     35  C   LIG    1       25.093 -29.573   8.393  0.00  0.00    +0.274 C 
ATOM     36  C   LIG    1       26.162 -30.331   9.227  0.00  0.00    +0.160 C 
ATOM     37  C   LIG    1       25.794 -30.249  10.725  0.00  0.00    +0.177 C 
ATOM     38  C   LIG    1       24.442 -30.967  10.941  0.00  0.00    +0.176 C 
ATOM     39  C   LIG    1       23.464 -30.768   9.750  0.00  0.00    +0.178 C 
ATOM     40  O   LIG    1       23.774 -29.569   9.011  0.00  0.00    -0.341 OA
BRANCH  36  41
ATOM     41  N   LIG    1       26.393 -31.678   8.661  0.00  0.00    -0.305 N 
ATOM     42  H   LIG    1       26.638 -32.436   9.288  0.00  0.00    +0.149 HD
ATOM     43  C   LIG    1       26.243 -31.979   7.329  0.00  0.00    +0.210 C 
ATOM     44  O   LIG    1       25.907 -31.141   6.490  0.00  0.00    -0.276 OA
ATOM     45  C   LIG    1       26.497 -33.420   6.959  0.00  0.00    +0.109 C 
ENDBRANCH  36  41
BRANCH  38  46
ATOM     46  O   LIG    1       24.634 -32.375  11.136  0.00  0.00    -0.387 OA
ATOM     47  H   LIG    1       24.886 -32.469  12.080  0.00  0.00    +0.210 HD
ENDBRANCH  38  46
BRANCH  39  48
ATOM     48  C   LIG    1       22.001 -30.781  10.277  0.00  0.00    +0.190 C 
BRANCH  48  49
ATOM     49  O   LIG    1       21.950 -30.320  11.633  0.00  0.00    -0.392 OA
ATOM     50  H   LIG    1       22.320 -31.011  12.213  0.00  0.00    +0.209 HD
ENDBRANCH  48  49
ENDBRANCH  39  48
BRANCH  37  51
ATOM     51  O   LIG    1       25.634 -28.882  11.232  0.00  0.00    -0.341 OA
BRANCH  51  52
ATOM     52  C   LIG    1       26.650 -28.366  12.098  0.00  0.00    +0.283 C 
ATOM     53  C   LIG    1       26.329 -26.925  12.584  0.00  0.00    +0.201 C 
ATOM     54  C   LIG    1       25.334 -26.955  13.745  0.00  0.00    +0.179 C 
ATOM     55  C   LIG    1       25.917 -27.796  14.886  0.00  0.00    +0.185 C 
ATOM     56  C   LIG    1       26.258 -29.197  14.374  0.00  0.00    +0.260 C 
ATOM     57  O   LIG    1       26.998 -29.264  13.152  0.00  0.00    -0.332 OA
BRANCH  56  58
ATOM     58  C   LIG    1       24.940 -30.010  14.451  0.00  0.00    +0.337 C 
ATOM     59  O   LIG    1       23.960 -29.712  15.075  0.00  0.00    -0.248 OA
BRANCH  58  60
ATOM     60  O   LIG    1       25.071 -31.208  13.809  0.00  0.00    -0.479 OA
ATOM     61  H   LIG    1       24.574 -31.884  14.301  0.00  0.00    +0.295 HD
ENDBRANCH  58  60
ENDBRANCH  56  58
BRANCH  55  62
ATOM     62  O   LIG    1       27.096 -27.171  15.421  0.00  0.00    -0.386 OA
ATOM     63  H   LIG    1       27.315 -26.449  14.797  0.00  0.00    +0.210 HD
ENDBRANCH  55  62
BRANCH  54  64
ATOM     64  O   LIG    1       24.072 -27.481  13.342  0.00  0.00    -0.386 OA
ATOM     65  H   LIG    1       24.179 -28.391  13.012  0.00  0.00    +0.210 HD
ENDBRANCH  54  64
BRANCH  53  66
ATOM     66  O   LIG    1       27.551 -26.266  12.978  0.00  0.00    -0.384 OA
ATOM     67  H   LIG    1       27.389 -25.856  13.860  0.00  0.00    +0.210 HD
ENDBRANCH  53  66
ENDBRANCH  51  52
ENDBRANCH  37  51
ENDBRANCH   1  35
TORSDOF 24
ENDMDL
MODEL 6
REMARK VINA RESULT:      -4.0      3.296      9.076
REMARK  Name = *****
REMARK                            x       y       z     vdW  Elec       q    Type
REMARK                         _______ _______ _______ _____ _____    ______ ____
ROOT
ATOM      1  O   LIG    1       25.749 -29.975  10.119  0.00  0.00    -0.340 OA
ENDROOT
BRANCH   1   5
ATOM      2  C   LIG    1       23.225 -29.296  12.312  0.00  0.00    +0.283 C 
ATOM      3  C   LIG    1       24.402 -28.530  12.974  0.00  0.00    +0.201 C 
ATOM      4  C   LIG    1       25.744 -28.748  12.277  0.00  0.00    +0.180 C 
ATOM      5  C   LIG    1       25.870 -30.095  11.571  0.00  0.00    +0.192 C 
ATOM      6  C   LIG    1       24.832 -31.094  12.097  0.00  0.00    +0.261 C 
ATOM      7  O   LIG    1       23.550 -30.576  11.766  0.00  0.00    -0.332 OA
BRANCH   6   8
ATOM      8  C   LIG    1       25.034 -31.502  13.585  0.00  0.00    +0.337 C 
ATOM      9  O   LIG    1       24.111 -31.764  14.341  0.00  0.00    -0.248 OA
BRANCH   8  10
ATOM     10  O   LIG    1       26.318 -31.572  14.006  0.00  0.00    -0.479 OA
ATOM     11  H   LIG    1       26.984 -31.022  13.553  0.00  0.00    +0.295 HD
ENDBRANCH   8  10
ENDBRANCH   6   8
BRANCH   4  12
ATOM     12  O   LIG    1       26.810 -28.661  13.231  0.00  0.00    -0.386 OA
ATOM     13  H   LIG    1       27.645 -28.519  12.745  0.00  0.00    +0.210 HD
ENDBRANCH   4  12
BRANCH   3  14
ATOM     14  O   LIG    1       24.182 -27.105  13.000  0.00  0.00    -0.384 OA
ATOM     15  H   LIG    1       24.859 -26.666  12.456  0.00  0.00    +0.210 HD
ENDBRANCH   3  14
BRANCH   2  16
ATOM     16  O   LIG    1       22.124 -29.547  13.167  0.00  0.00    -0.341 OA
BRANCH  16  18
ATOM     17  C   LIG    1       19.701 -30.226  13.354  0.00  0.00    +0.160 C 
ATOM     18  C   LIG    1       20.776 -29.283  12.758  0.00  0.00    +0.177 C 
ATOM     19  C   LIG    1       20.504 -27.868  13.335  0.00  0.00    +0.176 C 
ATOM     20  C   LIG    1       20.517 -27.913  14.882  0.00  0.00    +0.178 C 
ATOM     21  O   LIG    1       19.593 -28.894  15.398  0.00  0.00    -0.341 OA
ATOM     22  C   LIG    1       19.844 -30.204  14.895  0.00  0.00    +0.270 C 
BRANCH  17  25
ATOM     23  C   LIG    1       18.735 -33.383  11.437  0.00  0.00    +0.109 C 
ATOM     24  C   LIG    1       18.642 -31.960  11.918  0.00  0.00    +0.210 C 
ATOM     25  N   LIG    1       19.656 -31.577  12.771  0.00  0.00    -0.305 N 
ATOM     26  H   LIG    1       20.145 -32.318  13.240  0.00  0.00    +0.149 HD
ATOM     27  O   LIG    1       17.746 -31.208  11.533  0.00  0.00    -0.276 OA
ENDBRANCH  17  25
BRANCH  22  28
ATOM     28  O   LIG    1       18.893 -31.059  15.499  0.00  0.00    -0.365 OA
ATOM     29  H   LIG    1       19.405 -31.533  16.175  0.00  0.00    +0.212 HD
ENDBRANCH  22  28
BRANCH  19  30
ATOM     30  O   LIG    1       21.490 -26.945  12.861  0.00  0.00    -0.387 OA
ATOM     31  H   LIG    1       21.968 -26.593  13.642  0.00  0.00    +0.210 HD
ENDBRANCH  19  30
BRANCH  20  32
ATOM     32  C   LIG    1       20.124 -26.560  15.494  0.00  0.00    +0.190 C 
BRANCH  32  33
ATOM     33  O   LIG    1       18.761 -26.245  15.208  0.00  0.00    -0.392 OA
ATOM     34  H   LIG    1       18.507 -26.802  14.449  0.00  0.00    +0.209 HD
ENDBRANCH  32  33
ENDBRANCH  20  32
ENDBRANCH  16  18
ENDBRANCH   2  16
ENDBRANCH   1   5
BRANCH   1  35
ATOM     35  C   LIG    1       25.449 -31.181   9.370  0.00  0.00    +0.274 C 
ATOM     36  C   LIG    1       24.047 -31.121   8.705  0.00  0.00    +0.160 C 
ATOM     37  C   LIG    1       24.196 -30.682   7.232  0.00  0.00    +0.177 C 
ATOM     38  C   LIG    1       25.022 -31.753   6.480  0.00  0.00    +0.176 C 
ATOM     39  C   LIG    1       26.137 -32.375   7.364  0.00  0.00    +0.178 C 
ATOM     40  O   LIG    1       26.521 -31.483   8.431  0.00  0.00    -0.341 OA
BRANCH  36  41
ATOM     41  N   LIG    1       23.304 -32.375   8.965  0.00  0.00    -0.305 N 
ATOM     42  H   LIG    1       23.750 -33.259   8.750  0.00  0.00    +0.149 HD
ATOM     43  C   LIG    1       22.054 -32.415   9.534  0.00  0.00    +0.210 C 
ATOM     44  O   LIG    1       21.443 -31.398   9.871  0.00  0.00    -0.276 OA
ATOM     45  C   LIG    1       21.482 -33.795   9.742  0.00  0.00    +0.109 C 
ENDBRANCH  36  41
BRANCH  38  46
ATOM     46  O   LIG    1       24.178 -32.812   6.006  0.00  0.00    -0.387 OA
ATOM     47  H   LIG    1       24.789 -33.553   5.805  0.00  0.00    +0.210 HD
ENDBRANCH  38  46
BRANCH  39  48
ATOM     48  C   LIG    1       27.340 -32.780   6.466  0.00  0.00    +0.190 C 
BRANCH  48  49
ATOM     49  O   LIG    1       26.886 -33.473   5.296  0.00  0.00    -0.392 OA
ATOM     50  H   LIG    1       27.597 -33.465   4.630  0.00  0.00    +0.209 HD
ENDBRANCH  48  49
ENDBRANCH  39  48
BRANCH  37  51
ATOM     51  O   LIG    1       24.894 -29.406   7.052  0.00  0.00    -0.341 OA
BRANCH  51  52
ATOM     52  C   LIG    1       25.416 -29.105   5.754  0.00  0.00    +0.283 C 
ATOM     53  C   LIG    1       24.325 -28.545   4.799  0.00  0.00    +0.201 C 
ATOM     54  C   LIG    1       24.086 -27.058   5.063  0.00  0.00    +0.179 C 
ATOM     55  C   LIG    1       25.405 -26.297   4.886  0.00  0.00    +0.185 C 
ATOM     56  C   LIG    1       26.472 -26.890   5.810  0.00  0.00    +0.260 C 
ATOM     57  O   LIG    1       26.604 -28.314   5.796  0.00  0.00    -0.332 OA
BRANCH  56  58
ATOM     58  C   LIG    1       26.266 -26.209   7.187  0.00  0.00    +0.337 C 
ATOM     59  O   LIG    1       25.959 -25.065   7.374  0.00  0.00    -0.248 OA
BRANCH  58  60
ATOM     60  O   LIG    1       26.611 -27.056   8.202  0.00  0.00    -0.479 OA
ATOM     61  H   LIG    1       26.507 -26.589   9.049  0.00  0.00    +0.295 HD
ENDBRANCH  58  60
ENDBRANCH  56  58
BRANCH  55  62
ATOM     62  O   LIG    1       25.848 -26.368   3.520  0.00  0.00    -0.386 OA
ATOM     63  H   LIG    1       26.631 -25.783   3.469  0.00  0.00    +0.210 HD
ENDBRANCH  55  62
BRANCH  54  64
ATOM     64  O   LIG    1       23.561 -26.834   6.369  0.00  0.00    -0.386 OA
ATOM     65  H   LIG    1       23.092 -27.628   6.682  0.00  0.00    +0.210 HD
ENDBRANCH  54  64
BRANCH  53  66
ATOM     66  O   LIG    1       24.726 -28.761   3.430  0.00  0.00    -0.384 OA
ATOM     67  H   LIG    1       25.703 -28.638   3.389  0.00  0.00    +0.210 HD
ENDBRANCH  53  66
ENDBRANCH  51  52
ENDBRANCH  37  51
ENDBRANCH   1  35
TORSDOF 24
ENDMDL
