MODEL 1
REMARK VINA RESULT:       7.2      0.000      0.000
REMARK  Name = *****
REMARK                            x       y       z     vdW  Elec       q    Type
REMARK                         _______ _______ _______ _____ _____    ______ ____
ROOT
ATOM      1  C   LIG    1       22.655 -19.971   4.989  0.00  0.00    +0.065 C 
ATOM      2  C   LIG    1       23.158 -18.470   4.983  0.00  0.00    +0.096 C 
ATOM      3  C   LIG    1       22.046 -17.453   4.564  0.00  0.00    +0.065 C 
ATOM      4  C   LIG    1       21.000 -17.896   3.823  0.00  0.00    +0.016 C 
ATOM      5  C   LIG    1       19.859 -17.027   3.319  0.00  0.00    +0.061 C 
ATOM      6  N   LIG    1       20.906 -19.251   3.520  0.00  0.00    -0.321 N 
ATOM      7  H   LIG    1       20.024 -19.527   3.090  0.00  0.00    +0.152 HD
ATOM      8  C   LIG    1       21.547 -20.253   4.251  0.00  0.00    +0.016 C 
ATOM      9  C   LIG    1       20.810 -21.565   4.292  0.00  0.00    +0.061 C 
ENDROOT
BRANCH   2  10
ATOM     10  C   LIG    1       24.408 -18.353   4.148  0.00  0.00    -0.029 A 
ATOM     11  C   LIG    1       25.149 -17.174   4.105  0.00  0.00    +0.088 A 
ATOM     12  C   LIG    1       26.225 -17.088   3.235  0.00  0.00    +0.273 A 
ATOM     13  C   LIG    1       26.588 -18.180   2.438  0.00  0.00    +0.084 A 
ATOM     14  C   LIG    1       25.880 -19.374   2.524  0.00  0.00    +0.007 A 
ATOM     15  C   LIG    1       24.807 -19.461   3.387  0.00  0.00    +0.005 A 
BRANCH  12  16
ATOM     16  N   LIG    1       26.939 -15.819   3.128  0.00  0.00    +0.080 N 
ATOM     17  O   LIG    1       26.675 -15.082   2.165  0.00  0.00    -0.576 OA
ATOM     18  O   LIG    1       27.779 -15.562   4.000  0.00  0.00    +0.041 OA
ENDBRANCH  12  16
ENDBRANCH   2  10
BRANCH   1  19
ATOM     19  C   LIG    1       23.141 -20.877   6.161  0.00  0.00    +0.338 C 
ATOM     20  O   LIG    1       22.399 -21.285   7.054  0.00  0.00    -0.245 OA
BRANCH  19  21
ATOM     21  O   LIG    1       24.286 -21.520   5.787  0.00  0.00    -0.459 OA
BRANCH  21  22
ATOM     22  C   LIG    1       25.561 -21.376   6.507  0.00  0.00    +0.260 C 
BRANCH  22  23
ATOM     23  C   LIG    1       26.625 -20.445   5.828  0.00  0.00    +0.200 C 
BRANCH  23  25
ATOM     24  C   LIG    1       28.494 -19.132   6.020  0.00  0.00    +0.194 C 
ATOM     25  O   LIG    1       27.901 -20.304   6.468  0.00  0.00    -0.380 OA
ENDBRANCH  23  25
ENDBRANCH  22  23
ENDBRANCH  21  22
ENDBRANCH  19  21
ENDBRANCH   1  19
BRANCH   3  26
ATOM     26  C   LIG    1       22.095 -16.068   5.086  0.00  0.00    +0.338 C 
ATOM     27  O   LIG    1       21.121 -15.511   5.700  0.00  0.00    -0.245 OA
BRANCH  26  28
ATOM     28  O   LIG    1       23.294 -15.507   4.914  0.00  0.00    -0.457 OA
BRANCH  28  29
ATOM     29  C   LIG    1       23.417 -14.427   3.963  0.00  0.00    +0.260 C 
BRANCH  29  30
ATOM     30  C   LIG    1       24.788 -13.851   3.852  0.00  0.00    +0.014 C 
ATOM     31  C   LIG    1       25.496 -13.298   4.850  0.00  0.00    +0.007 C 
BRANCH  31  32
ATOM     32  C   LIG    1       26.857 -12.774   4.651  0.00  0.00    -0.025 A 
ATOM     33  C   LIG    1       27.327 -12.349   3.399  0.00  0.00    +0.008 A 
ATOM     34  C   LIG    1       28.622 -11.849   3.252  0.00  0.00    +0.001 A 
ATOM     35  C   LIG    1       29.461 -11.760   4.358  0.00  0.00    +0.000 A 
ATOM     36  C   LIG    1       29.008 -12.176   5.608  0.00  0.00    +0.001 A 
ATOM     37  C   LIG    1       27.710 -12.675   5.756  0.00  0.00    +0.008 A 
ENDBRANCH  31  32
ENDBRANCH  29  30
ENDBRANCH  28  29
ENDBRANCH  26  28
ENDBRANCH   3  26
TORSDOF 12
ENDMDL
MODEL 2
REMARK VINA RESULT:       9.5      2.263      6.390
REMARK  Name = *****
REMARK                            x       y       z     vdW  Elec       q    Type
REMARK                         _______ _______ _______ _____ _____    ______ ____
ROOT
ATOM      1  C   LIG    1       24.026 -13.605   3.628  0.00  0.00    +0.065 C 
ATOM      2  C   LIG    1       23.829 -15.176   3.597  0.00  0.00    +0.096 C 
ATOM      3  C   LIG    1       22.796 -15.684   4.657  0.00  0.00    +0.065 C 
ATOM      4  C   LIG    1       22.550 -14.918   5.749  0.00  0.00    +0.016 C 
ATOM      5  C   LIG    1       21.597 -15.288   6.875  0.00  0.00    +0.061 C 
ATOM      6  N   LIG    1       23.161 -13.673   5.860  0.00  0.00    -0.321 N 
ATOM      7  H   LIG    1       22.815 -13.101   6.628  0.00  0.00    +0.152 HD
ATOM      8  C   LIG    1       23.667 -12.961   4.771  0.00  0.00    +0.016 C 
ATOM      9  C   LIG    1       23.594 -11.464   4.916  0.00  0.00    +0.061 C 
ENDROOT
BRANCH   2  10
ATOM     10  C   LIG    1       25.168 -15.860   3.703  0.00  0.00    -0.029 A 
ATOM     11  C   LIG    1       26.100 -15.495   4.674  0.00  0.00    +0.088 A 
ATOM     12  C   LIG    1       27.355 -16.081   4.655  0.00  0.00    +0.273 A 
ATOM     13  C   LIG    1       27.675 -17.054   3.699  0.00  0.00    +0.084 A 
ATOM     14  C   LIG    1       26.725 -17.456   2.767  0.00  0.00    +0.007 A 
ATOM     15  C   LIG    1       25.475 -16.872   2.782  0.00  0.00    +0.005 A 
BRANCH  12  16
ATOM     16  N   LIG    1       28.355 -15.626   5.616  0.00  0.00    +0.080 N 
ATOM     17  O   LIG    1       28.032 -14.732   6.414  0.00  0.00    -0.576 OA
ATOM     18  O   LIG    1       29.475 -16.152   5.566  0.00  0.00    +0.041 OA
ENDBRANCH  12  16
ENDBRANCH   2  10
BRANCH   1  19
ATOM     19  C   LIG    1       24.149 -12.880   2.254  0.00  0.00    +0.338 C 
ATOM     20  O   LIG    1       23.317 -12.076   1.835  0.00  0.00    -0.245 OA
BRANCH  19  21
ATOM     21  O   LIG    1       25.459 -12.871   1.866  0.00  0.00    -0.459 OA
BRANCH  21  22
ATOM     22  C   LIG    1       26.567 -12.566   2.784  0.00  0.00    +0.260 C 
BRANCH  22  23
ATOM     23  C   LIG    1       27.848 -13.458   2.626  0.00  0.00    +0.200 C 
BRANCH  23  25
ATOM     24  C   LIG    1       28.573 -12.273   4.448  0.00  0.00    +0.194 C 
ATOM     25  O   LIG    1       28.872 -13.348   3.624  0.00  0.00    -0.380 OA
ENDBRANCH  23  25
ENDBRANCH  22  23
ENDBRANCH  21  22
ENDBRANCH  19  21
ENDBRANCH   1  19
BRANCH   3  26
ATOM     26  C   LIG    1       22.027 -16.920   4.385  0.00  0.00    +0.338 C 
ATOM     27  O   LIG    1       21.246 -17.057   3.383  0.00  0.00    -0.245 OA
BRANCH  26  28
ATOM     28  O   LIG    1       22.308 -17.891   5.258  0.00  0.00    -0.457 OA
BRANCH  28  29
ATOM     29  C   LIG    1       22.617 -19.206   4.747  0.00  0.00    +0.260 C 
BRANCH  29  30
ATOM     30  C   LIG    1       23.901 -19.779   5.244  0.00  0.00    +0.014 C 
ATOM     31  C   LIG    1       25.132 -19.339   4.938  0.00  0.00    +0.007 C 
BRANCH  31  32
ATOM     32  C   LIG    1       26.347 -19.955   5.496  0.00  0.00    -0.025 A 
ATOM     33  C   LIG    1       27.638 -19.555   5.118  0.00  0.00    +0.008 A 
ATOM     34  C   LIG    1       28.767 -20.157   5.675  0.00  0.00    +0.001 A 
ATOM     35  C   LIG    1       28.618 -21.164   6.625  0.00  0.00    +0.000 A 
ATOM     36  C   LIG    1       27.343 -21.571   7.011  0.00  0.00    +0.001 A 
ATOM     37  C   LIG    1       26.213 -20.965   6.455  0.00  0.00    +0.008 A 
ENDBRANCH  31  32
ENDBRANCH  29  30
ENDBRANCH  28  29
ENDBRANCH  26  28
ENDBRANCH   3  26
TORSDOF 12
ENDMDL
MODEL 3
REMARK VINA RESULT:      10.1      1.662      2.965
REMARK  Name = *****
REMARK                            x       y       z     vdW  Elec       q    Type
REMARK                         _______ _______ _______ _____ _____    ______ ____
ROOT
ATOM      1  C   LIG    1       25.272 -18.932   4.106  0.00  0.00    +0.065 C 
ATOM      2  C   LIG    1       24.646 -17.525   4.474  0.00  0.00    +0.096 C 
ATOM      3  C   LIG    1       23.090 -17.488   4.318  0.00  0.00    +0.065 C 
ATOM      4  C   LIG    1       22.495 -18.380   3.487  0.00  0.00    +0.016 C 
ATOM      5  C   LIG    1       21.001 -18.452   3.212  0.00  0.00    +0.061 C 
ATOM      6  N   LIG    1       23.272 -19.348   2.857  0.00  0.00    -0.321 N 
ATOM      7  H   LIG    1       22.738 -20.066   2.369  0.00  0.00    +0.152 HD
ATOM      8  C   LIG    1       24.526 -19.752   3.318  0.00  0.00    +0.016 C 
ATOM      9  C   LIG    1       24.862 -21.191   3.030  0.00  0.00    +0.061 C 
ENDROOT
BRANCH   2  10
ATOM     10  C   LIG    1       25.342 -16.437   3.696  0.00  0.00    -0.029 A 
ATOM     11  C   LIG    1       24.680 -15.268   3.324  0.00  0.00    +0.088 A 
ATOM     12  C   LIG    1       25.335 -14.353   2.516  0.00  0.00    +0.273 A 
ATOM     13  C   LIG    1       26.656 -14.577   2.109  0.00  0.00    +0.084 A 
ATOM     14  C   LIG    1       27.333 -15.717   2.527  0.00  0.00    +0.007 A 
ATOM     15  C   LIG    1       26.682 -16.632   3.330  0.00  0.00    +0.005 A 
BRANCH  12  16
ATOM     16  N   LIG    1       24.604 -13.177   2.054  0.00  0.00    +0.080 N 
ATOM     17  O   LIG    1       25.250 -12.144   1.819  0.00  0.00    -0.576 OA
ATOM     18  O   LIG    1       23.375 -13.279   1.940  0.00  0.00    +0.041 OA
ENDBRANCH  12  16
ENDBRANCH   2  10
BRANCH   1  19
ATOM     19  C   LIG    1       26.424 -19.455   5.017  0.00  0.00    +0.338 C 
ATOM     20  O   LIG    1       27.601 -19.126   4.877  0.00  0.00    -0.245 OA
BRANCH  19  21
ATOM     21  O   LIG    1       25.900 -19.874   6.207  0.00  0.00    -0.459 OA
BRANCH  21  22
ATOM     22  C   LIG    1       25.539 -21.274   6.479  0.00  0.00    +0.260 C 
BRANCH  22  23
ATOM     23  C   LIG    1       24.047 -21.524   6.892  0.00  0.00    +0.200 C 
BRANCH  23  25
ATOM     24  C   LIG    1       22.204 -21.552   5.529  0.00  0.00    +0.194 C 
ATOM     25  O   LIG    1       23.033 -20.722   6.270  0.00  0.00    -0.380 OA
ENDBRANCH  23  25
ENDBRANCH  22  23
ENDBRANCH  21  22
ENDBRANCH  19  21
ENDBRANCH   1  19
BRANCH   3  26
ATOM     26  C   LIG    1       22.297 -16.570   5.167  0.00  0.00    +0.338 C 
ATOM     27  O   LIG    1       21.606 -16.959   6.170  0.00  0.00    -0.245 OA
BRANCH  26  28
ATOM     28  O   LIG    1       22.456 -15.292   4.814  0.00  0.00    -0.457 OA
BRANCH  28  29
ATOM     29  C   LIG    1       22.967 -14.366   5.797  0.00  0.00    +0.260 C 
BRANCH  29  30
ATOM     30  C   LIG    1       24.269 -13.734   5.436  0.00  0.00    +0.014 C 
ATOM     31  C   LIG    1       25.438 -13.921   6.068  0.00  0.00    +0.007 C 
BRANCH  31  32
ATOM     32  C   LIG    1       26.683 -13.270   5.627  0.00  0.00    -0.025 A 
ATOM     33  C   LIG    1       26.817 -12.676   4.363  0.00  0.00    +0.008 A 
ATOM     34  C   LIG    1       28.010 -12.060   3.983  0.00  0.00    +0.001 A 
ATOM     35  C   LIG    1       29.084 -12.024   4.868  0.00  0.00    +0.000 A 
ATOM     36  C   LIG    1       28.965 -12.608   6.127  0.00  0.00    +0.001 A 
ATOM     37  C   LIG    1       27.769 -13.222   6.508  0.00  0.00    +0.008 A 
ENDBRANCH  31  32
ENDBRANCH  29  30
ENDBRANCH  28  29
ENDBRANCH  26  28
ENDBRANCH   3  26
TORSDOF 12
ENDMDL
