MODEL 1
REMARK VINA RESULT:      -7.3      0.000      0.000
REMARK  Name = *****
REMARK                            x       y       z     vdW  Elec       q    Type
REMARK                         _______ _______ _______ _____ _____    ______ ____
ROOT
ATOM      1  C   LIG    1       24.465 -22.384   5.532  0.00  0.00    +0.065 C 
ATOM      2  C   LIG    1       25.275 -21.240   4.902  0.00  0.00    +0.098 C 
ATOM      3  C   LIG    1       24.378 -20.089   4.427  0.00  0.00    +0.065 C 
ATOM      4  C   LIG    1       23.159 -19.920   4.993  0.00  0.00    +0.016 C 
ATOM      5  C   LIG    1       22.220 -18.780   4.689  0.00  0.00    +0.061 C 
ATOM      6  N   LIG    1       22.718 -20.835   5.942  0.00  0.00    -0.321 N 
ATOM      7  H   LIG    1       21.761 -20.718   6.271  0.00  0.00    +0.152 HD
ATOM      8  C   LIG    1       23.257 -22.113   6.085  0.00  0.00    +0.016 C 
ATOM      9  C   LIG    1       22.371 -23.068   6.848  0.00  0.00    +0.061 C 
ENDROOT
BRANCH   2  10
ATOM     10  C   LIG    1       26.353 -20.743   5.876  0.00  0.00    -0.004 A 
ATOM     11  C   LIG    1       26.209 -20.634   7.282  0.00  0.00    +0.138 A 
ATOM     12  C   LIG    1       27.295 -20.191   8.161  0.00  0.00    +0.135 A 
ATOM     13  N   LIG    1       26.862 -20.229   9.426  0.00  0.00    -0.049 NA
ATOM     14  O   LIG    1       25.551 -20.665   9.361  0.00  0.00    -0.242 OA
ATOM     15  C   LIG    1       28.559 -19.811   7.682  0.00  0.00    +0.033 A 
ATOM     16  C   LIG    1       28.694 -19.896   6.290  0.00  0.00    +0.003 A 
ATOM     17  N   LIG    1       25.145 -20.891   8.057  0.00  0.00    -0.049 NA
ATOM     18  C   LIG    1       27.648 -20.341   5.435  0.00  0.00    +0.007 A 
ENDBRANCH   2  10
BRANCH   1  19
ATOM     19  C   LIG    1       25.032 -23.768   5.423  0.00  0.00    +0.337 C 
ATOM     20  O   LIG    1       24.962 -24.494   4.458  0.00  0.00    -0.245 OA
BRANCH  19  22
ATOM     21  C   LIG    1       25.899 -25.434   6.872  0.00  0.00    +0.280 C 
ATOM     22  O   LIG    1       25.707 -24.053   6.568  0.00  0.00    -0.465 OA
ENDBRANCH  19  22
ENDBRANCH   1  19
BRANCH   3  23
ATOM     23  C   LIG    1       24.892 -19.191   3.347  0.00  0.00    +0.338 C 
ATOM     24  O   LIG    1       25.128 -19.526   2.204  0.00  0.00    -0.245 OA
BRANCH  23  25
ATOM     25  O   LIG    1       25.003 -17.932   3.834  0.00  0.00    -0.459 OA
BRANCH  25  26
ATOM     26  C   LIG    1       25.946 -17.046   3.209  0.00  0.00    +0.171 C 
ATOM     27  C   LIG    1       27.304 -17.215   3.872  0.00  0.00    +0.051 C 
ATOM     28  C   LIG    1       25.404 -15.640   3.428  0.00  0.00    +0.051 C 
ENDBRANCH  25  26
ENDBRANCH  23  25
ENDBRANCH   3  23
TORSDOF 6
ENDMDL
MODEL 2
REMARK VINA RESULT:      -6.3      1.612      2.032
REMARK  Name = *****
REMARK                            x       y       z     vdW  Elec       q    Type
REMARK                         _______ _______ _______ _____ _____    ______ ____
ROOT
ATOM      1  C   LIG    1       24.587 -22.660   5.859  0.00  0.00    +0.065 C 
ATOM      2  C   LIG    1       25.418 -21.488   5.312  0.00  0.00    +0.098 C 
ATOM      3  C   LIG    1       24.541 -20.411   4.659  0.00  0.00    +0.065 C 
ATOM      4  C   LIG    1       23.242 -20.301   5.026  0.00  0.00    +0.016 C 
ATOM      5  C   LIG    1       22.297 -19.232   4.537  0.00  0.00    +0.061 C 
ATOM      6  N   LIG    1       22.713 -21.211   5.935  0.00  0.00    -0.321 N 
ATOM      7  H   LIG    1       21.711 -21.143   6.110  0.00  0.00    +0.152 HD
ATOM      8  C   LIG    1       23.295 -22.447   6.211  0.00  0.00    +0.016 C 
ATOM      9  C   LIG    1       22.358 -23.430   6.870  0.00  0.00    +0.061 C 
ENDROOT
BRANCH   2  10
ATOM     10  C   LIG    1       26.303 -20.894   6.416  0.00  0.00    -0.004 A 
ATOM     11  C   LIG    1       27.559 -20.266   6.220  0.00  0.00    +0.138 A 
ATOM     12  C   LIG    1       28.336 -19.682   7.317  0.00  0.00    +0.135 A 
ATOM     13  N   LIG    1       29.447 -19.137   6.809  0.00  0.00    -0.049 NA
ATOM     14  O   LIG    1       29.392 -19.372   5.448  0.00  0.00    -0.242 OA
ATOM     15  C   LIG    1       27.916 -19.720   8.657  0.00  0.00    +0.033 A 
ATOM     16  C   LIG    1       26.686 -20.362   8.854  0.00  0.00    +0.003 A 
ATOM     17  N   LIG    1       28.255 -20.078   5.090  0.00  0.00    -0.049 NA
ATOM     18  C   LIG    1       25.922 -20.916   7.791  0.00  0.00    +0.007 A 
ENDBRANCH   2  10
BRANCH   1  19
ATOM     19  C   LIG    1       25.241 -24.009   5.894  0.00  0.00    +0.337 C 
ATOM     20  O   LIG    1       25.845 -24.486   6.827  0.00  0.00    -0.245 OA
BRANCH  19  22
ATOM     21  C   LIG    1       25.318 -26.034   4.662  0.00  0.00    +0.280 C 
ATOM     22  O   LIG    1       24.981 -24.649   4.723  0.00  0.00    -0.465 OA
ENDBRANCH  19  22
ENDBRANCH   1  19
BRANCH   3  23
ATOM     23  C   LIG    1       25.163 -19.519   3.633  0.00  0.00    +0.338 C 
ATOM     24  O   LIG    1       25.394 -19.823   2.481  0.00  0.00    -0.245 OA
BRANCH  23  25
ATOM     25  O   LIG    1       25.379 -18.299   4.181  0.00  0.00    -0.459 OA
BRANCH  25  26
ATOM     26  C   LIG    1       25.935 -17.272   3.345  0.00  0.00    +0.171 C 
ATOM     27  C   LIG    1       27.353 -16.967   3.802  0.00  0.00    +0.051 C 
ATOM     28  C   LIG    1       25.033 -16.058   3.522  0.00  0.00    +0.051 C 
ENDBRANCH  25  26
ENDBRANCH  23  25
ENDBRANCH   3  23
TORSDOF 6
ENDMDL
MODEL 3
REMARK VINA RESULT:      -6.3      7.512     11.288
REMARK  Name = *****
REMARK                            x       y       z     vdW  Elec       q    Type
REMARK                         _______ _______ _______ _____ _____    ______ ____
ROOT
ATOM      1  C   LIG    1       26.161 -31.606   9.030  0.00  0.00    +0.065 C 
ATOM      2  C   LIG    1       24.966 -30.818   8.469  0.00  0.00    +0.098 C 
ATOM      3  C   LIG    1       24.992 -30.739   6.937  0.00  0.00    +0.065 C 
ATOM      4  C   LIG    1       25.662 -31.684   6.235  0.00  0.00    +0.016 C 
ATOM      5  C   LIG    1       25.690 -31.780   4.731  0.00  0.00    +0.061 C 
ATOM      6  N   LIG    1       26.370 -32.665   6.920  0.00  0.00    -0.321 N 
ATOM      7  H   LIG    1       26.930 -33.298   6.351  0.00  0.00    +0.152 HD
ATOM      8  C   LIG    1       26.760 -32.541   8.253  0.00  0.00    +0.016 C 
ATOM      9  C   LIG    1       27.861 -33.492   8.658  0.00  0.00    +0.061 C 
ENDROOT
BRANCH   2  10
ATOM     10  C   LIG    1       23.644 -31.413   8.976  0.00  0.00    -0.004 A 
ATOM     11  C   LIG    1       22.843 -30.879  10.017  0.00  0.00    +0.138 A 
ATOM     12  C   LIG    1       21.568 -31.474  10.424  0.00  0.00    +0.135 A 
ATOM     13  N   LIG    1       21.040 -30.725  11.399  0.00  0.00    -0.049 NA
ATOM     14  O   LIG    1       21.943 -29.700  11.616  0.00  0.00    -0.242 OA
ATOM     15  C   LIG    1       21.045 -32.639   9.838  0.00  0.00    +0.033 A 
ATOM     16  C   LIG    1       21.849 -33.180   8.826  0.00  0.00    +0.003 A 
ATOM     17  N   LIG    1       23.050 -29.804  10.792  0.00  0.00    -0.049 NA
ATOM     18  C   LIG    1       23.079 -32.597   8.416  0.00  0.00    +0.007 A 
ENDBRANCH   2  10
BRANCH   1  19
ATOM     19  C   LIG    1       26.653 -31.228  10.396  0.00  0.00    +0.337 C 
ATOM     20  O   LIG    1       26.219 -31.635  11.449  0.00  0.00    -0.245 OA
BRANCH  19  22
ATOM     21  C   LIG    1       27.894 -29.401  11.260  0.00  0.00    +0.280 C 
ATOM     22  O   LIG    1       27.725 -30.403  10.258  0.00  0.00    -0.465 OA
ENDBRANCH  19  22
ENDBRANCH   1  19
BRANCH   3  23
ATOM     23  C   LIG    1       24.270 -29.610   6.275  0.00  0.00    +0.338 C 
ATOM     24  O   LIG    1       23.196 -29.690   5.716  0.00  0.00    -0.245 OA
BRANCH  23  25
ATOM     25  O   LIG    1       24.982 -28.470   6.446  0.00  0.00    -0.459 OA
BRANCH  25  26
ATOM     26  C   LIG    1       24.890 -27.457   5.432  0.00  0.00    +0.171 C 
ATOM     27  C   LIG    1       26.288 -27.114   4.938  0.00  0.00    +0.051 C 
ATOM     28  C   LIG    1       24.239 -26.255   6.102  0.00  0.00    +0.051 C 
ENDBRANCH  25  26
ENDBRANCH  23  25
ENDBRANCH   3  23
TORSDOF 6
ENDMDL
MODEL 4
REMARK VINA RESULT:      -5.9      7.448     11.293
REMARK  Name = *****
REMARK                            x       y       z     vdW  Elec       q    Type
REMARK                         _______ _______ _______ _____ _____    ______ ____
ROOT
ATOM      1  C   LIG    1       26.305 -31.197   9.105  0.00  0.00    +0.065 C 
ATOM      2  C   LIG    1       25.138 -30.331   8.606  0.00  0.00    +0.098 C 
ATOM      3  C   LIG    1       25.023 -30.339   7.076  0.00  0.00    +0.065 C 
ATOM      4  C   LIG    1       25.534 -31.381   6.378  0.00  0.00    +0.016 C 
ATOM      5  C   LIG    1       25.408 -31.562   4.886  0.00  0.00    +0.061 C 
ATOM      6  N   LIG    1       26.213 -32.387   7.057  0.00  0.00    -0.321 N 
ATOM      7  H   LIG    1       26.656 -33.101   6.481  0.00  0.00    +0.152 HD
ATOM      8  C   LIG    1       26.739 -32.227   8.338  0.00  0.00    +0.016 C 
ATOM      9  C   LIG    1       27.784 -33.255   8.701  0.00  0.00    +0.061 C 
ENDROOT
BRANCH   2  10
ATOM     10  C   LIG    1       23.823 -30.767   9.268  0.00  0.00    -0.004 A 
ATOM     11  C   LIG    1       23.087 -31.937   8.953  0.00  0.00    +0.138 A 
ATOM     12  C   LIG    1       21.858 -32.316   9.655  0.00  0.00    +0.135 A 
ATOM     13  N   LIG    1       21.425 -33.480   9.156  0.00  0.00    -0.049 NA
ATOM     14  O   LIG    1       22.329 -33.825   8.169  0.00  0.00    -0.242 OA
ATOM     15  C   LIG    1       21.290 -31.540  10.678  0.00  0.00    +0.033 A 
ATOM     16  C   LIG    1       22.004 -30.370  10.973  0.00  0.00    +0.003 A 
ATOM     17  N   LIG    1       23.329 -32.878   8.029  0.00  0.00    -0.049 NA
ATOM     18  C   LIG    1       23.206 -30.007  10.306  0.00  0.00    +0.007 A 
ENDBRANCH   2  10
BRANCH   1  19
ATOM     19  C   LIG    1       26.959 -30.794  10.393  0.00  0.00    +0.337 C 
ATOM     20  O   LIG    1       27.891 -30.033  10.513  0.00  0.00    -0.245 OA
BRANCH  19  22
ATOM     21  C   LIG    1       25.971 -30.531  12.533  0.00  0.00    +0.280 C 
ATOM     22  O   LIG    1       26.283 -31.371  11.423  0.00  0.00    -0.465 OA
ENDBRANCH  19  22
ENDBRANCH   1  19
BRANCH   3  23
ATOM     23  C   LIG    1       24.345 -29.184   6.412  0.00  0.00    +0.338 C 
ATOM     24  O   LIG    1       23.327 -29.245   5.755  0.00  0.00    -0.245 OA
BRANCH  23  25
ATOM     25  O   LIG    1       25.022 -28.047   6.705  0.00  0.00    -0.459 OA
BRANCH  25  26
ATOM     26  C   LIG    1       24.976 -26.969   5.757  0.00  0.00    +0.171 C 
ATOM     27  C   LIG    1       26.078 -27.163   4.726  0.00  0.00    +0.051 C 
ATOM     28  C   LIG    1       25.200 -25.697   6.562  0.00  0.00    +0.051 C 
ENDBRANCH  25  26
ENDBRANCH  23  25
ENDBRANCH   3  23
TORSDOF 6
ENDMDL
MODEL 5
REMARK VINA RESULT:      -5.8      2.280      4.609
REMARK  Name = *****
REMARK                            x       y       z     vdW  Elec       q    Type
REMARK                         _______ _______ _______ _____ _____    ______ ____
ROOT
ATOM      1  C   LIG    1       26.626 -20.330   6.913  0.00  0.00    +0.065 C 
ATOM      2  C   LIG    1       25.223 -20.867   6.588  0.00  0.00    +0.098 C 
ATOM      3  C   LIG    1       24.676 -20.297   5.272  0.00  0.00    +0.065 C 
ATOM      4  C   LIG    1       25.541 -19.845   4.334  0.00  0.00    +0.016 C 
ATOM      5  C   LIG    1       25.145 -19.350   2.965  0.00  0.00    +0.061 C 
ATOM      6  N   LIG    1       26.904 -19.843   4.610  0.00  0.00    -0.321 N 
ATOM      7  H   LIG    1       27.506 -19.411   3.911  0.00  0.00    +0.152 HD
ATOM      8  C   LIG    1       27.425 -19.910   5.902  0.00  0.00    +0.016 C 
ATOM      9  C   LIG    1       28.864 -19.463   6.004  0.00  0.00    +0.061 C 
ENDROOT
BRANCH   2  10
ATOM     10  C   LIG    1       25.224 -22.402   6.574  0.00  0.00    -0.004 A 
ATOM     11  C   LIG    1       24.077 -23.230   6.664  0.00  0.00    +0.138 A 
ATOM     12  C   LIG    1       24.145 -24.692   6.603  0.00  0.00    +0.135 A 
ATOM     13  N   LIG    1       22.902 -25.180   6.677  0.00  0.00    -0.049 NA
ATOM     14  O   LIG    1       22.073 -24.080   6.794  0.00  0.00    -0.242 OA
ATOM     15  C   LIG    1       25.354 -25.397   6.479  0.00  0.00    +0.033 A 
ATOM     16  C   LIG    1       26.490 -24.580   6.415  0.00  0.00    +0.003 A 
ATOM     17  N   LIG    1       22.787 -22.894   6.808  0.00  0.00    -0.049 NA
ATOM     18  C   LIG    1       26.427 -23.160   6.458  0.00  0.00    +0.007 A 
ENDBRANCH   2  10
BRANCH   1  19
ATOM     19  C   LIG    1       27.002 -20.223   8.361  0.00  0.00    +0.337 C 
ATOM     20  O   LIG    1       26.241 -20.247   9.301  0.00  0.00    -0.245 OA
BRANCH  19  22
ATOM     21  C   LIG    1       29.045 -21.416   8.534  0.00  0.00    +0.280 C 
ATOM     22  O   LIG    1       28.358 -20.168   8.455  0.00  0.00    -0.465 OA
ENDBRANCH  19  22
ENDBRANCH   1  19
BRANCH   3  23
ATOM     23  C   LIG    1       23.193 -20.262   5.080  0.00  0.00    +0.338 C 
ATOM     24  O   LIG    1       22.506 -21.196   4.721  0.00  0.00    -0.245 OA
BRANCH  23  25
ATOM     25  O   LIG    1       22.732 -19.035   5.422  0.00  0.00    -0.459 OA
BRANCH  25  26
ATOM     26  C   LIG    1       22.392 -18.122   4.366  0.00  0.00    +0.171 C 
ATOM     27  C   LIG    1       22.274 -16.718   4.938  0.00  0.00    +0.051 C 
ATOM     28  C   LIG    1       21.055 -18.601   3.817  0.00  0.00    +0.051 C 
ENDBRANCH  25  26
ENDBRANCH  23  25
ENDBRANCH   3  23
TORSDOF 6
ENDMDL
MODEL 6
REMARK VINA RESULT:      -5.8      6.947     10.425
REMARK  Name = *****
REMARK                            x       y       z     vdW  Elec       q    Type
REMARK                         _______ _______ _______ _____ _____    ______ ____
ROOT
ATOM      1  C   LIG    1       25.525 -31.755   8.737  0.00  0.00    +0.065 C 
ATOM      2  C   LIG    1       25.522 -30.238   8.981  0.00  0.00    +0.098 C 
ATOM      3  C   LIG    1       25.143 -29.448   7.721  0.00  0.00    +0.065 C 
ATOM      4  C   LIG    1       24.411 -30.053   6.755  0.00  0.00    +0.016 C 
ATOM      5  C   LIG    1       23.893 -29.369   5.514  0.00  0.00    +0.061 C 
ATOM      6  N   LIG    1       24.079 -31.395   6.893  0.00  0.00    -0.321 N 
ATOM      7  H   LIG    1       23.607 -31.828   6.100  0.00  0.00    +0.152 HD
ATOM      8  C   LIG    1       24.749 -32.268   7.750  0.00  0.00    +0.016 C 
ATOM      9  C   LIG    1       24.527 -33.727   7.433  0.00  0.00    +0.061 C 
ENDROOT
BRANCH   2  10
ATOM     10  C   LIG    1       24.603 -29.885  10.160  0.00  0.00    -0.004 A 
ATOM     11  C   LIG    1       23.228 -30.217  10.264  0.00  0.00    +0.138 A 
ATOM     12  C   LIG    1       22.417 -29.885  11.438  0.00  0.00    +0.135 A 
ATOM     13  N   LIG    1       21.181 -30.360  11.250  0.00  0.00    -0.049 NA
ATOM     14  O   LIG    1       21.195 -30.960  10.004  0.00  0.00    -0.242 OA
ATOM     15  C   LIG    1       22.924 -29.186  12.546  0.00  0.00    +0.033 A 
ATOM     16  C   LIG    1       24.277 -28.836  12.432  0.00  0.00    +0.003 A 
ATOM     17  N   LIG    1       22.433 -30.855   9.394  0.00  0.00    -0.049 NA
ATOM     18  C   LIG    1       25.071 -29.170  11.302  0.00  0.00    +0.007 A 
ENDBRANCH   2  10
BRANCH   1  19
ATOM     19  C   LIG    1       26.464 -32.582   9.562  0.00  0.00    +0.337 C 
ATOM     20  O   LIG    1       27.500 -33.078   9.184  0.00  0.00    -0.245 OA
BRANCH  19  22
ATOM     21  C   LIG    1       24.990 -33.596  11.120  0.00  0.00    +0.280 C 
ATOM     22  O   LIG    1       25.998 -32.626  10.839  0.00  0.00    -0.465 OA
ENDBRANCH  19  22
ENDBRANCH   1  19
BRANCH   3  23
ATOM     23  C   LIG    1       25.603 -28.030   7.610  0.00  0.00    +0.338 C 
ATOM     24  O   LIG    1       26.611 -27.574   8.111  0.00  0.00    -0.245 OA
BRANCH  23  25
ATOM     25  O   LIG    1       24.743 -27.347   6.817  0.00  0.00    -0.459 OA
BRANCH  25  26
ATOM     26  C   LIG    1       25.141 -26.048   6.350  0.00  0.00    +0.171 C 
ATOM     27  C   LIG    1       23.927 -25.132   6.326  0.00  0.00    +0.051 C 
ATOM     28  C   LIG    1       25.691 -26.261   4.947  0.00  0.00    +0.051 C 
ENDBRANCH  25  26
ENDBRANCH  23  25
ENDBRANCH   3  23
TORSDOF 6
ENDMDL
MODEL 7
REMARK VINA RESULT:      -5.8      9.647     11.719
REMARK  Name = *****
REMARK                            x       y       z     vdW  Elec       q    Type
REMARK                         _______ _______ _______ _____ _____    ______ ____
ROOT
ATOM      1  C   LIG    1       23.651 -30.782  11.345  0.00  0.00    +0.065 C 
ATOM      2  C   LIG    1       24.808 -29.987  10.720  0.00  0.00    +0.098 C 
ATOM      3  C   LIG    1       25.943 -29.731  11.720  0.00  0.00    +0.065 C 
ATOM      4  C   LIG    1       26.091 -30.560  12.781  0.00  0.00    +0.016 C 
ATOM      5  C   LIG    1       27.215 -30.481  13.785  0.00  0.00    +0.061 C 
ATOM      6  N   LIG    1       25.170 -31.582  12.979  0.00  0.00    -0.321 N 
ATOM      7  H   LIG    1       25.271 -32.121  13.838  0.00  0.00    +0.152 HD
ATOM      8  C   LIG    1       23.902 -31.595  12.400  0.00  0.00    +0.016 C 
ATOM      9  C   LIG    1       22.933 -32.538  13.073  0.00  0.00    +0.061 C 
ENDROOT
BRANCH   2  10
ATOM     10  C   LIG    1       25.324 -30.691   9.457  0.00  0.00    -0.004 A 
ATOM     11  C   LIG    1       24.852 -30.473   8.138  0.00  0.00    +0.138 A 
ATOM     12  C   LIG    1       25.418 -31.150   6.969  0.00  0.00    +0.135 A 
ATOM     13  N   LIG    1       24.789 -30.708   5.874  0.00  0.00    -0.049 NA
ATOM     14  O   LIG    1       23.850 -29.798   6.323  0.00  0.00    -0.242 OA
ATOM     15  C   LIG    1       26.456 -32.092   7.058  0.00  0.00    +0.033 A 
ATOM     16  C   LIG    1       26.907 -32.326   8.364  0.00  0.00    +0.003 A 
ATOM     17  N   LIG    1       23.872 -29.669   7.701  0.00  0.00    -0.049 NA
ATOM     18  C   LIG    1       26.371 -31.659   9.500  0.00  0.00    +0.007 A 
ENDBRANCH   2  10
BRANCH   1  19
ATOM     19  C   LIG    1       22.277 -30.543  10.795  0.00  0.00    +0.337 C 
ATOM     20  O   LIG    1       21.769 -31.123   9.864  0.00  0.00    -0.245 OA
BRANCH  19  22
ATOM     21  C   LIG    1       20.451 -30.015  12.215  0.00  0.00    +0.280 C 
ATOM     22  O   LIG    1       21.656 -29.610  11.567  0.00  0.00    -0.465 OA
ENDBRANCH  19  22
ENDBRANCH   1  19
BRANCH   3  23
ATOM     23  C   LIG    1       26.847 -28.565  11.481  0.00  0.00    +0.338 C 
ATOM     24  O   LIG    1       27.983 -28.628  11.058  0.00  0.00    -0.245 OA
BRANCH  23  25
ATOM     25  O   LIG    1       26.177 -27.421  11.761  0.00  0.00    -0.459 OA
BRANCH  25  26
ATOM     26  C   LIG    1       26.141 -26.977  13.127  0.00  0.00    +0.171 C 
ATOM     27  C   LIG    1       24.694 -26.752  13.541  0.00  0.00    +0.051 C 
ATOM     28  C   LIG    1       26.926 -25.673  13.161  0.00  0.00    +0.051 C 
ENDBRANCH  25  26
ENDBRANCH  23  25
ENDBRANCH   3  23
TORSDOF 6
ENDMDL
MODEL 8
REMARK VINA RESULT:      -5.7      7.644     11.332
REMARK  Name = *****
REMARK                            x       y       z     vdW  Elec       q    Type
REMARK                         _______ _______ _______ _____ _____    ______ ____
ROOT
ATOM      1  C   LIG    1       23.855 -31.243   9.898  0.00  0.00    +0.065 C 
ATOM      2  C   LIG    1       24.505 -30.519   8.708  0.00  0.00    +0.098 C 
ATOM      3  C   LIG    1       25.468 -29.412   9.159  0.00  0.00    +0.065 C 
ATOM      4  C   LIG    1       26.027 -29.481  10.391  0.00  0.00    +0.016 C 
ATOM      5  C   LIG    1       27.057 -28.516  10.923  0.00  0.00    +0.061 C 
ATOM      6  N   LIG    1       25.663 -30.514  11.246  0.00  0.00    -0.321 N 
ATOM      7  H   LIG    1       26.041 -30.472  12.192  0.00  0.00    +0.152 HD
ATOM      8  C   LIG    1       24.499 -31.266  11.090  0.00  0.00    +0.016 C 
ATOM      9  C   LIG    1       24.085 -32.016  12.334  0.00  0.00    +0.061 C 
ENDROOT
BRANCH   2  10
ATOM     10  C   LIG    1       25.205 -31.525   7.783  0.00  0.00    -0.004 A 
ATOM     11  C   LIG    1       24.602 -32.201   6.692  0.00  0.00    +0.138 A 
ATOM     12  C   LIG    1       25.340 -33.120   5.821  0.00  0.00    +0.135 A 
ATOM     13  N   LIG    1       24.509 -33.565   4.871  0.00  0.00    -0.049 NA
ATOM     14  O   LIG    1       23.290 -32.968   5.129  0.00  0.00    -0.242 OA
ATOM     15  C   LIG    1       26.696 -33.430   6.010  0.00  0.00    +0.033 A 
ATOM     16  C   LIG    1       27.286 -32.780   7.102  0.00  0.00    +0.003 A 
ATOM     17  N   LIG    1       23.338 -32.155   6.249  0.00  0.00    -0.049 NA
ATOM     18  C   LIG    1       26.578 -31.875   7.940  0.00  0.00    +0.007 A 
ENDBRANCH   2  10
BRANCH   1  19
ATOM     19  C   LIG    1       22.487 -31.818   9.687  0.00  0.00    +0.337 C 
ATOM     20  O   LIG    1       22.228 -32.973   9.440  0.00  0.00    -0.245 OA
BRANCH  19  22
ATOM     21  C   LIG    1       20.408 -31.198  10.647  0.00  0.00    +0.280 C 
ATOM     22  O   LIG    1       21.566 -30.839   9.895  0.00  0.00    -0.465 OA
ENDBRANCH  19  22
ENDBRANCH   1  19
BRANCH   3  23
ATOM     23  C   LIG    1       25.751 -28.291   8.211  0.00  0.00    +0.338 C 
ATOM     24  O   LIG    1       26.734 -27.580   8.232  0.00  0.00    -0.245 OA
BRANCH  23  25
ATOM     25  O   LIG    1       24.759 -28.231   7.290  0.00  0.00    -0.459 OA
BRANCH  25  26
ATOM     26  C   LIG    1       25.077 -27.716   5.987  0.00  0.00    +0.171 C 
ATOM     27  C   LIG    1       24.283 -26.440   5.747  0.00  0.00    +0.051 C 
ATOM     28  C   LIG    1       24.673 -28.802   5.000  0.00  0.00    +0.051 C 
ENDBRANCH  25  26
ENDBRANCH  23  25
ENDBRANCH   3  23
TORSDOF 6
ENDMDL
MODEL 9
REMARK VINA RESULT:      -5.5     10.074     12.443
REMARK  Name = *****
REMARK                            x       y       z     vdW  Elec       q    Type
REMARK                         _______ _______ _______ _____ _____    ______ ____
ROOT
ATOM      1  C   LIG    1       26.380 -29.404  11.981  0.00  0.00    +0.065 C 
ATOM      2  C   LIG    1       25.401 -30.482  11.488  0.00  0.00    +0.098 C 
ATOM      3  C   LIG    1       23.994 -30.296  12.069  0.00  0.00    +0.065 C 
ATOM      4  C   LIG    1       23.606 -29.068  12.488  0.00  0.00    +0.016 C 
ATOM      5  C   LIG    1       22.225 -28.726  12.990  0.00  0.00    +0.061 C 
ATOM      6  N   LIG    1       24.515 -28.017  12.447  0.00  0.00    -0.321 N 
ATOM      7  H   LIG    1       24.206 -27.136  12.856  0.00  0.00    +0.152 HD
ATOM      8  C   LIG    1       25.895 -28.199  12.369  0.00  0.00    +0.016 C 
ATOM      9  C   LIG    1       26.695 -26.982  12.770  0.00  0.00    +0.061 C 
ENDROOT
BRANCH   2  10
ATOM     10  C   LIG    1       25.372 -30.521   9.954  0.00  0.00    -0.004 A 
ATOM     11  C   LIG    1       26.140 -31.387   9.134  0.00  0.00    +0.138 A 
ATOM     12  C   LIG    1       26.033 -31.401   7.673  0.00  0.00    +0.135 A 
ATOM     13  N   LIG    1       26.853 -32.345   7.195  0.00  0.00    -0.049 NA
ATOM     14  O   LIG    1       27.468 -32.902   8.301  0.00  0.00    -0.242 OA
ATOM     15  C   LIG    1       25.183 -30.541   6.960  0.00  0.00    +0.033 A 
ATOM     16  C   LIG    1       24.441 -29.669   7.768  0.00  0.00    +0.003 A 
ATOM     17  N   LIG    1       27.052 -32.306   9.479  0.00  0.00    -0.049 NA
ATOM     18  C   LIG    1       24.530 -29.662   9.187  0.00  0.00    +0.007 A 
ENDBRANCH   2  10
BRANCH   1  19
ATOM     19  C   LIG    1       27.827 -29.783  12.082  0.00  0.00    +0.337 C 
ATOM     20  O   LIG    1       28.660 -29.660  11.214  0.00  0.00    -0.245 OA
BRANCH  19  22
ATOM     21  C   LIG    1       29.204 -29.663  14.010  0.00  0.00    +0.280 C 
ATOM     22  O   LIG    1       28.073 -30.225  13.345  0.00  0.00    -0.465 OA
ENDBRANCH  19  22
ENDBRANCH   1  19
BRANCH   3  23
ATOM     23  C   LIG    1       23.099 -31.491  12.151  0.00  0.00    +0.338 C 
ATOM     24  O   LIG    1       23.084 -32.300  13.056  0.00  0.00    -0.245 OA
BRANCH  23  25
ATOM     25  O   LIG    1       22.270 -31.497  11.080  0.00  0.00    -0.459 OA
BRANCH  25  26
ATOM     26  C   LIG    1       21.953 -32.763  10.478  0.00  0.00    +0.171 C 
ATOM     27  C   LIG    1       22.617 -32.847   9.112  0.00  0.00    +0.051 C 
ATOM     28  C   LIG    1       20.437 -32.794  10.350  0.00  0.00    +0.051 C 
ENDBRANCH  25  26
ENDBRANCH  23  25
ENDBRANCH   3  23
TORSDOF 6
ENDMDL
