MODEL 1
REMARK VINA RESULT:      -1.7      0.000      0.000
REMARK  Name = *****
REMARK                            x       y       z     vdW  Elec       q    Type
REMARK                         _______ _______ _______ _____ _____    ______ ____
ROOT
ATOM      1  N   LIG    1       23.850 -16.478   4.664  0.00  0.00    -0.297 NA
ATOM      2  C   LIG    1       22.514 -16.807   5.213  0.00  0.00    +0.100 C 
ATOM      3  C   LIG    1       21.565 -17.565   4.254  0.00  0.00    +0.100 C 
ATOM      4  N   LIG    1       22.128 -18.820   3.720  0.00  0.00    -0.299 NA
ATOM      5  C   LIG    1       23.404 -18.464   3.060  0.00  0.00    +0.100 C 
ATOM      6  C   LIG    1       24.391 -17.653   3.942  0.00  0.00    +0.100 C 
ENDROOT
BRANCH   1   7
ATOM      7  C   LIG    1       23.843 -15.238   3.850  0.00  0.00    +0.120 C 
BRANCH   7   8
ATOM      8  C   LIG    1       25.123 -14.976   2.969  0.00  0.00    +0.162 C 
BRANCH   8   9
ATOM      9  C   LIG    1       26.193 -14.296   3.816  0.00  0.00    -0.018 A 
ATOM     10  C   LIG    1       25.940 -13.980   5.163  0.00  0.00    +0.006 A 
ATOM     11  C   LIG    1       26.877 -13.286   5.922  0.00  0.00    +0.000 A 
ATOM     12  C   LIG    1       28.098 -12.931   5.356  0.00  0.00    +0.000 A 
ATOM     13  C   LIG    1       28.378 -13.268   4.031  0.00  0.00    +0.000 A 
ATOM     14  C   LIG    1       27.429 -13.943   3.260  0.00  0.00    +0.006 A 
ENDBRANCH   8   9
BRANCH   8  15
ATOM     15  O   LIG    1       24.823 -14.138   1.836  0.00  0.00    -0.371 OA
BRANCH  15  17
ATOM     16  C   LIG    1       23.968 -12.013   2.531  0.00  0.00    +0.034 C 
ATOM     17  C   LIG    1       25.179 -12.766   2.009  0.00  0.00    +0.157 C 
ENDBRANCH  15  17
ENDBRANCH   8  15
ENDBRANCH   7   8
ENDBRANCH   1   7
BRANCH   4  18
ATOM     18  C   LIG    1       22.328 -19.881   4.744  0.00  0.00    +0.095 C 
BRANCH  18  19
ATOM     19  C   LIG    1       23.643 -19.752   5.555  0.00  0.00    +0.071 C 
ATOM     20  C   LIG    1       23.406 -20.018   7.042  0.00  0.00    +0.017 C 
BRANCH  19  21
ATOM     21  C   LIG    1       24.724 -20.685   5.009  0.00  0.00    +0.167 C 
ATOM     22  O   LIG    1       24.497 -21.456   4.066  0.00  0.00    -0.292 OA
BRANCH  21  23
ATOM     23  C   LIG    1       26.108 -20.652   5.589  0.00  0.00    +0.018 A 
ATOM     24  C   LIG    1       26.558 -21.541   6.576  0.00  0.00    +0.011 A 
ATOM     25  C   LIG    1       27.873 -21.457   7.060  0.00  0.00    +0.001 A 
ATOM     26  C   LIG    1       28.752 -20.497   6.556  0.00  0.00    +0.000 A 
ATOM     27  C   LIG    1       28.322 -19.626   5.558  0.00  0.00    +0.001 A 
ATOM     28  C   LIG    1       27.016 -19.711   5.070  0.00  0.00    +0.011 A 
ENDBRANCH  21  23
ENDBRANCH  19  21
ENDBRANCH  18  19
ENDBRANCH   4  18
TORSDOF 9
ENDMDL
MODEL 2
REMARK VINA RESULT:      -0.4      1.693      3.702
REMARK  Name = *****
REMARK                            x       y       z     vdW  Elec       q    Type
REMARK                         _______ _______ _______ _____ _____    ______ ____
ROOT
ATOM      1  N   LIG    1       26.242 -16.171   3.820  0.00  0.00    -0.297 NA
ATOM      2  C   LIG    1       25.455 -17.419   3.697  0.00  0.00    +0.100 C 
ATOM      3  C   LIG    1       26.267 -18.693   3.365  0.00  0.00    +0.100 C 
ATOM      4  N   LIG    1       27.362 -18.971   4.316  0.00  0.00    -0.299 NA
ATOM      5  C   LIG    1       28.218 -17.764   4.338  0.00  0.00    +0.100 C 
ATOM      6  C   LIG    1       27.466 -16.434   4.612  0.00  0.00    +0.100 C 
ENDROOT
BRANCH   1   7
ATOM      7  C   LIG    1       26.513 -15.535   2.507  0.00  0.00    +0.120 C 
BRANCH   7   8
ATOM      8  C   LIG    1       26.276 -13.980   2.425  0.00  0.00    +0.162 C 
BRANCH   8   9
ATOM      9  C   LIG    1       27.113 -13.280   3.490  0.00  0.00    -0.018 A 
ATOM     10  C   LIG    1       28.381 -12.763   3.171  0.00  0.00    +0.006 A 
ATOM     11  C   LIG    1       29.188 -12.196   4.152  0.00  0.00    +0.000 A 
ATOM     12  C   LIG    1       28.723 -12.101   5.460  0.00  0.00    +0.000 A 
ATOM     13  C   LIG    1       27.453 -12.579   5.785  0.00  0.00    +0.000 A 
ATOM     14  C   LIG    1       26.650 -13.171   4.807  0.00  0.00    +0.006 A 
ENDBRANCH   8   9
BRANCH   8  15
ATOM     15  O   LIG    1       24.889 -13.645   2.628  0.00  0.00    -0.371 OA
BRANCH  15  17
ATOM     16  C   LIG    1       23.748 -11.667   3.345  0.00  0.00    +0.034 C 
ATOM     17  C   LIG    1       24.538 -12.322   2.225  0.00  0.00    +0.157 C 
ENDBRANCH  15  17
ENDBRANCH   8  15
ENDBRANCH   7   8
ENDBRANCH   1   7
BRANCH   4  18
ATOM     18  C   LIG    1       26.903 -19.333   5.683  0.00  0.00    +0.095 C 
BRANCH  18  19
ATOM     19  C   LIG    1       26.522 -20.826   5.859  0.00  0.00    +0.071 C 
ATOM     20  C   LIG    1       27.293 -21.463   7.016  0.00  0.00    +0.017 C 
BRANCH  19  21
ATOM     21  C   LIG    1       25.016 -20.993   6.064  0.00  0.00    +0.167 C 
ATOM     22  O   LIG    1       24.558 -21.569   7.061  0.00  0.00    -0.292 OA
BRANCH  21  23
ATOM     23  C   LIG    1       24.055 -20.416   5.066  0.00  0.00    +0.018 A 
ATOM     24  C   LIG    1       24.009 -20.803   3.718  0.00  0.00    +0.011 A 
ATOM     25  C   LIG    1       23.071 -20.227   2.847  0.00  0.00    +0.001 A 
ATOM     26  C   LIG    1       22.163 -19.276   3.314  0.00  0.00    +0.000 A 
ATOM     27  C   LIG    1       22.183 -18.905   4.656  0.00  0.00    +0.001 A 
ATOM     28  C   LIG    1       23.112 -19.480   5.526  0.00  0.00    +0.011 A 
ENDBRANCH  21  23
ENDBRANCH  19  21
ENDBRANCH  18  19
ENDBRANCH   4  18
TORSDOF 9
ENDMDL
MODEL 3
REMARK VINA RESULT:      -0.4      1.152      6.779
REMARK  Name = *****
REMARK                            x       y       z     vdW  Elec       q    Type
REMARK                         _______ _______ _______ _____ _____    ______ ____
ROOT
ATOM      1  N   LIG    1       22.632 -18.142   4.311  0.00  0.00    -0.297 NA
ATOM      2  C   LIG    1       21.719 -16.993   4.511  0.00  0.00    +0.100 C 
ATOM      3  C   LIG    1       22.338 -15.759   5.210  0.00  0.00    +0.100 C 
ATOM      4  N   LIG    1       23.544 -15.234   4.542  0.00  0.00    -0.299 NA
ATOM      5  C   LIG    1       24.505 -16.358   4.459  0.00  0.00    +0.100 C 
ATOM      6  C   LIG    1       23.940 -17.653   3.817  0.00  0.00    +0.100 C 
ENDROOT
BRANCH   1   7
ATOM      7  C   LIG    1       22.739 -19.002   5.515  0.00  0.00    +0.120 C 
BRANCH   7   8
ATOM      8  C   LIG    1       23.314 -20.451   5.286  0.00  0.00    +0.162 C 
BRANCH   8   9
ATOM      9  C   LIG    1       24.781 -20.489   5.703  0.00  0.00    -0.018 A 
ATOM     10  C   LIG    1       25.730 -19.695   5.036  0.00  0.00    +0.006 A 
ATOM     11  C   LIG    1       27.083 -19.782   5.351  0.00  0.00    +0.000 A 
ATOM     12  C   LIG    1       27.501 -20.637   6.367  0.00  0.00    +0.000 A 
ATOM     13  C   LIG    1       26.567 -21.406   7.061  0.00  0.00    +0.000 A 
ATOM     14  C   LIG    1       25.212 -21.338   6.730  0.00  0.00    +0.006 A 
ENDBRANCH   8   9
BRANCH   8  15
ATOM     15  O   LIG    1       23.213 -20.848   3.904  0.00  0.00    -0.371 OA
BRANCH  15  17
ATOM     16  C   LIG    1       20.988 -21.253   4.688  0.00  0.00    +0.034 C 
ATOM     17  C   LIG    1       21.982 -21.487   3.564  0.00  0.00    +0.157 C 
ENDBRANCH  15  17
ENDBRANCH   8  15
ENDBRANCH   7   8
ENDBRANCH   1   7
BRANCH   4  18
ATOM     18  C   LIG    1       23.289 -14.643   3.201  0.00  0.00    +0.095 C 
BRANCH  18  19
ATOM     19  C   LIG    1       24.199 -13.438   2.846  0.00  0.00    +0.071 C 
ATOM     20  C   LIG    1       24.047 -12.309   3.865  0.00  0.00    +0.017 C 
BRANCH  19  21
ATOM     21  C   LIG    1       25.662 -13.865   2.733  0.00  0.00    +0.167 C 
ATOM     22  O   LIG    1       26.054 -14.596   1.812  0.00  0.00    -0.292 OA
BRANCH  21  23
ATOM     23  C   LIG    1       26.670 -13.363   3.726  0.00  0.00    +0.018 A 
ATOM     24  C   LIG    1       26.520 -13.490   5.115  0.00  0.00    +0.011 A 
ATOM     25  C   LIG    1       27.513 -13.008   5.982  0.00  0.00    +0.001 A 
ATOM     26  C   LIG    1       28.667 -12.410   5.473  0.00  0.00    +0.000 A 
ATOM     27  C   LIG    1       28.837 -12.303   4.095  0.00  0.00    +0.001 A 
ATOM     28  C   LIG    1       27.853 -12.787   3.230  0.00  0.00    +0.011 A 
ENDBRANCH  21  23
ENDBRANCH  19  21
ENDBRANCH  18  19
ENDBRANCH   4  18
TORSDOF 9
ENDMDL
MODEL 4
REMARK VINA RESULT:       0.3      1.698      6.866
REMARK  Name = *****
REMARK                            x       y       z     vdW  Elec       q    Type
REMARK                         _______ _______ _______ _____ _____    ______ ____
ROOT
ATOM      1  N   LIG    1       22.110 -16.754   4.600  0.00  0.00    -0.297 NA
ATOM      2  C   LIG    1       21.976 -15.384   5.146  0.00  0.00    +0.100 C 
ATOM      3  C   LIG    1       23.305 -14.648   5.442  0.00  0.00    +0.100 C 
ATOM      4  N   LIG    1       24.212 -14.558   4.282  0.00  0.00    -0.299 NA
ATOM      5  C   LIG    1       24.444 -15.945   3.819  0.00  0.00    +0.100 C 
ATOM      6  C   LIG    1       23.156 -16.768   3.551  0.00  0.00    +0.100 C 
ENDROOT
BRANCH   1   7
ATOM      7  C   LIG    1       22.322 -17.772   5.659  0.00  0.00    +0.120 C 
BRANCH   7   8
ATOM      8  C   LIG    1       22.032 -19.267   5.254  0.00  0.00    +0.162 C 
BRANCH   8   9
ATOM      9  C   LIG    1       23.286 -20.106   5.473  0.00  0.00    -0.018 A 
ATOM     10  C   LIG    1       23.519 -20.725   6.714  0.00  0.00    +0.006 A 
ATOM     11  C   LIG    1       24.698 -21.424   6.953  0.00  0.00    +0.000 A 
ATOM     12  C   LIG    1       25.645 -21.549   5.941  0.00  0.00    +0.000 A 
ATOM     13  C   LIG    1       25.413 -20.969   4.693  0.00  0.00    +0.000 A 
ATOM     14  C   LIG    1       24.241 -20.246   4.458  0.00  0.00    +0.006 A 
ENDBRANCH   8   9
BRANCH   8  15
ATOM     15  O   LIG    1       21.635 -19.374   3.873  0.00  0.00    -0.371 OA
BRANCH  15  17
ATOM     16  C   LIG    1       19.724 -18.335   2.874  0.00  0.00    +0.034 C 
ATOM     17  C   LIG    1       20.230 -19.523   3.674  0.00  0.00    +0.157 C 
ENDBRANCH  15  17
ENDBRANCH   8  15
ENDBRANCH   7   8
ENDBRANCH   1   7
BRANCH   4  18
ATOM     18  C   LIG    1       23.707 -13.699   3.178  0.00  0.00    +0.095 C 
BRANCH  18  19
ATOM     19  C   LIG    1       24.804 -13.180   2.213  0.00  0.00    +0.071 C 
ATOM     20  C   LIG    1       24.922 -11.657   2.273  0.00  0.00    +0.017 C 
BRANCH  19  21
ATOM     21  C   LIG    1       26.154 -13.834   2.508  0.00  0.00    +0.167 C 
ATOM     22  O   LIG    1       26.588 -14.764   1.812  0.00  0.00    -0.292 OA
BRANCH  21  23
ATOM     23  C   LIG    1       27.005 -13.326   3.635  0.00  0.00    +0.018 A 
ATOM     24  C   LIG    1       26.726 -13.568   4.988  0.00  0.00    +0.011 A 
ATOM     25  C   LIG    1       27.578 -13.070   5.987  0.00  0.00    +0.001 A 
ATOM     26  C   LIG    1       28.719 -12.342   5.646  0.00  0.00    +0.000 A 
ATOM     27  C   LIG    1       29.018 -12.119   4.304  0.00  0.00    +0.001 A 
ATOM     28  C   LIG    1       28.175 -12.617   3.308  0.00  0.00    +0.011 A 
ENDBRANCH  21  23
ENDBRANCH  19  21
ENDBRANCH  18  19
ENDBRANCH   4  18
TORSDOF 9
ENDMDL
MODEL 5
REMARK VINA RESULT:       0.4      1.879      4.416
REMARK  Name = *****
REMARK                            x       y       z     vdW  Elec       q    Type
REMARK                         _______ _______ _______ _____ _____    ______ ____
ROOT
ATOM      1  N   LIG    1       25.590 -17.301   3.361  0.00  0.00    -0.297 NA
ATOM      2  C   LIG    1       25.430 -18.306   2.284  0.00  0.00    +0.100 C 
ATOM      3  C   LIG    1       26.299 -19.578   2.421  0.00  0.00    +0.100 C 
ATOM      4  N   LIG    1       26.120 -20.292   3.700  0.00  0.00    -0.299 NA
ATOM      5  C   LIG    1       26.407 -19.313   4.773  0.00  0.00    +0.100 C 
ATOM      6  C   LIG    1       25.611 -17.984   4.675  0.00  0.00    +0.100 C 
ENDROOT
BRANCH   1   7
ATOM      7  C   LIG    1       26.754 -16.409   3.140  0.00  0.00    +0.120 C 
BRANCH   7   8
ATOM      8  C   LIG    1       26.835 -15.131   4.058  0.00  0.00    +0.162 C 
BRANCH   8   9
ATOM      9  C   LIG    1       25.798 -14.110   3.602  0.00  0.00    -0.018 A 
ATOM     10  C   LIG    1       25.812 -13.622   2.284  0.00  0.00    +0.006 A 
ATOM     11  C   LIG    1       24.925 -12.630   1.879  0.00  0.00    +0.000 A 
ATOM     12  C   LIG    1       23.982 -12.139   2.777  0.00  0.00    +0.000 A 
ATOM     13  C   LIG    1       23.933 -12.637   4.080  0.00  0.00    +0.000 A 
ATOM     14  C   LIG    1       24.839 -13.615   4.495  0.00  0.00    +0.006 A 
ENDBRANCH   8   9
BRANCH   8  15
ATOM     15  O   LIG    1       28.141 -14.524   4.005  0.00  0.00    -0.371 OA
BRANCH  15  17
ATOM     16  C   LIG    1       29.073 -12.322   3.902  0.00  0.00    +0.034 C 
ATOM     17  C   LIG    1       28.248 -13.295   4.724  0.00  0.00    +0.157 C 
ENDBRANCH  15  17
ENDBRANCH   8  15
ENDBRANCH   7   8
ENDBRANCH   1   7
BRANCH   4  18
ATOM     18  C   LIG    1       24.776 -20.904   3.873  0.00  0.00    +0.095 C 
BRANCH  18  19
ATOM     19  C   LIG    1       24.533 -21.537   5.269  0.00  0.00    +0.071 C 
ATOM     20  C   LIG    1       25.712 -21.280   6.207  0.00  0.00    +0.017 C 
BRANCH  19  21
ATOM     21  C   LIG    1       23.233 -21.026   5.889  0.00  0.00    +0.167 C 
ATOM     22  O   LIG    1       22.929 -21.287   7.062  0.00  0.00    -0.292 OA
BRANCH  21  23
ATOM     23  C   LIG    1       22.311 -20.153   5.088  0.00  0.00    +0.018 A 
ATOM     24  C   LIG    1       21.180 -20.633   4.412  0.00  0.00    +0.011 A 
ATOM     25  C   LIG    1       20.356 -19.752   3.694  0.00  0.00    +0.001 A 
ATOM     26  C   LIG    1       20.644 -18.387   3.656  0.00  0.00    +0.000 A 
ATOM     27  C   LIG    1       21.750 -17.897   4.346  0.00  0.00    +0.001 A 
ATOM     28  C   LIG    1       22.568 -18.771   5.066  0.00  0.00    +0.011 A 
ENDBRANCH  21  23
ENDBRANCH  19  21
ENDBRANCH  18  19
ENDBRANCH   4  18
TORSDOF 9
ENDMDL
MODEL 6
REMARK VINA RESULT:       1.0      1.914      7.604
REMARK  Name = *****
REMARK                            x       y       z     vdW  Elec       q    Type
REMARK                         _______ _______ _______ _____ _____    ______ ____
ROOT
ATOM      1  N   LIG    1       26.752 -18.301   3.860  0.00  0.00    -0.297 NA
ATOM      2  C   LIG    1       25.359 -17.941   3.505  0.00  0.00    +0.100 C 
ATOM      3  C   LIG    1       24.844 -16.604   4.088  0.00  0.00    +0.100 C 
ATOM      4  N   LIG    1       25.686 -15.439   3.751  0.00  0.00    -0.299 NA
ATOM      5  C   LIG    1       27.052 -15.754   4.225  0.00  0.00    +0.100 C 
ATOM      6  C   LIG    1       27.620 -17.109   3.725  0.00  0.00    +0.100 C 
ENDROOT
BRANCH   1   7
ATOM      7  C   LIG    1       26.851 -18.956   5.187  0.00  0.00    +0.120 C 
BRANCH   7   8
ATOM      8  C   LIG    1       26.639 -20.518   5.209  0.00  0.00    +0.162 C 
BRANCH   8   9
ATOM      9  C   LIG    1       25.156 -20.828   5.377  0.00  0.00    -0.018 A 
ATOM     10  C   LIG    1       24.339 -21.026   4.249  0.00  0.00    +0.006 A 
ATOM     11  C   LIG    1       22.969 -21.228   4.386  0.00  0.00    +0.000 A 
ATOM     12  C   LIG    1       22.402 -21.275   5.656  0.00  0.00    +0.000 A 
ATOM     13  C   LIG    1       23.205 -21.114   6.786  0.00  0.00    +0.000 A 
ATOM     14  C   LIG    1       24.576 -20.887   6.650  0.00  0.00    +0.006 A 
ENDBRANCH   8   9
BRANCH   8  15
ATOM     15  O   LIG    1       27.370 -21.135   6.287  0.00  0.00    -0.371 OA
BRANCH  15  17
ATOM     16  C   LIG    1       29.036 -19.601   7.062  0.00  0.00    +0.034 C 
ATOM     17  C   LIG    1       28.773 -20.873   6.274  0.00  0.00    +0.157 C 
ENDBRANCH  15  17
ENDBRANCH   8  15
ENDBRANCH   7   8
ENDBRANCH   1   7
BRANCH   4  18
ATOM     18  C   LIG    1       25.683 -15.083   2.307  0.00  0.00    +0.095 C 
BRANCH  18  19
ATOM     19  C   LIG    1       24.807 -13.853   1.950  0.00  0.00    +0.071 C 
ATOM     20  C   LIG    1       23.398 -13.990   2.525  0.00  0.00    +0.017 C 
BRANCH  19  21
ATOM     21  C   LIG    1       25.457 -12.554   2.426  0.00  0.00    +0.167 C 
ATOM     22  O   LIG    1       25.059 -11.449   2.031  0.00  0.00    -0.292 OA
BRANCH  21  23
ATOM     23  C   LIG    1       26.577 -12.597   3.424  0.00  0.00    +0.018 A 
ATOM     24  C   LIG    1       27.929 -12.456   3.081  0.00  0.00    +0.011 A 
ATOM     25  C   LIG    1       28.921 -12.493   4.074  0.00  0.00    +0.001 A 
ATOM     26  C   LIG    1       28.572 -12.654   5.415  0.00  0.00    +0.000 A 
ATOM     27  C   LIG    1       27.230 -12.769   5.770  0.00  0.00    +0.001 A 
ATOM     28  C   LIG    1       26.241 -12.727   4.784  0.00  0.00    +0.011 A 
ENDBRANCH  21  23
ENDBRANCH  19  21
ENDBRANCH  18  19
ENDBRANCH   4  18
TORSDOF 9
ENDMDL
