MODEL 1
REMARK VINA RESULT:      -4.5      0.000      0.000
REMARK  Name = *****
REMARK                            x       y       z     vdW  Elec       q    Type
REMARK                         _______ _______ _______ _____ _____    ______ ____
ROOT
ATOM      1  CB  ALA A  1       29.343 -21.076   7.659  0.00  0.00    +0.036 C 
ATOM      2  CA  ALA A  1       30.601 -20.620   8.384  0.00  0.00    +0.158 C 
ENDROOT
BRANCH   2   3
ATOM      3  N   ALA A  1       31.568 -20.068   7.418  0.00  0.00    -0.319 NA
ATOM      4  H1  ALA A  1       31.572 -19.050   7.411  0.00  0.00    +0.119 HD
ATOM      5  H2  ALA A  1       32.501 -20.466   7.470  0.00  0.00    +0.119 HD
ENDBRANCH   2   3
BRANCH   2   6
ATOM      6  C   ALA A  1       31.185 -21.796   9.183  0.00  0.00    +0.321 C 
ATOM      7  O   ALA A  1       30.773 -22.158  10.272  0.00  0.00    -0.249 OA
BRANCH   6   8
ATOM      8  OXT ALA A  1       32.187 -22.441   8.536  0.00  0.00    -0.479 OA
ATOM      9  HXT ALA A  1       32.761 -21.800   8.077  0.00  0.00    +0.295 HD
ENDBRANCH   6   8
ENDBRANCH   2   6
TORSDOF 3
ENDMDL
MODEL 2
REMARK VINA RESULT:      -4.4      3.757      4.145
REMARK  Name = *****
REMARK                            x       y       z     vdW  Elec       q    Type
REMARK                         _______ _______ _______ _____ _____    ______ ____
ROOT
ATOM      1  CB  ALA A  1       30.722 -16.826  10.250  0.00  0.00    +0.036 C 
ATOM      2  CA  ALA A  1       32.032 -17.257   9.605  0.00  0.00    +0.158 C 
ENDROOT
BRANCH   2   3
ATOM      3  N   ALA A  1       32.648 -16.117   8.901  0.00  0.00    -0.319 NA
ATOM      4  H1  ALA A  1       32.496 -15.234   9.384  0.00  0.00    +0.119 HD
ATOM      5  H2  ALA A  1       33.615 -16.255   8.625  0.00  0.00    +0.119 HD
ENDBRANCH   2   3
BRANCH   2   6
ATOM      6  C   ALA A  1       31.772 -18.447   8.668  0.00  0.00    +0.321 C 
ATOM      7  O   ALA A  1       31.363 -18.343   7.524  0.00  0.00    -0.249 OA
BRANCH   6   8
ATOM      8  OXT ALA A  1       32.089 -19.644   9.219  0.00  0.00    -0.479 OA
ATOM      9  HXT ALA A  1       32.392 -20.265   8.531  0.00  0.00    +0.295 HD
ENDBRANCH   6   8
ENDBRANCH   2   6
TORSDOF 3
ENDMDL
MODEL 3
REMARK VINA RESULT:      -4.4      4.148      4.362
REMARK  Name = *****
REMARK                            x       y       z     vdW  Elec       q    Type
REMARK                         _______ _______ _______ _____ _____    ______ ____
ROOT
ATOM      1  CB  ALA A  1       30.135 -18.052   8.969  0.00  0.00    +0.036 C 
ATOM      2  CA  ALA A  1       31.629 -18.268   8.775  0.00  0.00    +0.158 C 
ENDROOT
BRANCH   2   3
ATOM      3  N   ALA A  1       32.008 -19.617   9.234  0.00  0.00    -0.319 NA
ATOM      4  H1  ALA A  1       32.930 -19.636   9.664  0.00  0.00    +0.119 HD
ATOM      5  H2  ALA A  1       31.304 -20.095   9.787  0.00  0.00    +0.119 HD
ENDBRANCH   2   3
BRANCH   2   6
ATOM      6  C   ALA A  1       32.404 -17.165   9.512  0.00  0.00    +0.321 C 
ATOM      7  O   ALA A  1       32.822 -17.264  10.654  0.00  0.00    -0.249 OA
BRANCH   6   8
ATOM      8  OXT ALA A  1       32.629 -16.066   8.751  0.00  0.00    -0.479 OA
ATOM      9  HXT ALA A  1       32.211 -16.167   7.876  0.00  0.00    +0.295 HD
ENDBRANCH   6   8
ENDBRANCH   2   6
TORSDOF 3
ENDMDL
MODEL 4
REMARK VINA RESULT:      -4.2      3.144      3.312
REMARK  Name = *****
REMARK                            x       y       z     vdW  Elec       q    Type
REMARK                         _______ _______ _______ _____ _____    ______ ____
ROOT
ATOM      1  CB  ALA A  1       29.962 -18.657   7.105  0.00  0.00    +0.036 C 
ATOM      2  CA  ALA A  1       31.366 -19.112   7.478  0.00  0.00    +0.158 C 
ENDROOT
BRANCH   2   3
ATOM      3  N   ALA A  1       31.374 -20.562   7.741  0.00  0.00    -0.319 NA
ATOM      4  H1  ALA A  1       30.574 -20.861   8.294  0.00  0.00    +0.119 HD
ATOM      5  H2  ALA A  1       31.530 -21.145   6.924  0.00  0.00    +0.119 HD
ENDBRANCH   2   3
BRANCH   2   6
ATOM      6  C   ALA A  1       31.861 -18.300   8.685  0.00  0.00    +0.321 C 
ATOM      7  O   ALA A  1       31.904 -18.725   9.828  0.00  0.00    -0.249 OA
BRANCH   6   8
ATOM      8  OXT ALA A  1       32.298 -17.059   8.357  0.00  0.00    -0.479 OA
ATOM      9  HXT ALA A  1       33.272 -17.029   8.370  0.00  0.00    +0.295 HD
ENDBRANCH   6   8
ENDBRANCH   2   6
TORSDOF 3
ENDMDL
MODEL 5
REMARK VINA RESULT:      -4.0      2.649      2.968
REMARK  Name = *****
REMARK                            x       y       z     vdW  Elec       q    Type
REMARK                         _______ _______ _______ _____ _____    ______ ____
ROOT
ATOM      1  CB  ALA A  1       30.149 -17.675   9.521  0.00  0.00    +0.036 C 
ATOM      2  CA  ALA A  1       30.078 -18.666   8.368  0.00  0.00    +0.158 C 
ENDROOT
BRANCH   2   3
ATOM      3  N   ALA A  1       28.921 -19.562   8.544  0.00  0.00    -0.319 NA
ATOM      4  H1  ALA A  1       28.119 -19.275   7.986  0.00  0.00    +0.119 HD
ATOM      5  H2  ALA A  1       29.128 -20.552   8.457  0.00  0.00    +0.119 HD
ENDBRANCH   2   3
BRANCH   2   6
ATOM      6  C   ALA A  1       31.403 -19.439   8.278  0.00  0.00    +0.321 C 
ATOM      7  O   ALA A  1       32.091 -19.738   9.240  0.00  0.00    -0.249 OA
BRANCH   6   8
ATOM      8  OXT ALA A  1       31.724 -19.810   7.014  0.00  0.00    -0.479 OA
ATOM      9  HXT ALA A  1       32.554 -19.381   6.735  0.00  0.00    +0.295 HD
ENDBRANCH   6   8
ENDBRANCH   2   6
TORSDOF 3
ENDMDL
MODEL 6
REMARK VINA RESULT:      -4.0      2.819      3.004
REMARK  Name = *****
REMARK                            x       y       z     vdW  Elec       q    Type
REMARK                         _______ _______ _______ _____ _____    ______ ____
ROOT
ATOM      1  CB  ALA A  1       29.850 -20.357   7.781  0.00  0.00    +0.036 C 
ATOM      2  CA  ALA A  1       30.245 -18.888   7.739  0.00  0.00    +0.158 C 
ENDROOT
BRANCH   2   3
ATOM      3  N   ALA A  1       30.283 -18.414   6.343  0.00  0.00    -0.319 NA
ATOM      4  H1  ALA A  1       30.923 -18.956   5.767  0.00  0.00    +0.119 HD
ATOM      5  H2  ALA A  1       29.374 -18.285   5.909  0.00  0.00    +0.119 HD
ENDBRANCH   2   3
BRANCH   2   6
ATOM      6  C   ALA A  1       31.593 -18.701   8.452  0.00  0.00    +0.321 C 
ATOM      7  O   ALA A  1       32.092 -19.522   9.203  0.00  0.00    -0.249 OA
BRANCH   6   8
ATOM      8  OXT ALA A  1       32.216 -17.540   8.131  0.00  0.00    -0.479 OA
ATOM      9  HXT ALA A  1       33.177 -17.620   8.274  0.00  0.00    +0.295 HD
ENDBRANCH   6   8
ENDBRANCH   2   6
TORSDOF 3
ENDMDL
MODEL 7
REMARK VINA RESULT:      -4.0      3.426      3.864
REMARK  Name = *****
REMARK                            x       y       z     vdW  Elec       q    Type
REMARK                         _______ _______ _______ _____ _____    ______ ____
ROOT
ATOM      1  CB  ALA A  1       29.960 -18.869   7.994  0.00  0.00    +0.036 C 
ATOM      2  CA  ALA A  1       31.134 -18.434   8.860  0.00  0.00    +0.158 C 
ENDROOT
BRANCH   2   3
ATOM      3  N   ALA A  1       31.960 -19.602   9.216  0.00  0.00    -0.319 NA
ATOM      4  H1  ALA A  1       31.981 -20.302   8.478  0.00  0.00    +0.119 HD
ATOM      5  H2  ALA A  1       32.883 -19.380   9.577  0.00  0.00    +0.119 HD
ENDBRANCH   2   3
BRANCH   2   6
ATOM      6  C   ALA A  1       30.606 -17.696  10.101  0.00  0.00    +0.321 C 
ATOM      7  O   ALA A  1       30.165 -16.559  10.087  0.00  0.00    -0.249 OA
BRANCH   6   8
ATOM      8  OXT ALA A  1       30.630 -18.451  11.226  0.00  0.00    -0.479 OA
ATOM      9  HXT ALA A  1       30.678 -17.881  12.016  0.00  0.00    +0.295 HD
ENDBRANCH   6   8
ENDBRANCH   2   6
TORSDOF 3
ENDMDL
MODEL 8
REMARK VINA RESULT:      -4.0      1.970      2.113
REMARK  Name = *****
REMARK                            x       y       z     vdW  Elec       q    Type
REMARK                         _______ _______ _______ _____ _____    ______ ____
ROOT
ATOM      1  CB  ALA A  1       30.871 -19.327   6.893  0.00  0.00    +0.036 C 
ATOM      2  CA  ALA A  1       30.430 -20.409   7.868  0.00  0.00    +0.158 C 
ENDROOT
BRANCH   2   3
ATOM      3  N   ALA A  1       29.133 -20.049   8.470  0.00  0.00    -0.319 NA
ATOM      4  H1  ALA A  1       29.000 -20.470   9.387  0.00  0.00    +0.119 HD
ATOM      5  H2  ALA A  1       28.914 -19.057   8.454  0.00  0.00    +0.119 HD
ENDBRANCH   2   3
BRANCH   2   6
ATOM      6  C   ALA A  1       31.524 -20.619   8.927  0.00  0.00    +0.321 C 
ATOM      7  O   ALA A  1       31.889 -21.710   9.331  0.00  0.00    -0.249 OA
BRANCH   6   8
ATOM      8  OXT ALA A  1       32.092 -19.462   9.349  0.00  0.00    -0.479 OA
ATOM      9  HXT ALA A  1       31.998 -19.370  10.315  0.00  0.00    +0.295 HD
ENDBRANCH   6   8
ENDBRANCH   2   6
TORSDOF 3
ENDMDL
MODEL 9
REMARK VINA RESULT:      -4.0      1.865      2.119
REMARK  Name = *****
REMARK                            x       y       z     vdW  Elec       q    Type
REMARK                         _______ _______ _______ _____ _____    ______ ____
ROOT
ATOM      1  CB  ALA A  1       30.421 -19.221   6.617  0.00  0.00    +0.036 C 
ATOM      2  CA  ALA A  1       30.806 -18.990   8.071  0.00  0.00    +0.158 C 
ENDROOT
BRANCH   2   3
ATOM      3  N   ALA A  1       31.933 -18.044   8.151  0.00  0.00    -0.319 NA
ATOM      4  H1  ALA A  1       31.625 -17.084   8.289  0.00  0.00    +0.119 HD
ATOM      5  H2  ALA A  1       32.677 -18.315   8.787  0.00  0.00    +0.119 HD
ENDBRANCH   2   3
BRANCH   2   6
ATOM      6  C   ALA A  1       31.131 -20.338   8.733  0.00  0.00    +0.321 C 
ATOM      7  O   ALA A  1       32.194 -20.601   9.270  0.00  0.00    -0.249 OA
BRANCH   6   8
ATOM      8  OXT ALA A  1       30.095 -21.213   8.710  0.00  0.00    -0.479 OA
ATOM      9  HXT ALA A  1       30.334 -22.008   8.199  0.00  0.00    +0.295 HD
ENDBRANCH   6   8
ENDBRANCH   2   6
TORSDOF 3
ENDMDL
