MODEL 1
REMARK VINA RESULT:      39.8      0.000      0.000
REMARK  Name = *****
REMARK                            x       y       z     vdW  Elec       q    Type
REMARK                         _______ _______ _______ _____ _____    ______ ____
ROOT
ATOM      1  C   LIG    1       27.219 -19.194   5.608  0.00  0.00    +0.107 C 
ENDROOT
BRANCH   1   2
ATOM      2  N   LIG    1       25.900 -19.220   6.307  0.00  0.00    -0.308 N 
ATOM      3  H   LIG    1       25.672 -18.440   6.913  0.00  0.00    +0.149 HD
ATOM      4  C   LIG    1       24.996 -20.270   6.142  0.00  0.00    +0.234 C 
ATOM      5  O   LIG    1       25.343 -21.301   5.565  0.00  0.00    -0.274 OA
BRANCH   4   6
ATOM      6  C   LIG    1       23.627 -20.188   6.911  0.00  0.00    +0.168 C 
BRANCH   6   7
ATOM      7  N   LIG    1       23.109 -18.802   6.946  0.00  0.00    -0.298 N 
ATOM      8  H   LIG    1       23.095 -18.292   7.818  0.00  0.00    +0.150 HD
ATOM      9  C   LIG    1       22.714 -18.097   5.813  0.00  0.00    +0.263 C 
ATOM     10  O   LIG    1       22.735 -18.518   4.686  0.00  0.00    -0.269 OA
BRANCH   9  11
ATOM     11  C   LIG    1       22.277 -16.690   6.060  0.00  0.00    +0.126 A 
ATOM     12  N   LIG    1       23.176 -15.710   5.783  0.00  0.00    -0.242 NA
ATOM     13  C   LIG    1       22.799 -14.447   6.049  0.00  0.00    +0.072 A 
ATOM     14  C   LIG    1       21.501 -14.119   6.508  0.00  0.00    +0.000 A 
ATOM     15  C   LIG    1       21.130 -12.779   6.700  0.00  0.00    +0.010 A 
ATOM     16  C   LIG    1       22.052 -11.760   6.484  0.00  0.00    +0.001 A 
ATOM     17  C   LIG    1       23.350 -12.078   6.097  0.00  0.00    +0.002 A 
ATOM     18  C   LIG    1       20.604 -15.158   6.772  0.00  0.00    +0.012 A 
ATOM     19  C   LIG    1       23.708 -13.412   5.880  0.00  0.00    +0.028 A 
ATOM     20  C   LIG    1       21.001 -16.471   6.563  0.00  0.00    +0.034 A 
ENDBRANCH   9  11
ENDBRANCH   6   7
BRANCH   6  21
ATOM     21  C   LIG    1       22.577 -21.164   6.343  0.00  0.00    +0.127 C 
BRANCH  21  22
ATOM     22  C   LIG    1       21.994 -20.903   4.977  0.00  0.00    +0.213 C 
ATOM     23  O   LIG    1       22.638 -21.057   3.940  0.00  0.00    -0.276 OA
ATOM     24  N   LIG    1       20.768 -20.314   4.931  0.00  0.00    -0.329 N 
ATOM     25  H   LIG    1       20.409 -20.116   4.006  0.00  0.00    +0.145 HD
ATOM     26  H   LIG    1       20.137 -20.260   5.716  0.00  0.00    +0.145 HD
ENDBRANCH  21  22
ENDBRANCH   6  21
ENDBRANCH   4   6
ENDBRANCH   1   2
BRANCH   1  27
ATOM     27  C   LIG    1       27.877 -17.735   5.525  0.00  0.00    +0.149 C 
BRANCH  27  28
ATOM     28  O   LIG    1       29.049 -17.697   6.354  0.00  0.00    -0.389 OA
ATOM     29  H   LIG    1       29.250 -18.609   6.631  0.00  0.00    +0.210 HD
ENDBRANCH  27  28
BRANCH  27  30
ATOM     30  C   LIG    1       28.240 -17.247   4.070  0.00  0.00    +0.118 C 
BRANCH  30  32
ATOM     31  C   LIG    1       26.496 -15.471   4.421  0.00  0.00    +0.143 C 
ATOM     32  N   LIG    1       27.525 -16.059   3.495  0.00  0.00    -0.289 NA
ATOM     33  C   LIG    1       28.365 -14.970   2.963  0.00  0.00    +0.089 C 
ATOM     34  C   LIG    1       29.188 -14.188   4.019  0.00  0.00    +0.006 C 
ATOM     35  C   LIG    1       28.593 -14.296   5.438  0.00  0.00    -0.005 C 
ATOM     36  C   LIG    1       29.097 -13.183   6.365  0.00  0.00    +0.004 C 
ATOM     37  C   LIG    1       28.811 -11.772   5.864  0.00  0.00    +0.000 C 
ATOM     38  C   LIG    1       28.631 -11.691   4.350  0.00  0.00    +0.000 C 
ATOM     39  C   LIG    1       29.475 -12.723   3.601  0.00  0.00    +0.005 C 
ATOM     40  C   LIG    1       27.058 -14.432   5.430  0.00  0.00    +0.032 C 
BRANCH  31  43
ATOM     41  N   LIG    1       25.129 -13.465   3.727  0.00  0.00    -0.309 N 
ATOM     42  H   LIG    1       25.604 -13.013   4.496  0.00  0.00    +0.149 HD
ATOM     43  C   LIG    1       25.297 -14.845   3.591  0.00  0.00    +0.231 C 
ATOM     44  O   LIG    1       24.557 -15.511   2.868  0.00  0.00    -0.274 OA
BRANCH  41  46
ATOM     45  C   LIG    1       22.986 -13.665   2.499  0.00  0.00    +0.031 C 
ATOM     46  C   LIG    1       24.063 -12.694   3.033  0.00  0.00    +0.026 C 
ATOM     47  C   LIG    1       23.358 -11.711   3.991  0.00  0.00    +0.031 C 
ATOM     48  C   LIG    1       24.627 -11.927   1.823  0.00  0.00    +0.031 C 
ENDBRANCH  41  46
ENDBRANCH  31  43
ENDBRANCH  30  32
ENDBRANCH  27  30
ENDBRANCH   1  27
BRANCH   1  49
ATOM     49  C   LIG    1       27.130 -19.812   4.156  0.00  0.00    +0.060 C 
BRANCH  49  50
ATOM     50  C   LIG    1       25.833 -19.753   3.356  0.00  0.00    -0.045 A 
ATOM     51  C   LIG    1       25.275 -20.870   2.723  0.00  0.00    +0.003 A 
ATOM     52  C   LIG    1       24.065 -20.771   2.017  0.00  0.00    +0.000 A 
ATOM     53  C   LIG    1       23.413 -19.546   1.896  0.00  0.00    +0.000 A 
ATOM     54  C   LIG    1       23.996 -18.409   2.442  0.00  0.00    +0.000 A 
ATOM     55  C   LIG    1       25.201 -18.510   3.151  0.00  0.00    +0.003 A 
ENDBRANCH  49  50
ENDBRANCH   1  49
TORSDOF 14
ENDMDL
