MODEL 1
REMARK VINA RESULT:       8.9      0.000      0.000
REMARK  Name = *****
REMARK                            x       y       z     vdW  Elec       q    Type
REMARK                         _______ _______ _______ _____ _____    ______ ____
ROOT
ATOM      1  C   LIG    1       24.518 -15.454   3.445  0.00  0.00    +0.064 C 
ATOM      2  C   LIG    1       23.037 -15.080   3.740  0.00  0.00    +0.117 C 
ATOM      3  C   LIG    1       22.755 -13.576   3.448  0.00  0.00    +0.062 C 
ATOM      4  C   LIG    1       23.654 -12.639   4.275  0.00  0.00    +0.151 C 
ATOM      5  C   LIG    1       25.067 -13.143   4.480  0.00  0.00    -0.011 A 
ATOM      6  C   LIG    1       25.986 -12.247   5.067  0.00  0.00    +0.056 A 
ATOM      7  C   LIG    1       27.321 -12.572   5.057  0.00  0.00    +0.167 A 
ATOM      8  O   LIG    1       28.333 -11.801   5.538  0.00  0.00    -0.453 OA
ATOM      9  C   LIG    1       29.474 -12.614   5.195  0.00  0.00    +0.466 C 
ATOM     10  O   LIG    1       29.123 -13.833   4.507  0.00  0.00    -0.453 OA
ATOM     11  C   LIG    1       27.767 -13.732   4.482  0.00  0.00    +0.167 A 
ATOM     12  C   LIG    1       26.896 -14.658   3.944  0.00  0.00    +0.054 A 
ATOM     13  C   LIG    1       25.507 -14.410   3.998  0.00  0.00    -0.030 A 
ENDROOT
BRANCH   1  18
ATOM     14  C   LIG    1       26.412 -18.762   4.199  0.00  0.00    +0.165 A 
ATOM     15  C   LIG    1       25.378 -19.716   4.186  0.00  0.00    +0.203 A 
ATOM     16  C   LIG    1       24.053 -19.267   3.990  0.00  0.00    +0.165 A 
ATOM     17  C   LIG    1       23.799 -17.893   3.766  0.00  0.00    +0.053 A 
ATOM     18  C   LIG    1       24.829 -16.935   3.745  0.00  0.00    -0.032 A 
ATOM     19  C   LIG    1       26.130 -17.397   3.989  0.00  0.00    +0.053 A 
BRANCH  14  21
ATOM     20  C   LIG    1       28.217 -19.190   5.692  0.00  0.00    +0.277 C 
ATOM     21  O   LIG    1       27.699 -19.205   4.369  0.00  0.00    -0.491 OA
ENDBRANCH  14  21
BRANCH  15  22
ATOM     22  O   LIG    1       25.536 -21.058   4.420  0.00  0.00    -0.488 OA
ATOM     23  C   LIG    1       25.836 -21.568   5.707  0.00  0.00    +0.277 C 
ENDBRANCH  15  22
BRANCH  16  24
ATOM     24  O   LIG    1       22.903 -20.028   3.976  0.00  0.00    -0.491 OA
ATOM     25  C   LIG    1       22.594 -20.814   5.124  0.00  0.00    +0.277 C 
ENDBRANCH  16  24
ENDBRANCH   1  18
BRANCH   2  26
ATOM     26  C   LIG    1       22.612 -15.436   5.152  0.00  0.00    +0.309 C 
ATOM     27  O   LIG    1       22.728 -14.752   6.179  0.00  0.00    -0.251 OA
BRANCH  26  28
ATOM     28  O   LIG    1       21.952 -16.615   5.191  0.00  0.00    -0.480 OA
ATOM     29  H   LIG    1       21.390 -16.563   5.996  0.00  0.00    +0.295 HD
ENDBRANCH  26  28
ENDBRANCH   2  26
BRANCH   4  30
ATOM     30  O   LIG    1       23.051 -12.306   5.520  0.00  0.00    -0.387 OA
ATOM     31  H   LIG    1       22.343 -11.657   5.345  0.00  0.00    +0.210 HD
ENDBRANCH   4  30
BRANCH   3  32
ATOM     32  C   LIG    1       22.920 -13.232   1.958  0.00  0.00    +0.163 C 
BRANCH  32  33
ATOM     33  O   LIG    1       23.687 -12.047   1.812  0.00  0.00    -0.395 OA
ATOM     34  H   LIG    1       24.338 -12.210   1.107  0.00  0.00    +0.209 HD
ENDBRANCH  32  33
ENDBRANCH   3  32
TORSDOF 9
ENDMDL
MODEL 2
REMARK VINA RESULT:      11.6      2.020      3.602
REMARK  Name = *****
REMARK                            x       y       z     vdW  Elec       q    Type
REMARK                         _______ _______ _______ _____ _____    ______ ____
ROOT
ATOM      1  C   LIG    1       24.233 -16.028   3.535  0.00  0.00    +0.064 C 
ATOM      2  C   LIG    1       23.671 -14.617   3.869  0.00  0.00    +0.117 C 
ATOM      3  C   LIG    1       24.718 -13.500   3.578  0.00  0.00    +0.062 C 
ATOM      4  C   LIG    1       26.021 -13.693   4.376  0.00  0.00    +0.151 C 
ATOM      5  C   LIG    1       26.446 -15.136   4.546  0.00  0.00    -0.011 A 
ATOM      6  C   LIG    1       27.722 -15.365   5.104  0.00  0.00    +0.056 A 
ATOM      7  C   LIG    1       28.242 -16.636   5.059  0.00  0.00    +0.167 A 
ATOM      8  O   LIG    1       29.468 -17.011   5.509  0.00  0.00    -0.453 OA
ATOM      9  C   LIG    1       29.474 -18.406   5.139  0.00  0.00    +0.466 C 
ATOM     10  O   LIG    1       28.268 -18.824   4.466  0.00  0.00    -0.453 OA
ATOM     11  C   LIG    1       27.554 -17.667   4.477  0.00  0.00    +0.167 A 
ATOM     12  C   LIG    1       26.283 -17.496   3.967  0.00  0.00    +0.054 A 
ATOM     13  C   LIG    1       25.669 -16.227   4.057  0.00  0.00    -0.030 A 
ENDROOT
BRANCH   1  18
ATOM     14  C   LIG    1       22.665 -19.376   4.733  0.00  0.00    +0.165 A 
ATOM     15  C   LIG    1       21.341 -19.278   4.266  0.00  0.00    +0.203 A 
ATOM     16  C   LIG    1       20.947 -18.089   3.611  0.00  0.00    +0.165 A 
ATOM     17  C   LIG    1       21.888 -17.055   3.398  0.00  0.00    +0.053 A 
ATOM     18  C   LIG    1       23.223 -17.156   3.833  0.00  0.00    -0.032 A 
ATOM     19  C   LIG    1       23.578 -18.324   4.521  0.00  0.00    +0.053 A 
BRANCH  14  21
ATOM     20  C   LIG    1       24.030 -20.435   6.371  0.00  0.00    +0.277 C 
ATOM     21  O   LIG    1       23.048 -20.540   5.350  0.00  0.00    -0.491 OA
ENDBRANCH  14  21
BRANCH  15  22
ATOM     22  O   LIG    1       20.364 -20.221   4.453  0.00  0.00    -0.488 OA
ATOM     23  C   LIG    1       20.648 -21.508   4.972  0.00  0.00    +0.277 C 
ENDBRANCH  15  22
BRANCH  16  24
ATOM     24  O   LIG    1       19.699 -17.782   3.112  0.00  0.00    -0.491 OA
ATOM     25  C   LIG    1       19.351 -18.252   1.812  0.00  0.00    +0.277 C 
ENDBRANCH  16  24
ENDBRANCH   1  18
BRANCH   2  26
ATOM     26  C   LIG    1       23.161 -14.509   5.293  0.00  0.00    +0.309 C 
ATOM     27  O   LIG    1       22.617 -15.389   5.977  0.00  0.00    -0.251 OA
BRANCH  26  28
ATOM     28  O   LIG    1       23.460 -13.310   5.839  0.00  0.00    -0.480 OA
ATOM     29  H   LIG    1       24.102 -13.512   6.556  0.00  0.00    +0.295 HD
ENDBRANCH  26  28
ENDBRANCH   2  26
BRANCH   4  30
ATOM     30  O   LIG    1       25.960 -13.033   5.636  0.00  0.00    -0.387 OA
ATOM     31  H   LIG    1       26.671 -13.395   6.198  0.00  0.00    +0.210 HD
ENDBRANCH   4  30
BRANCH   3  32
ATOM     32  C   LIG    1       25.065 -13.402   2.082  0.00  0.00    +0.163 C 
BRANCH  32  33
ATOM     33  O   LIG    1       26.380 -13.884   1.853  0.00  0.00    -0.395 OA
ATOM     34  H   LIG    1       26.301 -14.809   1.561  0.00  0.00    +0.209 HD
ENDBRANCH  32  33
ENDBRANCH   3  32
TORSDOF 9
ENDMDL
