MODEL 1
REMARK VINA RESULT:      -3.4      0.000      0.000
REMARK  Name = *****
REMARK                            x       y       z     vdW  Elec       q    Type
REMARK                         _______ _______ _______ _____ _____    ______ ____
ROOT
ATOM      1  C   LIG    1       25.457 -13.928   4.234  0.00  0.00    +0.104 C 
ATOM      2  C   LIG    1       26.272 -13.750   2.895  0.00  0.00    +0.158 C 
ATOM      3  O   LIG    1       25.912 -14.206   1.814  0.00  0.00    -0.295 OA
ATOM      4  C   LIG    1       27.451 -12.793   2.932  0.00  0.00    +0.076 C 
ATOM      5  C   LIG    1       28.357 -13.030   4.125  0.00  0.00    +0.008 C 
ATOM      6  C   LIG    1       27.569 -13.020   5.426  0.00  0.00    +0.003 C 
ATOM      7  C   LIG    1       26.478 -14.093   5.398  0.00  0.00    +0.035 C 
ENDROOT
BRANCH   1   8
ATOM      8  C   LIG    1       24.564 -15.201   4.260  0.00  0.00    -0.002 A 
ATOM      9  C   LIG    1       24.989 -16.500   3.898  0.00  0.00    +0.046 A 
ATOM     10 CL   LIG    1       26.577 -16.865   3.307  0.00  0.00    -0.083 Cl
ATOM     11  C   LIG    1       24.106 -17.594   3.937  0.00  0.00    +0.020 A 
ATOM     12  C   LIG    1       22.770 -17.423   4.281  0.00  0.00    +0.001 A 
ATOM     13  C   LIG    1       22.305 -16.152   4.576  0.00  0.00    +0.001 A 
ATOM     14  C   LIG    1       23.185 -15.064   4.556  0.00  0.00    +0.007 A 
ENDBRANCH   1   8
BRANCH   1  16
ATOM     15  C   LIG    1       23.969 -12.156   3.312  0.00  0.00    +0.102 C 
ATOM     16  N   LIG    1       24.746 -12.640   4.449  0.00  0.00    -0.304 NA
ATOM     17  H   LIG    1       24.120 -12.744   5.248  0.00  0.00    +0.123 HD
ENDBRANCH   1  16
TORSDOF 2
ENDMDL
MODEL 2
REMARK VINA RESULT:      -3.2      1.430      1.963
REMARK  Name = *****
REMARK                            x       y       z     vdW  Elec       q    Type
REMARK                         _______ _______ _______ _____ _____    ______ ____
ROOT
ATOM      1  C   LIG    1       25.749 -14.327   4.000  0.00  0.00    +0.104 C 
ATOM      2  C   LIG    1       26.837 -13.920   2.932  0.00  0.00    +0.158 C 
ATOM      3  O   LIG    1       26.911 -14.418   1.812  0.00  0.00    -0.295 OA
ATOM      4  C   LIG    1       27.696 -12.710   3.255  0.00  0.00    +0.076 C 
ATOM      5  C   LIG    1       28.264 -12.756   4.660  0.00  0.00    +0.008 C 
ATOM      6  C   LIG    1       27.166 -12.973   5.691  0.00  0.00    +0.003 C 
ATOM      7  C   LIG    1       26.415 -14.275   5.405  0.00  0.00    +0.035 C 
ENDROOT
BRANCH   1   8
ATOM      8  C   LIG    1       25.214 -15.777   3.829  0.00  0.00    -0.002 A 
ATOM      9  C   LIG    1       23.915 -16.211   4.184  0.00  0.00    +0.046 A 
ATOM     10 CL   LIG    1       22.727 -15.193   4.926  0.00  0.00    -0.083 Cl
ATOM     11  C   LIG    1       23.521 -17.550   4.008  0.00  0.00    +0.020 A 
ATOM     12  C   LIG    1       24.413 -18.502   3.530  0.00  0.00    +0.001 A 
ATOM     13  C   LIG    1       25.714 -18.124   3.237  0.00  0.00    +0.001 A 
ATOM     14  C   LIG    1       26.105 -16.789   3.392  0.00  0.00    +0.007 A 
ENDBRANCH   1   8
BRANCH   1  16
ATOM     15  C   LIG    1       24.241 -12.897   2.625  0.00  0.00    +0.102 C 
ATOM     16  N   LIG    1       24.721 -13.254   3.957  0.00  0.00    -0.304 NA
ATOM     17  H   LIG    1       23.922 -13.548   4.520  0.00  0.00    +0.123 HD
ENDBRANCH   1  16
TORSDOF 2
ENDMDL
MODEL 3
REMARK VINA RESULT:      -2.8      4.782      6.633
REMARK  Name = *****
REMARK                            x       y       z     vdW  Elec       q    Type
REMARK                         _______ _______ _______ _____ _____    ______ ____
ROOT
ATOM      1  C   LIG    1       24.986 -19.761   4.343  0.00  0.00    +0.104 C 
ATOM      2  C   LIG    1       24.744 -18.337   3.709  0.00  0.00    +0.158 C 
ATOM      3  O   LIG    1       25.648 -17.567   3.398  0.00  0.00    -0.295 OA
ATOM      4  C   LIG    1       23.323 -18.007   3.284  0.00  0.00    +0.076 C 
ATOM      5  C   LIG    1       22.303 -18.336   4.358  0.00  0.00    +0.008 C 
ATOM      6  C   LIG    1       22.443 -19.776   4.829  0.00  0.00    +0.003 C 
ATOM      7  C   LIG    1       23.851 -20.025   5.375  0.00  0.00    +0.035 C 
ENDROOT
BRANCH   1   8
ATOM      8  C   LIG    1       26.321 -19.877   5.132  0.00  0.00    -0.002 A 
ATOM      9  C   LIG    1       26.513 -20.658   6.295  0.00  0.00    +0.046 A 
ATOM     10 CL   LIG    1       25.255 -21.571   7.062  0.00  0.00    -0.083 Cl
ATOM     11  C   LIG    1       27.755 -20.692   6.954  0.00  0.00    +0.020 A 
ATOM     12  C   LIG    1       28.820 -19.915   6.515  0.00  0.00    +0.001 A 
ATOM     13  C   LIG    1       28.646 -19.087   5.418  0.00  0.00    +0.001 A 
ATOM     14  C   LIG    1       27.417 -19.065   4.747  0.00  0.00    +0.007 A 
ENDBRANCH   1   8
BRANCH   1  16
ATOM     15  C   LIG    1       23.618 -21.571   3.315  0.00  0.00    +0.102 C 
ATOM     16  N   LIG    1       24.810 -20.733   3.232  0.00  0.00    -0.304 NA
ATOM     17  H   LIG    1       24.783 -20.218   2.351  0.00  0.00    +0.123 HD
ENDBRANCH   1  16
TORSDOF 2
ENDMDL
MODEL 4
REMARK VINA RESULT:      -2.5      5.304      6.630
REMARK  Name = *****
REMARK                            x       y       z     vdW  Elec       q    Type
REMARK                         _______ _______ _______ _____ _____    ______ ____
ROOT
ATOM      1  C   LIG    1       24.811 -20.362   4.961  0.00  0.00    +0.104 C 
ATOM      2  C   LIG    1       24.787 -20.968   6.417  0.00  0.00    +0.158 C 
ATOM      3  O   LIG    1       23.758 -21.154   7.061  0.00  0.00    -0.295 OA
ATOM      4  C   LIG    1       26.095 -21.528   6.950  0.00  0.00    +0.076 C 
ATOM      5  C   LIG    1       27.261 -20.581   6.745  0.00  0.00    +0.008 C 
ATOM      6  C   LIG    1       27.371 -20.148   5.290  0.00  0.00    +0.003 C 
ATOM      7  C   LIG    1       26.078 -19.466   4.837  0.00  0.00    +0.035 C 
ENDROOT
BRANCH   1   8
ATOM      8  C   LIG    1       23.599 -19.441   4.645  0.00  0.00    -0.002 A 
ATOM      9  C   LIG    1       22.247 -19.856   4.625  0.00  0.00    +0.046 A 
ATOM     10 CL   LIG    1       21.734 -21.489   4.898  0.00  0.00    -0.083 Cl
ATOM     11  C   LIG    1       21.213 -18.955   4.313  0.00  0.00    +0.020 A 
ATOM     12  C   LIG    1       21.491 -17.641   3.958  0.00  0.00    +0.001 A 
ATOM     13  C   LIG    1       22.809 -17.220   3.902  0.00  0.00    +0.001 A 
ATOM     14  C   LIG    1       23.841 -18.108   4.231  0.00  0.00    +0.007 A 
ENDBRANCH   1   8
BRANCH   1  16
ATOM     15  C   LIG    1       24.386 -21.378   2.727  0.00  0.00    +0.102 C 
ATOM     16  N   LIG    1       24.996 -21.518   4.045  0.00  0.00    -0.304 NA
ATOM     17  H   LIG    1       25.996 -21.680   3.924  0.00  0.00    +0.123 HD
ENDBRANCH   1  16
TORSDOF 2
ENDMDL
MODEL 5
REMARK VINA RESULT:      -2.5      1.986      3.304
REMARK  Name = *****
REMARK                            x       y       z     vdW  Elec       q    Type
REMARK                         _______ _______ _______ _____ _____    ______ ____
ROOT
ATOM      1  C   LIG    1       25.347 -13.963   3.539  0.00  0.00    +0.104 C 
ATOM      2  C   LIG    1       25.476 -13.323   4.976  0.00  0.00    +0.158 C 
ATOM      3  O   LIG    1       25.951 -13.911   5.943  0.00  0.00    -0.295 OA
ATOM      4  C   LIG    1       25.178 -11.838   5.095  0.00  0.00    +0.076 C 
ATOM      5  C   LIG    1       23.883 -11.447   4.409  0.00  0.00    +0.008 C 
ATOM      6  C   LIG    1       23.858 -11.924   2.965  0.00  0.00    +0.003 C 
ATOM      7  C   LIG    1       24.025 -13.444   2.902  0.00  0.00    +0.035 C 
ENDROOT
BRANCH   1   8
ATOM      8  C   LIG    1       25.240 -15.514   3.551  0.00  0.00    -0.002 A 
ATOM      9  C   LIG    1       24.112 -16.248   3.987  0.00  0.00    +0.046 A 
ATOM     10 CL   LIG    1       22.679 -15.520   4.635  0.00  0.00    -0.083 Cl
ATOM     11  C   LIG    1       24.109 -17.654   3.977  0.00  0.00    +0.020 A 
ATOM     12  C   LIG    1       25.236 -18.370   3.592  0.00  0.00    +0.001 A 
ATOM     13  C   LIG    1       26.381 -17.682   3.223  0.00  0.00    +0.001 A 
ATOM     14  C   LIG    1       26.382 -16.282   3.213  0.00  0.00    +0.007 A 
ENDBRANCH   1   8
BRANCH   1  16
ATOM     15  C   LIG    1       27.767 -13.385   3.418  0.00  0.00    +0.102 C 
ATOM     16  N   LIG    1       26.471 -13.403   2.745  0.00  0.00    -0.304 NA
ATOM     17  H   LIG    1       26.561 -13.944   1.884  0.00  0.00    +0.123 HD
ENDBRANCH   1  16
TORSDOF 2
ENDMDL
MODEL 6
REMARK VINA RESULT:      -2.4      5.118      6.947
REMARK  Name = *****
REMARK                            x       y       z     vdW  Elec       q    Type
REMARK                         _______ _______ _______ _____ _____    ______ ____
ROOT
ATOM      1  C   LIG    1       25.099 -20.360   5.059  0.00  0.00    +0.104 C 
ATOM      2  C   LIG    1       24.661 -19.135   4.167  0.00  0.00    +0.158 C 
ATOM      3  O   LIG    1       25.449 -18.426   3.548  0.00  0.00    -0.295 OA
ATOM      4  C   LIG    1       23.172 -18.967   3.915  0.00  0.00    +0.076 C 
ATOM      5  C   LIG    1       22.350 -19.072   5.185  0.00  0.00    +0.008 C 
ATOM      6  C   LIG    1       22.664 -20.355   5.941  0.00  0.00    +0.003 C 
ATOM      7  C   LIG    1       24.153 -20.416   6.293  0.00  0.00    +0.035 C 
ENDROOT
BRANCH   1   8
ATOM      8  C   LIG    1       26.542 -20.238   5.627  0.00  0.00    -0.002 A 
ATOM      9  C   LIG    1       27.490 -19.265   5.234  0.00  0.00    +0.046 A 
ATOM     10 CL   LIG    1       27.203 -18.080   4.003  0.00  0.00    -0.083 Cl
ATOM     11  C   LIG    1       28.781 -19.239   5.792  0.00  0.00    +0.020 A 
ATOM     12  C   LIG    1       29.186 -20.203   6.707  0.00  0.00    +0.001 A 
ATOM     13  C   LIG    1       28.303 -21.211   7.062  0.00  0.00    +0.001 A 
ATOM     14  C   LIG    1       27.011 -21.230   6.524  0.00  0.00    +0.007 A 
ENDBRANCH   1   8
BRANCH   1  16
ATOM     15  C   LIG    1       24.224 -21.326   2.936  0.00  0.00    +0.102 C 
ATOM     16  N   LIG    1       24.832 -21.572   4.240  0.00  0.00    -0.304 NA
ATOM     17  H   LIG    1       25.712 -22.068   4.099  0.00  0.00    +0.123 HD
ENDBRANCH   1  16
TORSDOF 2
ENDMDL
MODEL 7
REMARK VINA RESULT:      -2.1      1.614      2.180
REMARK  Name = *****
REMARK                            x       y       z     vdW  Elec       q    Type
REMARK                         _______ _______ _______ _____ _____    ______ ____
ROOT
ATOM      1  C   LIG    1       25.789 -14.750   3.910  0.00  0.00    +0.104 C 
ATOM      2  C   LIG    1       25.629 -13.831   2.637  0.00  0.00    +0.158 C 
ATOM      3  O   LIG    1       24.729 -13.959   1.813  0.00  0.00    -0.295 OA
ATOM      4  C   LIG    1       26.527 -12.608   2.557  0.00  0.00    +0.076 C 
ATOM      5  C   LIG    1       27.979 -12.930   2.851  0.00  0.00    +0.008 C 
ATOM      6  C   LIG    1       28.124 -13.663   4.176  0.00  0.00    +0.003 C 
ATOM      7  C   LIG    1       27.311 -14.960   4.161  0.00  0.00    +0.035 C 
ENDROOT
BRANCH   1   8
ATOM      8  C   LIG    1       25.180 -16.170   3.738  0.00  0.00    -0.002 A 
ATOM      9  C   LIG    1       23.847 -16.527   4.048  0.00  0.00    +0.046 A 
ATOM     10 CL   LIG    1       22.690 -15.432   4.731  0.00  0.00    -0.083 Cl
ATOM     11  C   LIG    1       23.385 -17.844   3.874  0.00  0.00    +0.020 A 
ATOM     12  C   LIG    1       24.240 -18.851   3.444  0.00  0.00    +0.001 A 
ATOM     13  C   LIG    1       25.569 -18.550   3.196  0.00  0.00    +0.001 A 
ATOM     14  C   LIG    1       26.029 -17.237   3.349  0.00  0.00    +0.007 A 
ENDBRANCH   1   8
BRANCH   1  16
ATOM     15  C   LIG    1       24.561 -12.726   4.687  0.00  0.00    +0.102 C 
ATOM     16  N   LIG    1       25.257 -13.957   5.049  0.00  0.00    -0.304 NA
ATOM     17  H   LIG    1       24.616 -14.546   5.583  0.00  0.00    +0.123 HD
ENDBRANCH   1  16
TORSDOF 2
ENDMDL
MODEL 8
REMARK VINA RESULT:      -1.9      4.043      6.657
REMARK  Name = *****
REMARK                            x       y       z     vdW  Elec       q    Type
REMARK                         _______ _______ _______ _____ _____    ______ ____
ROOT
ATOM      1  C   LIG    1       24.808 -20.115   4.761  0.00  0.00    +0.104 C 
ATOM      2  C   LIG    1       23.257 -19.858   4.897  0.00  0.00    +0.158 C 
ATOM      3  O   LIG    1       22.648 -19.009   4.252  0.00  0.00    -0.295 OA
ATOM      4  C   LIG    1       22.466 -20.857   5.724  0.00  0.00    +0.076 C 
ATOM      5  C   LIG    1       23.116 -21.151   7.062  0.00  0.00    +0.008 C 
ATOM      6  C   LIG    1       24.568 -21.571   6.889  0.00  0.00    +0.003 C 
ATOM      7  C   LIG    1       25.359 -20.474   6.172  0.00  0.00    +0.035 C 
ENDROOT
BRANCH   1   8
ATOM      8  C   LIG    1       25.611 -18.871   4.288  0.00  0.00    -0.002 A 
ATOM      9  C   LIG    1       26.992 -18.662   4.509  0.00  0.00    +0.046 A 
ATOM     10 CL   LIG    1       28.001 -19.751   5.402  0.00  0.00    -0.083 Cl
ATOM     11  C   LIG    1       27.635 -17.496   4.057  0.00  0.00    +0.020 A 
ATOM     12  C   LIG    1       26.921 -16.483   3.427  0.00  0.00    +0.001 A 
ATOM     13  C   LIG    1       25.554 -16.626   3.255  0.00  0.00    +0.001 A 
ATOM     14  C   LIG    1       24.913 -17.794   3.686  0.00  0.00    +0.007 A 
ENDBRANCH   1   8
BRANCH   1  16
ATOM     15  C   LIG    1       24.188 -21.305   2.661  0.00  0.00    +0.102 C 
ATOM     16  N   LIG    1       24.943 -21.327   3.911  0.00  0.00    -0.304 NA
ATOM     17  H   LIG    1       25.930 -21.460   3.690  0.00  0.00    +0.123 HD
ENDBRANCH   1  16
TORSDOF 2
ENDMDL
MODEL 9
REMARK VINA RESULT:      -1.5      1.737      2.814
REMARK  Name = *****
REMARK                            x       y       z     vdW  Elec       q    Type
REMARK                         _______ _______ _______ _____ _____    ______ ____
ROOT
ATOM      1  C   LIG    1       24.880 -14.128   3.706  0.00  0.00    +0.104 C 
ATOM      2  C   LIG    1       23.981 -13.147   4.554  0.00  0.00    +0.158 C 
ATOM      3  O   LIG    1       23.391 -13.478   5.579  0.00  0.00    -0.295 OA
ATOM      4  C   LIG    1       24.027 -11.676   4.179  0.00  0.00    +0.076 C 
ATOM      5  C   LIG    1       23.869 -11.450   2.687  0.00  0.00    +0.008 C 
ATOM      6  C   LIG    1       24.870 -12.277   1.895  0.00  0.00    +0.003 C 
ATOM      7  C   LIG    1       24.695 -13.766   2.203  0.00  0.00    +0.035 C 
ENDROOT
BRANCH   1   8
ATOM      8  C   LIG    1       24.476 -15.623   3.842  0.00  0.00    -0.002 A 
ATOM      9  C   LIG    1       25.345 -16.721   3.639  0.00  0.00    +0.046 A 
ATOM     10 CL   LIG    1       26.998 -16.565   3.145  0.00  0.00    -0.083 Cl
ATOM     11  C   LIG    1       24.889 -18.045   3.769  0.00  0.00    +0.020 A 
ATOM     12  C   LIG    1       23.555 -18.319   4.047  0.00  0.00    +0.001 A 
ATOM     13  C   LIG    1       22.663 -17.268   4.185  0.00  0.00    +0.001 A 
ATOM     14  C   LIG    1       23.117 -15.948   4.075  0.00  0.00    +0.007 A 
ENDBRANCH   1   8
BRANCH   1  16
ATOM     15  C   LIG    1       26.557 -13.718   5.501  0.00  0.00    +0.102 C 
ATOM     16  N   LIG    1       26.284 -13.806   4.070  0.00  0.00    -0.304 NA
ATOM     17  H   LIG    1       26.895 -14.518   3.667  0.00  0.00    +0.123 HD
ENDBRANCH   1  16
TORSDOF 2
ENDMDL
