MODEL 1
REMARK VINA RESULT:      -8.2      0.000      0.000
REMARK  Name = *****
REMARK                            x       y       z     vdW  Elec       q    Type
REMARK                         _______ _______ _______ _____ _____    ______ ____
ROOT
ATOM      1  N   LIG    1       27.194 -20.186   6.798  0.00  0.00    -0.268 N 
ATOM      2  C   LIG    1       26.911 -20.281   8.173  0.00  0.00    +0.241 C 
ATOM      3  O   LIG    1       27.726 -19.982   9.041  0.00  0.00    -0.273 OA
ATOM      4  C   LIG    1       25.497 -20.712   8.571  0.00  0.00    +0.238 C 
ATOM      5  N   LIG    1       25.327 -22.135   8.264  0.00  0.00    -0.273 NA
ATOM      6  C   LIG    1       25.231 -22.441   7.011  0.00  0.00    +0.078 C 
ATOM      7  C   LIG    1       25.202 -21.425   5.926  0.00  0.00    +0.023 A 
ATOM      8  C   LIG    1       24.158 -21.540   4.994  0.00  0.00    +0.032 A 
ATOM      9  C   LIG    1       24.202 -20.806   3.820  0.00  0.00    +0.042 A 
ATOM     10 CL   LIG    1       22.962 -20.997   2.647  0.00  0.00    -0.084 Cl
ATOM     11  C   LIG    1       25.264 -19.942   3.583  0.00  0.00    +0.022 A 
ATOM     12  C   LIG    1       26.258 -19.763   4.557  0.00  0.00    +0.025 A 
ATOM     13  C   LIG    1       26.230 -20.470   5.771  0.00  0.00    +0.046 A 
ENDROOT
BRANCH   6  14
ATOM     14  C   LIG    1       25.134 -23.895   6.634  0.00  0.00    +0.036 A 
ATOM     15  C   LIG    1       23.899 -24.551   6.546  0.00  0.00    +0.133 A 
ATOM     16  F   LIG    1       22.747 -23.893   6.743  0.00  0.00    -0.205 F 
ATOM     17  C   LIG    1       23.822 -25.907   6.236  0.00  0.00    +0.039 A 
ATOM     18  C   LIG    1       24.986 -26.626   5.978  0.00  0.00    +0.003 A 
ATOM     19  C   LIG    1       26.222 -25.981   6.027  0.00  0.00    +0.001 A 
ATOM     20  C   LIG    1       26.300 -24.621   6.355  0.00  0.00    +0.013 A 
ENDBRANCH   6  14
BRANCH   1  21
ATOM     21  C   LIG    1       28.549 -19.722   6.427  0.00  0.00    +0.129 C 
BRANCH  21  22
ATOM     22  C   LIG    1       29.665 -20.602   7.048  0.00  0.00    +0.104 C 
BRANCH  22  23
ATOM     23  N   LIG    1       30.862 -19.918   7.603  0.00  0.00    -0.301 NA
BRANCH  23  25
ATOM     24  C   LIG    1       30.514 -17.812   8.958  0.00  0.00    +0.020 C 
ATOM     25  C   LIG    1       30.767 -18.451   7.589  0.00  0.00    +0.081 C 
ENDBRANCH  23  25
BRANCH  23  26
ATOM     26  C   LIG    1       31.165 -20.462   8.944  0.00  0.00    +0.081 C 
ATOM     27  C   LIG    1       31.136 -21.982   9.085  0.00  0.00    +0.020 C 
ENDBRANCH  23  26
ENDBRANCH  22  23
ENDBRANCH  21  22
ENDBRANCH   1  21
TORSDOF 6
ENDMDL
MODEL 2
REMARK VINA RESULT:      -7.0      3.464      6.851
REMARK  Name = *****
REMARK                            x       y       z     vdW  Elec       q    Type
REMARK                         _______ _______ _______ _____ _____    ______ ____
ROOT
ATOM      1  N   LIG    1       25.060 -24.141   6.292  0.00  0.00    -0.268 N 
ATOM      2  C   LIG    1       23.701 -24.367   6.580  0.00  0.00    +0.241 C 
ATOM      3  O   LIG    1       23.122 -25.406   6.277  0.00  0.00    -0.273 OA
ATOM      4  C   LIG    1       22.960 -23.282   7.366  0.00  0.00    +0.238 C 
ATOM      5  N   LIG    1       22.759 -22.118   6.499  0.00  0.00    -0.273 NA
ATOM      6  C   LIG    1       23.812 -21.417   6.230  0.00  0.00    +0.078 C 
ATOM      7  C   LIG    1       25.147 -21.697   6.821  0.00  0.00    +0.023 A 
ATOM      8  C   LIG    1       25.809 -20.606   7.408  0.00  0.00    +0.032 A 
ATOM      9  C   LIG    1       27.147 -20.717   7.746  0.00  0.00    +0.042 A 
ATOM     10 CL   LIG    1       27.977 -19.361   8.400  0.00  0.00    -0.084 Cl
ATOM     11  C   LIG    1       27.821 -21.911   7.527  0.00  0.00    +0.022 A 
ATOM     12  C   LIG    1       27.133 -23.026   7.024  0.00  0.00    +0.025 A 
ATOM     13  C   LIG    1       25.768 -22.958   6.697  0.00  0.00    +0.046 A 
ENDROOT
BRANCH   6  14
ATOM     14  C   LIG    1       23.677 -20.256   5.281  0.00  0.00    +0.036 A 
ATOM     15  C   LIG    1       24.656 -19.974   4.320  0.00  0.00    +0.133 A 
ATOM     16  F   LIG    1       25.732 -20.761   4.172  0.00  0.00    -0.205 F 
ATOM     17  C   LIG    1       24.541 -18.872   3.474  0.00  0.00    +0.039 A 
ATOM     18  C   LIG    1       23.422 -18.049   3.557  0.00  0.00    +0.003 A 
ATOM     19  C   LIG    1       22.419 -18.335   4.485  0.00  0.00    +0.001 A 
ATOM     20  C   LIG    1       22.544 -19.433   5.346  0.00  0.00    +0.013 A 
ENDBRANCH   6  14
BRANCH   1  21
ATOM     21  C   LIG    1       25.777 -25.218   5.575  0.00  0.00    +0.129 C 
BRANCH  21  22
ATOM     22  C   LIG    1       26.078 -26.436   6.488  0.00  0.00    +0.104 C 
BRANCH  22  23
ATOM     23  N   LIG    1       25.201 -27.629   6.367  0.00  0.00    -0.301 NA
BRANCH  23  25
ATOM     24  C   LIG    1       25.328 -29.940   5.352  0.00  0.00    +0.020 C 
ATOM     25  C   LIG    1       25.445 -28.426   5.157  0.00  0.00    +0.081 C 
ENDBRANCH  23  25
BRANCH  23  26
ATOM     26  C   LIG    1       25.282 -28.429   7.608  0.00  0.00    +0.081 C 
ATOM     27  C   LIG    1       26.444 -28.114   8.547  0.00  0.00    +0.020 C 
ENDBRANCH  23  26
ENDBRANCH  22  23
ENDBRANCH  21  22
ENDBRANCH   1  21
TORSDOF 6
ENDMDL
MODEL 3
REMARK VINA RESULT:      -6.4      7.068      9.073
REMARK  Name = *****
REMARK                            x       y       z     vdW  Elec       q    Type
REMARK                         _______ _______ _______ _____ _____    ______ ____
ROOT
ATOM      1  N   LIG    1       26.656 -29.113  11.764  0.00  0.00    -0.268 N 
ATOM      2  C   LIG    1       27.745 -29.800  11.195  0.00  0.00    +0.241 C 
ATOM      3  O   LIG    1       28.906 -29.608  11.544  0.00  0.00    -0.273 OA
ATOM      4  C   LIG    1       27.429 -30.872  10.150  0.00  0.00    +0.238 C 
ATOM      5  N   LIG    1       26.976 -30.220   8.918  0.00  0.00    -0.273 NA
ATOM      6  C   LIG    1       25.797 -29.691   8.952  0.00  0.00    +0.078 C 
ATOM      7  C   LIG    1       24.892 -29.797  10.127  0.00  0.00    +0.023 A 
ATOM      8  C   LIG    1       23.583 -30.234   9.866  0.00  0.00    +0.032 A 
ATOM      9  C   LIG    1       22.612 -30.116  10.847  0.00  0.00    +0.042 A 
ATOM     10 CL   LIG    1       20.995 -30.586  10.507  0.00  0.00    -0.084 Cl
ATOM     11  C   LIG    1       22.942 -29.590  12.089  0.00  0.00    +0.022 A 
ATOM     12  C   LIG    1       24.270 -29.238  12.374  0.00  0.00    +0.025 A 
ATOM     13  C   LIG    1       25.287 -29.371  11.412  0.00  0.00    +0.046 A 
ENDROOT
BRANCH   6  14
ATOM     14  C   LIG    1       25.313 -28.940   7.740  0.00  0.00    +0.036 A 
ATOM     15  C   LIG    1       24.534 -29.559   6.754  0.00  0.00    +0.133 A 
ATOM     16  F   LIG    1       24.144 -30.836   6.876  0.00  0.00    -0.205 F 
ATOM     17  C   LIG    1       24.126 -28.867   5.615  0.00  0.00    +0.039 A 
ATOM     18  C   LIG    1       24.467 -27.526   5.461  0.00  0.00    +0.003 A 
ATOM     19  C   LIG    1       25.213 -26.883   6.450  0.00  0.00    +0.001 A 
ATOM     20  C   LIG    1       25.637 -27.585   7.585  0.00  0.00    +0.013 A 
ENDBRANCH   6  14
BRANCH   1  21
ATOM     21  C   LIG    1       26.971 -28.113  12.808  0.00  0.00    +0.129 C 
BRANCH  21  22
ATOM     22  C   LIG    1       26.633 -26.666  12.361  0.00  0.00    +0.104 C 
BRANCH  22  23
ATOM     23  N   LIG    1       26.750 -25.582  13.371  0.00  0.00    -0.301 NA
BRANCH  23  25
ATOM     24  C   LIG    1       24.265 -25.815  13.772  0.00  0.00    +0.020 C 
ATOM     25  C   LIG    1       25.482 -24.894  13.654  0.00  0.00    +0.081 C 
ENDBRANCH  23  25
BRANCH  23  26
ATOM     26  C   LIG    1       27.401 -26.110  14.589  0.00  0.00    +0.081 C 
ATOM     27  C   LIG    1       28.486 -25.237  15.216  0.00  0.00    +0.020 C 
ENDBRANCH  23  26
ENDBRANCH  22  23
ENDBRANCH  21  22
ENDBRANCH   1  21
TORSDOF 6
ENDMDL
MODEL 4
REMARK VINA RESULT:      -6.2      2.930      5.962
REMARK  Name = *****
REMARK                            x       y       z     vdW  Elec       q    Type
REMARK                         _______ _______ _______ _____ _____    ______ ____
ROOT
ATOM      1  N   LIG    1       23.717 -21.524   5.500  0.00  0.00    -0.268 N 
ATOM      2  C   LIG    1       23.282 -20.713   6.565  0.00  0.00    +0.241 C 
ATOM      3  O   LIG    1       22.503 -19.777   6.412  0.00  0.00    -0.273 OA
ATOM      4  C   LIG    1       23.763 -21.083   7.971  0.00  0.00    +0.238 C 
ATOM      5  N   LIG    1       25.188 -20.766   8.087  0.00  0.00    -0.273 NA
ATOM      6  C   LIG    1       26.000 -21.538   7.442  0.00  0.00    +0.078 C 
ATOM      7  C   LIG    1       25.553 -22.740   6.688  0.00  0.00    +0.023 A 
ATOM      8  C   LIG    1       26.238 -23.935   6.962  0.00  0.00    +0.032 A 
ATOM      9  C   LIG    1       26.064 -25.030   6.131  0.00  0.00    +0.042 A 
ATOM     10 CL   LIG    1       26.953 -26.472   6.422  0.00  0.00    -0.084 Cl
ATOM     11  C   LIG    1       25.197 -24.949   5.049  0.00  0.00    +0.022 A 
ATOM     12  C   LIG    1       24.447 -23.782   4.834  0.00  0.00    +0.025 A 
ATOM     13  C   LIG    1       24.577 -22.662   5.673  0.00  0.00    +0.046 A 
ENDROOT
BRANCH   6  14
ATOM     14  C   LIG    1       27.470 -21.211   7.462  0.00  0.00    +0.036 A 
ATOM     15  C   LIG    1       28.055 -20.394   6.487  0.00  0.00    +0.133 A 
ATOM     16  F   LIG    1       27.317 -19.827   5.521  0.00  0.00    -0.205 F 
ATOM     17  C   LIG    1       29.424 -20.131   6.491  0.00  0.00    +0.039 A 
ATOM     18  C   LIG    1       30.227 -20.659   7.497  0.00  0.00    +0.003 A 
ATOM     19  C   LIG    1       29.655 -21.447   8.498  0.00  0.00    +0.001 A 
ATOM     20  C   LIG    1       28.282 -21.724   8.482  0.00  0.00    +0.013 A 
ENDBRANCH   6  14
BRANCH   1  21
ATOM     21  C   LIG    1       23.206 -21.185   4.154  0.00  0.00    +0.129 C 
BRANCH  21  22
ATOM     22  C   LIG    1       24.214 -20.335   3.337  0.00  0.00    +0.104 C 
BRANCH  22  23
ATOM     23  N   LIG    1       24.371 -18.903   3.702  0.00  0.00    -0.301 NA
BRANCH  23  25
ATOM     24  C   LIG    1       25.702 -16.772   3.417  0.00  0.00    +0.020 C 
ATOM     25  C   LIG    1       25.561 -18.267   3.118  0.00  0.00    +0.081 C 
ENDBRANCH  23  25
BRANCH  23  26
ATOM     26  C   LIG    1       23.122 -18.175   3.392  0.00  0.00    +0.081 C 
ATOM     27  C   LIG    1       22.392 -17.541   4.575  0.00  0.00    +0.020 C 
ENDBRANCH  23  26
ENDBRANCH  22  23
ENDBRANCH  21  22
ENDBRANCH   1  21
TORSDOF 6
ENDMDL
MODEL 5
REMARK VINA RESULT:      -6.2      8.023     10.881
REMARK  Name = *****
REMARK                            x       y       z     vdW  Elec       q    Type
REMARK                         _______ _______ _______ _____ _____    ______ ____
ROOT
ATOM      1  N   LIG    1       24.697 -31.859   8.179  0.00  0.00    -0.268 N 
ATOM      2  C   LIG    1       25.708 -32.621   8.793  0.00  0.00    +0.241 C 
ATOM      3  O   LIG    1       25.596 -33.825   9.003  0.00  0.00    -0.273 OA
ATOM      4  C   LIG    1       27.016 -31.904   9.137  0.00  0.00    +0.238 C 
ATOM      5  N   LIG    1       26.781 -30.996  10.263  0.00  0.00    -0.273 NA
ATOM      6  C   LIG    1       26.090 -29.934  10.005  0.00  0.00    +0.078 C 
ATOM      7  C   LIG    1       25.622 -29.580   8.638  0.00  0.00    +0.023 A 
ATOM      8  C   LIG    1       25.905 -28.275   8.203  0.00  0.00    +0.032 A 
ATOM      9  C   LIG    1       25.290 -27.784   7.063  0.00  0.00    +0.042 A 
ATOM     10 CL   LIG    1       25.580 -26.165   6.566  0.00  0.00    -0.084 Cl
ATOM     11  C   LIG    1       24.417 -28.591   6.345  0.00  0.00    +0.022 A 
ATOM     12  C   LIG    1       24.207 -29.923   6.734  0.00  0.00    +0.025 A 
ATOM     13  C   LIG    1       24.837 -30.463   7.868  0.00  0.00    +0.046 A 
ENDROOT
BRANCH   6  14
ATOM     14  C   LIG    1       25.752 -29.005  11.141  0.00  0.00    +0.036 A 
ATOM     15  C   LIG    1       26.664 -28.047  11.604  0.00  0.00    +0.133 A 
ATOM     16  F   LIG    1       27.859 -27.884  11.017  0.00  0.00    -0.205 F 
ATOM     17  C   LIG    1       26.357 -27.220  12.682  0.00  0.00    +0.039 A 
ATOM     18  C   LIG    1       25.112 -27.318  13.298  0.00  0.00    +0.003 A 
ATOM     19  C   LIG    1       24.178 -28.243  12.828  0.00  0.00    +0.001 A 
ATOM     20  C   LIG    1       24.495 -29.085  11.754  0.00  0.00    +0.013 A 
ENDBRANCH   6  14
BRANCH   1  21
ATOM     21  C   LIG    1       23.456 -32.574   7.807  0.00  0.00    +0.129 C 
BRANCH  21  22
ATOM     22  C   LIG    1       22.514 -32.791   9.021  0.00  0.00    +0.104 C 
BRANCH  22  23
ATOM     23  N   LIG    1       22.659 -31.878  10.184  0.00  0.00    -0.301 NA
BRANCH  23  25
ATOM     24  C   LIG    1       21.079 -30.557  11.651  0.00  0.00    +0.020 C 
ATOM     25  C   LIG    1       21.630 -30.829  10.249  0.00  0.00    +0.081 C 
ENDBRANCH  23  25
BRANCH  23  26
ATOM     26  C   LIG    1       22.748 -32.672  11.427  0.00  0.00    +0.081 C 
ATOM     27  C   LIG    1       24.113 -32.719  12.110  0.00  0.00    +0.020 C 
ENDBRANCH  23  26
ENDBRANCH  22  23
ENDBRANCH  21  22
ENDBRANCH   1  21
TORSDOF 6
ENDMDL
MODEL 6
REMARK VINA RESULT:      -6.1      7.459      9.536
REMARK  Name = *****
REMARK                            x       y       z     vdW  Elec       q    Type
REMARK                         _______ _______ _______ _____ _____    ______ ____
ROOT
ATOM      1  N   LIG    1       26.316 -30.283  10.036  0.00  0.00    -0.268 N 
ATOM      2  C   LIG    1       25.514 -31.294  10.597  0.00  0.00    +0.241 C 
ATOM      3  O   LIG    1       25.807 -31.874  11.638  0.00  0.00    -0.273 OA
ATOM      4  C   LIG    1       24.192 -31.613   9.893  0.00  0.00    +0.238 C 
ATOM      5  N   LIG    1       24.477 -32.302   8.631  0.00  0.00    -0.273 NA
ATOM      6  C   LIG    1       24.980 -31.578   7.686  0.00  0.00    +0.078 C 
ATOM      7  C   LIG    1       25.188 -30.110   7.809  0.00  0.00    +0.023 A 
ATOM      8  C   LIG    1       24.680 -29.321   6.765  0.00  0.00    +0.032 A 
ATOM      9  C   LIG    1       25.049 -27.989   6.670  0.00  0.00    +0.042 A 
ATOM     10 CL   LIG    1       24.484 -27.038   5.355  0.00  0.00    -0.084 Cl
ATOM     11  C   LIG    1       25.899 -27.436   7.619  0.00  0.00    +0.022 A 
ATOM     12  C   LIG    1       26.332 -28.205   8.710  0.00  0.00    +0.025 A 
ATOM     13  C   LIG    1       25.954 -29.551   8.854  0.00  0.00    +0.046 A 
ENDROOT
BRANCH   6  14
ATOM     14  C   LIG    1       25.365 -32.250   6.395  0.00  0.00    +0.036 A 
ATOM     15  C   LIG    1       24.404 -32.643   5.456  0.00  0.00    +0.133 A 
ATOM     16  F   LIG    1       23.101 -32.389   5.646  0.00  0.00    -0.205 F 
ATOM     17  C   LIG    1       24.767 -33.302   4.282  0.00  0.00    +0.039 A 
ATOM     18  C   LIG    1       26.110 -33.550   4.015  0.00  0.00    +0.003 A 
ATOM     19  C   LIG    1       27.085 -33.135   4.923  0.00  0.00    +0.001 A 
ATOM     20  C   LIG    1       26.717 -32.488   6.110  0.00  0.00    +0.013 A 
ENDBRANCH   6  14
BRANCH   1  21
ATOM     21  C   LIG    1       27.567 -29.951  10.753  0.00  0.00    +0.129 C 
BRANCH  21  22
ATOM     22  C   LIG    1       27.299 -29.286  12.129  0.00  0.00    +0.104 C 
BRANCH  22  23
ATOM     23  N   LIG    1       26.272 -28.215  12.194  0.00  0.00    -0.301 NA
BRANCH  23  25
ATOM     24  C   LIG    1       23.815 -28.717  12.514  0.00  0.00    +0.020 C 
ATOM     25  C   LIG    1       25.188 -28.488  13.150  0.00  0.00    +0.081 C 
ENDBRANCH  23  25
BRANCH  23  26
ATOM     26  C   LIG    1       26.930 -26.912  12.430  0.00  0.00    +0.081 C 
ATOM     27  C   LIG    1       26.076 -25.824  13.076  0.00  0.00    +0.020 C 
ENDBRANCH  23  26
ENDBRANCH  22  23
ENDBRANCH  21  22
ENDBRANCH   1  21
TORSDOF 6
ENDMDL
MODEL 7
REMARK VINA RESULT:      -5.9      6.867      9.985
REMARK  Name = *****
REMARK                            x       y       z     vdW  Elec       q    Type
REMARK                         _______ _______ _______ _____ _____    ______ ____
ROOT
ATOM      1  N   LIG    1       24.912 -29.979   8.779  0.00  0.00    -0.268 N 
ATOM      2  C   LIG    1       23.919 -30.976   8.731  0.00  0.00    +0.241 C 
ATOM      3  O   LIG    1       23.395 -31.341   7.683  0.00  0.00    -0.273 OA
ATOM      4  C   LIG    1       23.548 -31.661  10.049  0.00  0.00    +0.238 C 
ATOM      5  N   LIG    1       22.802 -30.718  10.885  0.00  0.00    -0.273 NA
ATOM      6  C   LIG    1       23.485 -29.751  11.405  0.00  0.00    +0.078 C 
ATOM      7  C   LIG    1       24.959 -29.625  11.256  0.00  0.00    +0.023 A 
ATOM      8  C   LIG    1       25.690 -29.431  12.440  0.00  0.00    +0.032 A 
ATOM      9  C   LIG    1       27.019 -29.050  12.370  0.00  0.00    +0.042 A 
ATOM     10 CL   LIG    1       27.896 -28.744  13.815  0.00  0.00    -0.084 Cl
ATOM     11  C   LIG    1       27.630 -28.887  11.133  0.00  0.00    +0.022 A 
ATOM     12  C   LIG    1       26.921 -29.170   9.955  0.00  0.00    +0.025 A 
ATOM     13  C   LIG    1       25.579 -29.586   9.989  0.00  0.00    +0.046 A 
ENDROOT
BRANCH   6  14
ATOM     14  C   LIG    1       22.754 -28.709  12.209  0.00  0.00    +0.036 A 
ATOM     15  C   LIG    1       21.364 -28.746  12.370  0.00  0.00    +0.133 A 
ATOM     16  F   LIG    1       20.630 -29.744  11.856  0.00  0.00    -0.205 F 
ATOM     17  C   LIG    1       20.692 -27.753  13.082  0.00  0.00    +0.039 A 
ATOM     18  C   LIG    1       21.412 -26.719  13.674  0.00  0.00    +0.003 A 
ATOM     19  C   LIG    1       22.802 -26.685  13.553  0.00  0.00    +0.001 A 
ATOM     20  C   LIG    1       23.473 -27.674  12.823  0.00  0.00    +0.013 A 
ENDBRANCH   6  14
BRANCH   1  21
ATOM     21  C   LIG    1       25.295 -29.359   7.492  0.00  0.00    +0.129 C 
BRANCH  21  22
ATOM     22  C   LIG    1       24.389 -28.153   7.125  0.00  0.00    +0.104 C 
BRANCH  22  23
ATOM     23  N   LIG    1       25.049 -26.863   6.799  0.00  0.00    -0.301 NA
BRANCH  23  25
ATOM     24  C   LIG    1       26.414 -27.141   4.689  0.00  0.00    +0.020 C 
ATOM     25  C   LIG    1       26.390 -27.012   6.215  0.00  0.00    +0.081 C 
ENDBRANCH  23  25
BRANCH  23  26
ATOM     26  C   LIG    1       24.147 -26.044   5.962  0.00  0.00    +0.081 C 
ATOM     27  C   LIG    1       23.740 -24.685   6.527  0.00  0.00    +0.020 C 
ENDBRANCH  23  26
ENDBRANCH  22  23
ENDBRANCH  21  22
ENDBRANCH   1  21
TORSDOF 6
ENDMDL
MODEL 8
REMARK VINA RESULT:      -5.9      8.251     10.359
REMARK  Name = *****
REMARK                            x       y       z     vdW  Elec       q    Type
REMARK                         _______ _______ _______ _____ _____    ______ ____
ROOT
ATOM      1  N   LIG    1       24.399 -30.268  12.703  0.00  0.00    -0.268 N 
ATOM      2  C   LIG    1       25.405 -31.249  12.627  0.00  0.00    +0.241 C 
ATOM      3  O   LIG    1       26.453 -31.177  13.263  0.00  0.00    -0.273 OA
ATOM      4  C   LIG    1       25.121 -32.479  11.761  0.00  0.00    +0.238 C 
ATOM      5  N   LIG    1       25.159 -32.088  10.349  0.00  0.00    -0.273 NA
ATOM      6  C   LIG    1       24.166 -31.374   9.928  0.00  0.00    +0.078 C 
ATOM      7  C   LIG    1       22.995 -31.028  10.777  0.00  0.00    +0.023 A 
ATOM      8  C   LIG    1       21.730 -31.288  10.226  0.00  0.00    +0.032 A 
ATOM      9  C   LIG    1       20.599 -30.766  10.832  0.00  0.00    +0.042 A 
ATOM     10 CL   LIG    1       19.055 -31.023  10.122  0.00  0.00    -0.084 Cl
ATOM     11  C   LIG    1       20.719 -30.010  11.990  0.00  0.00    +0.022 A 
ATOM     12  C   LIG    1       21.977 -29.829  12.586  0.00  0.00    +0.025 A 
ATOM     13  C   LIG    1       23.142 -30.369  12.015  0.00  0.00    +0.046 A 
ENDROOT
BRANCH   6  14
ATOM     14  C   LIG    1       24.192 -30.879   8.506  0.00  0.00    +0.036 A 
ATOM     15  C   LIG    1       24.043 -31.751   7.420  0.00  0.00    +0.133 A 
ATOM     16  F   LIG    1       23.819 -33.060   7.606  0.00  0.00    -0.205 F 
ATOM     17  C   LIG    1       24.109 -31.288   6.107  0.00  0.00    +0.039 A 
ATOM     18  C   LIG    1       24.295 -29.931   5.861  0.00  0.00    +0.003 A 
ATOM     19  C   LIG    1       24.411 -29.042   6.930  0.00  0.00    +0.001 A 
ATOM     20  C   LIG    1       24.361 -29.511   8.249  0.00  0.00    +0.013 A 
ENDBRANCH   6  14
BRANCH   1  21
ATOM     21  C   LIG    1       24.666 -29.108  13.582  0.00  0.00    +0.129 C 
BRANCH  21  22
ATOM     22  C   LIG    1       25.158 -27.868  12.790  0.00  0.00    +0.104 C 
BRANCH  22  23
ATOM     23  N   LIG    1       26.594 -27.500  12.897  0.00  0.00    -0.301 NA
BRANCH  23  25
ATOM     24  C   LIG    1       26.754 -28.312  10.508  0.00  0.00    +0.020 C 
ATOM     25  C   LIG    1       27.442 -28.108  11.860  0.00  0.00    +0.081 C 
ENDBRANCH  23  25
BRANCH  23  26
ATOM     26  C   LIG    1       26.724 -26.029  12.954  0.00  0.00    +0.081 C 
ATOM     27  C   LIG    1       25.536 -25.262  13.531  0.00  0.00    +0.020 C 
ENDBRANCH  23  26
ENDBRANCH  22  23
ENDBRANCH  21  22
ENDBRANCH   1  21
TORSDOF 6
ENDMDL
MODEL 9
REMARK VINA RESULT:      -5.8      7.325      9.339
REMARK  Name = *****
REMARK                            x       y       z     vdW  Elec       q    Type
REMARK                         _______ _______ _______ _____ _____    ______ ____
ROOT
ATOM      1  N   LIG    1       25.669 -29.589   9.984  0.00  0.00    -0.268 N 
ATOM      2  C   LIG    1       24.606 -30.264  10.612  0.00  0.00    +0.241 C 
ATOM      3  O   LIG    1       24.681 -30.703  11.755  0.00  0.00    -0.273 OA
ATOM      4  C   LIG    1       23.292 -30.380   9.835  0.00  0.00    +0.238 C 
ATOM      5  N   LIG    1       23.470 -31.329   8.733  0.00  0.00    -0.273 NA
ATOM      6  C   LIG    1       24.196 -30.924   7.742  0.00  0.00    +0.078 C 
ATOM      7  C   LIG    1       24.758 -29.551   7.654  0.00  0.00    +0.023 A 
ATOM      8  C   LIG    1       24.529 -28.861   6.452  0.00  0.00    +0.032 A 
ATOM      9  C   LIG    1       25.227 -27.694   6.188  0.00  0.00    +0.042 A 
ATOM     10 CL   LIG    1       25.000 -26.885   4.689  0.00  0.00    -0.084 Cl
ATOM     11  C   LIG    1       26.130 -27.199   7.121  0.00  0.00    +0.022 A 
ATOM     12  C   LIG    1       26.288 -27.844   8.357  0.00  0.00    +0.025 A 
ATOM     13  C   LIG    1       25.575 -29.013   8.671  0.00  0.00    +0.046 A 
ENDROOT
BRANCH   6  14
ATOM     14  C   LIG    1       24.476 -31.887   6.619  0.00  0.00    +0.036 A 
ATOM     15  C   LIG    1       25.784 -32.235   6.258  0.00  0.00    +0.133 A 
ATOM     16  F   LIG    1       26.841 -31.762   6.935  0.00  0.00    -0.205 F 
ATOM     17  C   LIG    1       26.034 -33.095   5.190  0.00  0.00    +0.039 A 
ATOM     18  C   LIG    1       24.971 -33.648   4.483  0.00  0.00    +0.003 A 
ATOM     19  C   LIG    1       23.660 -33.341   4.851  0.00  0.00    +0.001 A 
ATOM     20  C   LIG    1       23.410 -32.463   5.914  0.00  0.00    +0.013 A 
ENDBRANCH   6  14
BRANCH   1  21
ATOM     21  C   LIG    1       26.918 -29.442  10.765  0.00  0.00    +0.129 C 
BRANCH  21  22
ATOM     22  C   LIG    1       26.910 -28.173  11.658  0.00  0.00    +0.104 C 
BRANCH  22  23
ATOM     23  N   LIG    1       27.141 -28.349  13.115  0.00  0.00    -0.301 NA
BRANCH  23  25
ATOM     24  C   LIG    1       24.768 -27.482  13.183  0.00  0.00    +0.020 C 
ATOM     25  C   LIG    1       25.955 -28.081  13.942  0.00  0.00    +0.081 C 
ENDBRANCH  23  25
BRANCH  23  26
ATOM     26  C   LIG    1       27.726 -29.683  13.365  0.00  0.00    +0.081 C 
ATOM     27  C   LIG    1       27.051 -30.532  14.441  0.00  0.00    +0.020 C 
ENDBRANCH  23  26
ENDBRANCH  22  23
ENDBRANCH  21  22
ENDBRANCH   1  21
TORSDOF 6
ENDMDL
