MODEL 1
REMARK VINA RESULT:      -8.7      0.000      0.000
REMARK  Name = *****
REMARK                            x       y       z     vdW  Elec       q    Type
REMARK                         _______ _______ _______ _____ _____    ______ ____
ROOT
ATOM      1  O   LIG    1       24.382 -26.736   5.948  0.00  0.00    -0.490 OA
ENDROOT
BRANCH   1   5
ATOM      2  C   LIG    1       24.662 -22.665   6.949  0.00  0.00    -0.042 A 
ATOM      3  C   LIG    1       23.415 -23.279   6.866  0.00  0.00    +0.008 A 
ATOM      4  C   LIG    1       23.296 -24.623   6.525  0.00  0.00    +0.046 A 
ATOM      5  C   LIG    1       24.435 -25.412   6.298  0.00  0.00    +0.121 A 
ATOM      6  C   LIG    1       25.683 -24.839   6.430  0.00  0.00    +0.046 A 
ATOM      7  C   LIG    1       25.802 -23.485   6.763  0.00  0.00    +0.008 A 
BRANCH   2   8
ATOM      8  C   LIG    1       24.785 -21.144   7.116  0.00  0.00    -0.009 C 
ATOM      9  C   LIG    1       23.531 -20.478   7.714  0.00  0.00    +0.016 C 
ATOM     10  C   LIG    1       25.889 -20.920   8.215  0.00  0.00    +0.016 C 
BRANCH   8  11
ATOM     11  C   LIG    1       25.262 -20.420   5.807  0.00  0.00    +0.017 C 
BRANCH  11  13
ATOM     12  C   LIG    1       25.059 -19.175   3.642  0.00  0.00    +0.011 C 
ATOM     13  C   LIG    1       24.342 -20.207   4.550  0.00  0.00    -0.037 C 
ATOM     14  C   LIG    1       24.145 -21.484   3.717  0.00  0.00    +0.011 C 
ATOM     15  C   LIG    1       22.958 -19.619   4.867  0.00  0.00    +0.011 C 
ENDBRANCH  11  13
ENDBRANCH   8  11
ENDBRANCH   2   8
ENDBRANCH   1   5
BRANCH   1  16
ATOM     16  C   LIG    1       25.275 -27.580   6.678  0.00  0.00    +0.257 C 
BRANCH  16  17
ATOM     17  C   LIG    1       24.870 -29.040   6.528  0.00  0.00    +0.201 C 
BRANCH  17  18
ATOM     18  O   LIG    1       23.833 -29.354   7.470  0.00  0.00    -0.371 OA
BRANCH  18  19
ATOM     19  C   LIG    1       24.225 -30.399   8.354  0.00  0.00    +0.210 C 
BRANCH  19  20
ATOM     20  C   LIG    1       23.682 -30.137   9.771  0.00  0.00    +0.161 C 
BRANCH  20  21
ATOM     21  N   LIG    1       24.744 -30.222  10.902  0.00  0.00    +0.244 N 
ATOM     22  C   LIG    1       25.782 -29.106  10.731  0.00  0.00    +0.192 C 
ATOM     23  C   LIG    1       25.491 -31.550  10.760  0.00  0.00    +0.192 C 
BRANCH  21  24
ATOM     24  C   LIG    1       24.128 -30.117  12.313  0.00  0.00    +0.169 C 
BRANCH  24  25
ATOM     25  C   LIG    1       23.363 -28.853  12.639  0.00  0.00    -0.003 A 
ATOM     26  C   LIG    1       21.968 -28.800  12.476  0.00  0.00    +0.009 A 
ATOM     27  C   LIG    1       21.255 -27.640  12.792  0.00  0.00    +0.001 A 
ATOM     28  C   LIG    1       21.922 -26.516  13.271  0.00  0.00    +0.000 A 
ATOM     29  C   LIG    1       23.301 -26.553  13.448  0.00  0.00    +0.001 A 
ATOM     30  C   LIG    1       24.014 -27.716  13.146  0.00  0.00    +0.009 A 
ENDBRANCH  24  25
ENDBRANCH  21  24
ENDBRANCH  20  21
ENDBRANCH  19  20
ENDBRANCH  18  19
ENDBRANCH  17  18
ENDBRANCH  16  17
ENDBRANCH   1  16
TORSDOF 12
ENDMDL
MODEL 2
REMARK VINA RESULT:      -8.4      1.834      2.546
REMARK  Name = *****
REMARK                            x       y       z     vdW  Elec       q    Type
REMARK                         _______ _______ _______ _____ _____    ______ ____
ROOT
ATOM      1  O   LIG    1       24.293 -26.704   6.103  0.00  0.00    -0.490 OA
ENDROOT
BRANCH   1   5
ATOM      2  C   LIG    1       24.652 -22.610   6.974  0.00  0.00    -0.042 A 
ATOM      3  C   LIG    1       23.392 -23.188   6.846  0.00  0.00    +0.008 A 
ATOM      4  C   LIG    1       23.248 -24.539   6.546  0.00  0.00    +0.046 A 
ATOM      5  C   LIG    1       24.371 -25.371   6.408  0.00  0.00    +0.121 A 
ATOM      6  C   LIG    1       25.628 -24.832   6.588  0.00  0.00    +0.046 A 
ATOM      7  C   LIG    1       25.773 -23.470   6.880  0.00  0.00    +0.008 A 
BRANCH   2   8
ATOM      8  C   LIG    1       24.816 -21.088   7.094  0.00  0.00    -0.009 C 
ATOM      9  C   LIG    1       23.590 -20.374   7.695  0.00  0.00    +0.016 C 
ATOM     10  C   LIG    1       25.946 -20.861   8.166  0.00  0.00    +0.016 C 
BRANCH   8  11
ATOM     11  C   LIG    1       25.285 -20.414   5.756  0.00  0.00    +0.017 C 
BRANCH  11  13
ATOM     12  C   LIG    1       25.028 -19.138   3.616  0.00  0.00    +0.011 C 
ATOM     13  C   LIG    1       24.340 -20.194   4.519  0.00  0.00    -0.037 C 
ATOM     14  C   LIG    1       24.146 -21.460   3.669  0.00  0.00    +0.011 C 
ATOM     15  C   LIG    1       22.954 -19.630   4.869  0.00  0.00    +0.011 C 
ENDBRANCH  11  13
ENDBRANCH   8  11
ENDBRANCH   2   8
ENDBRANCH   1   5
BRANCH   1  16
ATOM     16  C   LIG    1       25.492 -27.262   5.563  0.00  0.00    +0.257 C 
BRANCH  16  17
ATOM     17  C   LIG    1       25.287 -28.729   5.212  0.00  0.00    +0.201 C 
BRANCH  17  18
ATOM     18  O   LIG    1       24.024 -29.178   5.726  0.00  0.00    -0.371 OA
BRANCH  18  19
ATOM     19  C   LIG    1       24.137 -30.447   6.361  0.00  0.00    +0.210 C 
BRANCH  19  20
ATOM     20  C   LIG    1       24.973 -30.331   7.649  0.00  0.00    +0.161 C 
BRANCH  20  21
ATOM     21  N   LIG    1       25.781 -31.607   8.019  0.00  0.00    +0.244 N 
ATOM     22  C   LIG    1       26.547 -32.116   6.791  0.00  0.00    +0.192 C 
ATOM     23  C   LIG    1       24.792 -32.704   8.414  0.00  0.00    +0.192 C 
BRANCH  21  24
ATOM     24  C   LIG    1       26.785 -31.369   9.167  0.00  0.00    +0.169 C 
BRANCH  24  25
ATOM     25  C   LIG    1       26.457 -30.270  10.154  0.00  0.00    -0.003 A 
ATOM     26  C   LIG    1       25.515 -30.483  11.174  0.00  0.00    +0.009 A 
ATOM     27  C   LIG    1       25.222 -29.477  12.098  0.00  0.00    +0.001 A 
ATOM     28  C   LIG    1       25.859 -28.242  12.015  0.00  0.00    +0.000 A 
ATOM     29  C   LIG    1       26.801 -28.015  11.017  0.00  0.00    +0.001 A 
ATOM     30  C   LIG    1       27.107 -29.025  10.102  0.00  0.00    +0.009 A 
ENDBRANCH  24  25
ENDBRANCH  21  24
ENDBRANCH  20  21
ENDBRANCH  19  20
ENDBRANCH  18  19
ENDBRANCH  17  18
ENDBRANCH  16  17
ENDBRANCH   1  16
TORSDOF 12
ENDMDL
MODEL 3
REMARK VINA RESULT:      -8.3      1.445      2.261
REMARK  Name = *****
REMARK                            x       y       z     vdW  Elec       q    Type
REMARK                         _______ _______ _______ _____ _____    ______ ____
ROOT
ATOM      1  O   LIG    1       24.240 -26.714   6.184  0.00  0.00    -0.490 OA
ENDROOT
BRANCH   1   5
ATOM      2  C   LIG    1       24.637 -22.606   6.976  0.00  0.00    -0.042 A 
ATOM      3  C   LIG    1       23.373 -23.170   6.829  0.00  0.00    +0.008 A 
ATOM      4  C   LIG    1       23.216 -24.525   6.555  0.00  0.00    +0.046 A 
ATOM      5  C   LIG    1       24.330 -25.375   6.462  0.00  0.00    +0.121 A 
ATOM      6  C   LIG    1       25.590 -24.850   6.661  0.00  0.00    +0.046 A 
ATOM      7  C   LIG    1       25.748 -23.484   6.927  0.00  0.00    +0.008 A 
BRANCH   2   8
ATOM      8  C   LIG    1       24.819 -21.085   7.067  0.00  0.00    -0.009 C 
ATOM      9  C   LIG    1       23.603 -20.344   7.654  0.00  0.00    +0.016 C 
ATOM     10  C   LIG    1       25.952 -20.851   8.135  0.00  0.00    +0.016 C 
BRANCH   8  11
ATOM     11  C   LIG    1       25.297 -20.442   5.716  0.00  0.00    +0.017 C 
BRANCH  11  13
ATOM     12  C   LIG    1       25.034 -19.120   3.606  0.00  0.00    +0.011 C 
ATOM     13  C   LIG    1       24.343 -20.187   4.493  0.00  0.00    -0.037 C 
ATOM     14  C   LIG    1       24.127 -21.433   3.620  0.00  0.00    +0.011 C 
ATOM     15  C   LIG    1       22.967 -19.616   4.869  0.00  0.00    +0.011 C 
ENDBRANCH  11  13
ENDBRANCH   8  11
ENDBRANCH   2   8
ENDBRANCH   1   5
BRANCH   1  16
ATOM     16  C   LIG    1       25.235 -27.201   5.282  0.00  0.00    +0.257 C 
BRANCH  16  17
ATOM     17  C   LIG    1       25.087 -28.704   5.087  0.00  0.00    +0.201 C 
BRANCH  17  18
ATOM     18  O   LIG    1       24.031 -29.199   5.923  0.00  0.00    -0.371 OA
BRANCH  18  19
ATOM     19  C   LIG    1       24.504 -30.177   6.844  0.00  0.00    +0.210 C 
BRANCH  19  20
ATOM     20  C   LIG    1       24.210 -29.739   8.291  0.00  0.00    +0.161 C 
BRANCH  20  21
ATOM     21  N   LIG    1       23.953 -30.906   9.285  0.00  0.00    +0.244 N 
ATOM     22  C   LIG    1       23.826 -32.229   8.519  0.00  0.00    +0.192 C 
ATOM     23  C   LIG    1       22.610 -30.661   9.975  0.00  0.00    +0.192 C 
BRANCH  21  24
ATOM     24  C   LIG    1       25.066 -31.050  10.343  0.00  0.00    +0.169 C 
BRANCH  24  25
ATOM     25  C   LIG    1       25.535 -29.784  11.028  0.00  0.00    -0.003 A 
ATOM     26  C   LIG    1       26.712 -29.140  10.612  0.00  0.00    +0.009 A 
ATOM     27  C   LIG    1       27.139 -27.962  11.230  0.00  0.00    +0.001 A 
ATOM     28  C   LIG    1       26.402 -27.412  12.276  0.00  0.00    +0.000 A 
ATOM     29  C   LIG    1       25.229 -28.031  12.695  0.00  0.00    +0.001 A 
ATOM     30  C   LIG    1       24.793 -29.200  12.069  0.00  0.00    +0.009 A 
ENDBRANCH  24  25
ENDBRANCH  21  24
ENDBRANCH  20  21
ENDBRANCH  19  20
ENDBRANCH  18  19
ENDBRANCH  17  18
ENDBRANCH  16  17
ENDBRANCH   1  16
TORSDOF 12
ENDMDL
MODEL 4
REMARK VINA RESULT:      -8.1      0.794      1.671
REMARK  Name = *****
REMARK                            x       y       z     vdW  Elec       q    Type
REMARK                         _______ _______ _______ _____ _____    ______ ____
ROOT
ATOM      1  O   LIG    1       24.337 -26.910   6.352  0.00  0.00    -0.490 OA
ENDROOT
BRANCH   1   5
ATOM      2  C   LIG    1       24.784 -22.746   6.692  0.00  0.00    -0.042 A 
ATOM      3  C   LIG    1       25.907 -23.566   6.633  0.00  0.00    +0.008 A 
ATOM      4  C   LIG    1       25.785 -24.948   6.532  0.00  0.00    +0.046 A 
ATOM      5  C   LIG    1       24.522 -25.555   6.442  0.00  0.00    +0.121 A 
ATOM      6  C   LIG    1       23.396 -24.758   6.441  0.00  0.00    +0.046 A 
ATOM      7  C   LIG    1       23.519 -23.368   6.552  0.00  0.00    +0.008 A 
BRANCH   2   8
ATOM      8  C   LIG    1       24.912 -21.251   7.014  0.00  0.00    -0.009 C 
ATOM      9  C   LIG    1       23.701 -20.668   7.767  0.00  0.00    +0.016 C 
ATOM     10  C   LIG    1       26.091 -21.133   8.051  0.00  0.00    +0.016 C 
BRANCH   8  11
ATOM     11  C   LIG    1       25.292 -20.384   5.761  0.00  0.00    +0.017 C 
BRANCH  11  13
ATOM     12  C   LIG    1       24.935 -18.980   3.717  0.00  0.00    +0.011 C 
ATOM     13  C   LIG    1       24.313 -20.125   4.558  0.00  0.00    -0.037 C 
ATOM     14  C   LIG    1       24.157 -21.338   3.628  0.00  0.00    +0.011 C 
ATOM     15  C   LIG    1       22.911 -19.649   4.971  0.00  0.00    +0.011 C 
ENDBRANCH  11  13
ENDBRANCH   8  11
ENDBRANCH   2   8
ENDBRANCH   1   5
BRANCH   1  16
ATOM     16  C   LIG    1       25.392 -27.692   6.915  0.00  0.00    +0.257 C 
BRANCH  16  17
ATOM     17  C   LIG    1       25.054 -29.175   6.843  0.00  0.00    +0.201 C 
BRANCH  17  18
ATOM     18  O   LIG    1       25.220 -29.773   8.138  0.00  0.00    -0.371 OA
BRANCH  18  19
ATOM     19  C   LIG    1       23.967 -30.079   8.740  0.00  0.00    +0.210 C 
BRANCH  19  20
ATOM     20  C   LIG    1       24.069 -29.980  10.273  0.00  0.00    +0.161 C 
BRANCH  20  21
ATOM     21  N   LIG    1       23.201 -31.008  11.052  0.00  0.00    +0.244 N 
ATOM     22  C   LIG    1       23.875 -32.385  11.030  0.00  0.00    +0.192 C 
ATOM     23  C   LIG    1       21.863 -31.155  10.324  0.00  0.00    +0.192 C 
BRANCH  21  24
ATOM     24  C   LIG    1       22.956 -30.597  12.519  0.00  0.00    +0.169 C 
BRANCH  24  25
ATOM     25  C   LIG    1       22.651 -29.140  12.786  0.00  0.00    -0.003 A 
ATOM     26  C   LIG    1       23.678 -28.246  13.130  0.00  0.00    +0.009 A 
ATOM     27  C   LIG    1       23.403 -26.895  13.361  0.00  0.00    +0.001 A 
ATOM     28  C   LIG    1       22.100 -26.417  13.257  0.00  0.00    +0.000 A 
ATOM     29  C   LIG    1       21.071 -27.285  12.908  0.00  0.00    +0.001 A 
ATOM     30  C   LIG    1       21.346 -28.633  12.662  0.00  0.00    +0.009 A 
ENDBRANCH  24  25
ENDBRANCH  21  24
ENDBRANCH  20  21
ENDBRANCH  19  20
ENDBRANCH  18  19
ENDBRANCH  17  18
ENDBRANCH  16  17
ENDBRANCH   1  16
TORSDOF 12
ENDMDL
MODEL 5
REMARK VINA RESULT:      -8.1      4.740     10.121
REMARK  Name = *****
REMARK                            x       y       z     vdW  Elec       q    Type
REMARK                         _______ _______ _______ _____ _____    ______ ____
ROOT
ATOM      1  O   LIG    1       24.443 -21.600   7.077  0.00  0.00    -0.490 OA
ENDROOT
BRANCH   1   5
ATOM      2  C   LIG    1       25.027 -25.732   6.587  0.00  0.00    -0.042 A 
ATOM      3  C   LIG    1       26.084 -24.920   6.989  0.00  0.00    +0.008 A 
ATOM      4  C   LIG    1       25.918 -23.548   7.147  0.00  0.00    +0.046 A 
ATOM      5  C   LIG    1       24.665 -22.946   6.948  0.00  0.00    +0.121 A 
ATOM      6  C   LIG    1       23.590 -23.739   6.605  0.00  0.00    +0.046 A 
ATOM      7  C   LIG    1       23.759 -25.118   6.437  0.00  0.00    +0.008 A 
BRANCH   2   8
ATOM      8  C   LIG    1       25.258 -27.202   6.210  0.00  0.00    -0.009 C 
ATOM      9  C   LIG    1       24.089 -27.838   5.433  0.00  0.00    +0.016 C 
ATOM     10  C   LIG    1       26.441 -27.199   5.172  0.00  0.00    +0.016 C 
BRANCH   8  11
ATOM     11  C   LIG    1       25.696 -28.086   7.431  0.00  0.00    +0.017 C 
BRANCH  11  13
ATOM     12  C   LIG    1       26.316 -30.240   8.551  0.00  0.00    +0.011 C 
ATOM     13  C   LIG    1       25.269 -29.589   7.610  0.00  0.00    -0.037 C 
ATOM     14  C   LIG    1       23.894 -29.754   8.278  0.00  0.00    +0.011 C 
ATOM     15  C   LIG    1       25.278 -30.412   6.313  0.00  0.00    +0.011 C 
ENDBRANCH  11  13
ENDBRANCH   8  11
ENDBRANCH   2   8
ENDBRANCH   1   5
BRANCH   1  16
ATOM     16  C   LIG    1       24.462 -20.873   5.847  0.00  0.00    +0.257 C 
BRANCH  16  17
ATOM     17  C   LIG    1       25.890 -20.510   5.466  0.00  0.00    +0.201 C 
BRANCH  17  18
ATOM     18  O   LIG    1       26.630 -20.154   6.643  0.00  0.00    -0.371 OA
BRANCH  18  19
ATOM     19  C   LIG    1       28.022 -20.410   6.486  0.00  0.00    +0.210 C 
BRANCH  19  20
ATOM     20  C   LIG    1       28.729 -20.401   7.854  0.00  0.00    +0.161 C 
BRANCH  20  21
ATOM     21  N   LIG    1       29.980 -19.483   7.936  0.00  0.00    +0.244 N 
ATOM     22  C   LIG    1       30.554 -19.253   6.532  0.00  0.00    +0.192 C 
ATOM     23  C   LIG    1       31.057 -20.210   8.744  0.00  0.00    +0.192 C 
BRANCH  21  24
ATOM     24  C   LIG    1       29.679 -18.113   8.580  0.00  0.00    +0.169 C 
BRANCH  24  25
ATOM     25  C   LIG    1       30.704 -17.565   9.548  0.00  0.00    -0.003 A 
ATOM     26  C   LIG    1       31.903 -17.003   9.078  0.00  0.00    +0.009 A 
ATOM     27  C   LIG    1       32.846 -16.481   9.967  0.00  0.00    +0.001 A 
ATOM     28  C   LIG    1       32.610 -16.515  11.339  0.00  0.00    +0.000 A 
ATOM     29  C   LIG    1       31.425 -17.060  11.823  0.00  0.00    +0.001 A 
ATOM     30  C   LIG    1       30.475 -17.569  10.934  0.00  0.00    +0.009 A 
ENDBRANCH  24  25
ENDBRANCH  21  24
ENDBRANCH  20  21
ENDBRANCH  19  20
ENDBRANCH  18  19
ENDBRANCH  17  18
ENDBRANCH  16  17
ENDBRANCH   1  16
TORSDOF 12
ENDMDL
MODEL 6
REMARK VINA RESULT:      -7.6      3.704      6.670
REMARK  Name = *****
REMARK                            x       y       z     vdW  Elec       q    Type
REMARK                         _______ _______ _______ _____ _____    ______ ____
ROOT
ATOM      1  O   LIG    1       23.909 -20.990   6.352  0.00  0.00    -0.490 OA
ENDROOT
BRANCH   1   5
ATOM      2  C   LIG    1       27.932 -19.959   6.987  0.00  0.00    -0.042 A 
ATOM      3  C   LIG    1       27.127 -20.321   8.062  0.00  0.00    +0.008 A 
ATOM      4  C   LIG    1       25.788 -20.654   7.879  0.00  0.00    +0.046 A 
ATOM      5  C   LIG    1       25.222 -20.680   6.594  0.00  0.00    +0.121 A 
ATOM      6  C   LIG    1       26.016 -20.381   5.507  0.00  0.00    +0.046 A 
ATOM      7  C   LIG    1       27.360 -20.036   5.693  0.00  0.00    +0.008 A 
BRANCH   2   8
ATOM      8  C   LIG    1       29.341 -19.390   7.209  0.00  0.00    -0.009 C 
ATOM      9  C   LIG    1       30.454 -20.454   7.193  0.00  0.00    +0.016 C 
ATOM     10  C   LIG    1       29.651 -18.504   5.945  0.00  0.00    +0.016 C 
BRANCH   8  11
ATOM     11  C   LIG    1       29.435 -18.465   8.475  0.00  0.00    +0.017 C 
BRANCH  11  13
ATOM     12  C   LIG    1       30.336 -17.594  10.644  0.00  0.00    +0.011 C 
ATOM     13  C   LIG    1       30.750 -18.282   9.317  0.00  0.00    -0.037 C 
ATOM     14  C   LIG    1       31.425 -19.612   9.687  0.00  0.00    +0.011 C 
ATOM     15  C   LIG    1       31.802 -17.371   8.665  0.00  0.00    +0.011 C 
ENDBRANCH  11  13
ENDBRANCH   8  11
ENDBRANCH   2   8
ENDBRANCH   1   5
BRANCH   1  16
ATOM     16  C   LIG    1       23.311 -21.847   7.327  0.00  0.00    +0.257 C 
BRANCH  16  17
ATOM     17  C   LIG    1       23.260 -23.280   6.817  0.00  0.00    +0.201 C 
BRANCH  17  18
ATOM     18  O   LIG    1       24.531 -23.914   7.028  0.00  0.00    -0.371 OA
BRANCH  18  19
ATOM     19  C   LIG    1       24.986 -24.580   5.855  0.00  0.00    +0.210 C 
BRANCH  19  20
ATOM     20  C   LIG    1       24.195 -25.883   5.635  0.00  0.00    +0.161 C 
BRANCH  20  21
ATOM     21  N   LIG    1       25.043 -27.183   5.723  0.00  0.00    +0.244 N 
ATOM     22  C   LIG    1       25.808 -27.221   7.052  0.00  0.00    +0.192 C 
ATOM     23  C   LIG    1       26.090 -27.149   4.607  0.00  0.00    +0.192 C 
BRANCH  21  24
ATOM     24  C   LIG    1       24.192 -28.464   5.603  0.00  0.00    +0.169 C 
BRANCH  24  25
ATOM     25  C   LIG    1       24.782 -29.741   6.161  0.00  0.00    -0.003 A 
ATOM     26  C   LIG    1       24.495 -30.146   7.475  0.00  0.00    +0.009 A 
ATOM     27  C   LIG    1       25.025 -31.333   7.989  0.00  0.00    +0.001 A 
ATOM     28  C   LIG    1       25.853 -32.130   7.203  0.00  0.00    +0.000 A 
ATOM     29  C   LIG    1       26.141 -31.749   5.897  0.00  0.00    +0.001 A 
ATOM     30  C   LIG    1       25.601 -30.571   5.376  0.00  0.00    +0.009 A 
ENDBRANCH  24  25
ENDBRANCH  21  24
ENDBRANCH  20  21
ENDBRANCH  19  20
ENDBRANCH  18  19
ENDBRANCH  17  18
ENDBRANCH  16  17
ENDBRANCH   1  16
TORSDOF 12
ENDMDL
MODEL 7
REMARK VINA RESULT:      -7.5      1.495      2.411
REMARK  Name = *****
REMARK                            x       y       z     vdW  Elec       q    Type
REMARK                         _______ _______ _______ _____ _____    ______ ____
ROOT
ATOM      1  O   LIG    1       25.684 -26.723   5.560  0.00  0.00    -0.490 OA
ENDROOT
BRANCH   1   5
ATOM      2  C   LIG    1       25.217 -22.624   6.353  0.00  0.00    -0.042 A 
ATOM      3  C   LIG    1       24.785 -23.154   5.140  0.00  0.00    +0.008 A 
ATOM      4  C   LIG    1       24.939 -24.506   4.850  0.00  0.00    +0.046 A 
ATOM      5  C   LIG    1       25.496 -25.386   5.792  0.00  0.00    +0.121 A 
ATOM      6  C   LIG    1       25.879 -24.894   7.022  0.00  0.00    +0.046 A 
ATOM      7  C   LIG    1       25.733 -23.531   7.310  0.00  0.00    +0.008 A 
BRANCH   2   8
ATOM      8  C   LIG    1       25.241 -21.107   6.590  0.00  0.00    -0.009 C 
ATOM      9  C   LIG    1       25.225 -20.272   5.295  0.00  0.00    +0.016 C 
ATOM     10  C   LIG    1       23.870 -20.758   7.279  0.00  0.00    +0.016 C 
BRANCH   8  11
ATOM     11  C   LIG    1       26.391 -20.656   7.560  0.00  0.00    +0.017 C 
BRANCH  11  13
ATOM     12  C   LIG    1       28.526 -19.457   8.086  0.00  0.00    +0.011 C 
ATOM     13  C   LIG    1       27.885 -20.474   7.107  0.00  0.00    -0.037 C 
ATOM     14  C   LIG    1       28.709 -21.769   7.193  0.00  0.00    +0.011 C 
ATOM     15  C   LIG    1       28.055 -19.887   5.696  0.00  0.00    +0.011 C 
ENDBRANCH  11  13
ENDBRANCH   8  11
ENDBRANCH   2   8
ENDBRANCH   1   5
BRANCH   1  16
ATOM     16  C   LIG    1       24.569 -27.548   5.906  0.00  0.00    +0.257 C 
BRANCH  16  17
ATOM     17  C   LIG    1       24.793 -28.975   5.426  0.00  0.00    +0.201 C 
BRANCH  17  18
ATOM     18  O   LIG    1       25.030 -29.834   6.551  0.00  0.00    -0.371 OA
BRANCH  18  19
ATOM     19  C   LIG    1       24.451 -29.310   7.742  0.00  0.00    +0.210 C 
BRANCH  19  20
ATOM     20  C   LIG    1       24.604 -30.313   8.901  0.00  0.00    +0.161 C 
BRANCH  20  21
ATOM     21  N   LIG    1       25.832 -30.063   9.821  0.00  0.00    +0.244 N 
ATOM     22  C   LIG    1       26.362 -28.639   9.612  0.00  0.00    +0.192 C 
ATOM     23  C   LIG    1       26.949 -31.020   9.401  0.00  0.00    +0.192 C 
BRANCH  21  24
ATOM     24  C   LIG    1       25.510 -30.259  11.317  0.00  0.00    +0.169 C 
BRANCH  24  25
ATOM     25  C   LIG    1       24.552 -29.275  11.952  0.00  0.00    -0.003 A 
ATOM     26  C   LIG    1       23.164 -29.486  11.888  0.00  0.00    +0.009 A 
ATOM     27  C   LIG    1       22.276 -28.589  12.487  0.00  0.00    +0.001 A 
ATOM     28  C   LIG    1       22.758 -27.466  13.155  0.00  0.00    +0.000 A 
ATOM     29  C   LIG    1       24.128 -27.245  13.236  0.00  0.00    +0.001 A 
ATOM     30  C   LIG    1       25.018 -28.149  12.650  0.00  0.00    +0.009 A 
ENDBRANCH  24  25
ENDBRANCH  21  24
ENDBRANCH  20  21
ENDBRANCH  19  20
ENDBRANCH  18  19
ENDBRANCH  17  18
ENDBRANCH  16  17
ENDBRANCH   1  16
TORSDOF 12
ENDMDL
MODEL 8
REMARK VINA RESULT:      -7.5      1.807      2.157
REMARK  Name = *****
REMARK                            x       y       z     vdW  Elec       q    Type
REMARK                         _______ _______ _______ _____ _____    ______ ____
ROOT
ATOM      1  O   LIG    1       24.255 -26.719   5.841  0.00  0.00    -0.490 OA
ENDROOT
BRANCH   1   5
ATOM      2  C   LIG    1       24.646 -22.673   6.905  0.00  0.00    -0.042 A 
ATOM      3  C   LIG    1       23.387 -23.265   6.860  0.00  0.00    +0.008 A 
ATOM      4  C   LIG    1       23.231 -24.600   6.499  0.00  0.00    +0.046 A 
ATOM      5  C   LIG    1       24.346 -25.403   6.212  0.00  0.00    +0.121 A 
ATOM      6  C   LIG    1       25.608 -24.854   6.306  0.00  0.00    +0.046 A 
ATOM      7  C   LIG    1       25.764 -23.509   6.660  0.00  0.00    +0.008 A 
BRANCH   2   8
ATOM      8  C   LIG    1       24.802 -21.158   7.095  0.00  0.00    -0.009 C 
ATOM      9  C   LIG    1       23.573 -20.478   7.728  0.00  0.00    +0.016 C 
ATOM     10  C   LIG    1       25.931 -20.975   8.176  0.00  0.00    +0.016 C 
BRANCH   8  11
ATOM     11  C   LIG    1       25.268 -20.421   5.789  0.00  0.00    +0.017 C 
BRANCH  11  13
ATOM     12  C   LIG    1       25.062 -19.170   3.628  0.00  0.00    +0.011 C 
ATOM     13  C   LIG    1       24.334 -20.185   4.547  0.00  0.00    -0.037 C 
ATOM     14  C   LIG    1       24.093 -21.457   3.717  0.00  0.00    +0.011 C 
ATOM     15  C   LIG    1       22.970 -19.564   4.886  0.00  0.00    +0.011 C 
ENDBRANCH  11  13
ENDBRANCH   8  11
ENDBRANCH   2   8
ENDBRANCH   1   5
BRANCH   1  16
ATOM     16  C   LIG    1       25.490 -27.306   5.425  0.00  0.00    +0.257 C 
BRANCH  16  17
ATOM     17  C   LIG    1       25.413 -28.824   5.504  0.00  0.00    +0.201 C 
BRANCH  17  18
ATOM     18  O   LIG    1       24.059 -29.227   5.759  0.00  0.00    -0.371 OA
BRANCH  18  19
ATOM     19  C   LIG    1       23.964 -30.050   6.917  0.00  0.00    +0.210 C 
BRANCH  19  20
ATOM     20  C   LIG    1       25.356 -30.572   7.320  0.00  0.00    +0.161 C 
BRANCH  20  21
ATOM     21  N   LIG    1       25.489 -30.989   8.812  0.00  0.00    +0.244 N 
ATOM     22  C   LIG    1       26.962 -31.242   9.156  0.00  0.00    +0.192 C 
ATOM     23  C   LIG    1       24.752 -32.316   9.005  0.00  0.00    +0.192 C 
BRANCH  21  24
ATOM     24  C   LIG    1       24.925 -29.931   9.784  0.00  0.00    +0.169 C 
BRANCH  24  25
ATOM     25  C   LIG    1       23.899 -30.397  10.792  0.00  0.00    -0.003 A 
ATOM     26  C   LIG    1       24.301 -30.913  12.036  0.00  0.00    +0.009 A 
ATOM     27  C   LIG    1       23.356 -31.329  12.977  0.00  0.00    +0.001 A 
ATOM     28  C   LIG    1       21.996 -31.243  12.691  0.00  0.00    +0.000 A 
ATOM     29  C   LIG    1       21.579 -30.727  11.468  0.00  0.00    +0.001 A 
ATOM     30  C   LIG    1       22.522 -30.296  10.532  0.00  0.00    +0.009 A 
ENDBRANCH  24  25
ENDBRANCH  21  24
ENDBRANCH  20  21
ENDBRANCH  19  20
ENDBRANCH  18  19
ENDBRANCH  17  18
ENDBRANCH  16  17
ENDBRANCH   1  16
TORSDOF 12
ENDMDL
MODEL 9
REMARK VINA RESULT:      -7.4      1.447      2.312
REMARK  Name = *****
REMARK                            x       y       z     vdW  Elec       q    Type
REMARK                         _______ _______ _______ _____ _____    ______ ____
ROOT
ATOM      1  O   LIG    1       25.630 -28.871   6.501  0.00  0.00    -0.490 OA
ENDROOT
BRANCH   1   5
ATOM      2  C   LIG    1       24.723 -24.774   6.290  0.00  0.00    -0.042 A 
ATOM      3  C   LIG    1       25.914 -25.196   6.875  0.00  0.00    +0.008 A 
ATOM      4  C   LIG    1       26.231 -26.548   6.968  0.00  0.00    +0.046 A 
ATOM      5  C   LIG    1       25.377 -27.526   6.431  0.00  0.00    +0.121 A 
ATOM      6  C   LIG    1       24.220 -27.128   5.796  0.00  0.00    +0.046 A 
ATOM      7  C   LIG    1       23.897 -25.768   5.711  0.00  0.00    +0.008 A 
BRANCH   2   8
ATOM      8  C   LIG    1       24.276 -23.308   6.375  0.00  0.00    -0.009 C 
ATOM      9  C   LIG    1       22.830 -23.124   6.872  0.00  0.00    +0.016 C 
ATOM     10  C   LIG    1       25.149 -22.657   7.512  0.00  0.00    +0.016 C 
BRANCH   8  11
ATOM     11  C   LIG    1       24.544 -22.507   5.051  0.00  0.00    +0.017 C 
BRANCH  11  13
ATOM     12  C   LIG    1       25.784 -20.386   5.539  0.00  0.00    +0.011 C 
ATOM     13  C   LIG    1       24.459 -20.941   4.954  0.00  0.00    -0.037 C 
ATOM     14  C   LIG    1       24.350 -20.425   3.510  0.00  0.00    +0.011 C 
ATOM     15  C   LIG    1       23.323 -20.313   5.778  0.00  0.00    +0.011 C 
ENDBRANCH  11  13
ENDBRANCH   8  11
ENDBRANCH   2   8
ENDBRANCH   1   5
BRANCH   1  16
ATOM     16  C   LIG    1       25.131 -29.509   7.679  0.00  0.00    +0.257 C 
BRANCH  16  17
ATOM     17  C   LIG    1       24.277 -30.714   7.311  0.00  0.00    +0.201 C 
BRANCH  17  18
ATOM     18  O   LIG    1       23.196 -30.844   8.246  0.00  0.00    -0.371 OA
BRANCH  18  19
ATOM     19  C   LIG    1       23.612 -30.549   9.576  0.00  0.00    +0.210 C 
BRANCH  19  20
ATOM     20  C   LIG    1       22.389 -30.341  10.488  0.00  0.00    +0.161 C 
BRANCH  20  21
ATOM     21  N   LIG    1       22.249 -31.380  11.637  0.00  0.00    +0.244 N 
ATOM     22  C   LIG    1       23.494 -32.274  11.689  0.00  0.00    +0.192 C 
ATOM     23  C   LIG    1       21.060 -32.288  11.319  0.00  0.00    +0.192 C 
BRANCH  21  24
ATOM     24  C   LIG    1       22.051 -30.722  13.019  0.00  0.00    +0.169 C 
BRANCH  24  25
ATOM     25  C   LIG    1       22.118 -29.212  13.081  0.00  0.00    -0.003 A 
ATOM     26  C   LIG    1       20.944 -28.442  13.047  0.00  0.00    +0.009 A 
ATOM     27  C   LIG    1       21.000 -27.048  13.121  0.00  0.00    +0.001 A 
ATOM     28  C   LIG    1       22.229 -26.401  13.225  0.00  0.00    +0.000 A 
ATOM     29  C   LIG    1       23.401 -27.147  13.270  0.00  0.00    +0.001 A 
ATOM     30  C   LIG    1       23.346 -28.541  13.211  0.00  0.00    +0.009 A 
ENDBRANCH  24  25
ENDBRANCH  21  24
ENDBRANCH  20  21
ENDBRANCH  19  20
ENDBRANCH  18  19
ENDBRANCH  17  18
ENDBRANCH  16  17
ENDBRANCH   1  16
TORSDOF 12
ENDMDL
