MODEL 1
REMARK VINA RESULT:      -9.0      0.000      0.000
REMARK  Name = *****
REMARK                            x       y       z     vdW  Elec       q    Type
REMARK                         _______ _______ _______ _____ _____    ______ ____
ROOT
ATOM      1  C   LIG    1       28.503 -19.804   5.776  0.00  0.00    +0.166 C 
ENDROOT
BRANCH   1   2
ATOM      2  O   LIG    1       28.640 -18.590   5.084  0.00  0.00    -0.387 OA
ATOM      3  H   LIG    1       29.204 -18.924   4.372  0.00  0.00    +0.210 HD
ENDBRANCH   1   2
BRANCH   1   4
ATOM      4  C   LIG    1       28.945 -19.494   7.219  0.00  0.00    +0.115 C 
BRANCH   4   5
ATOM      5  N   LIG    1       28.959 -20.728   7.979  0.00  0.00    -0.310 NA
ATOM      6  H   LIG    1       28.223 -20.681   8.685  0.00  0.00    +0.122 HD
BRANCH   5   7
ATOM      7  C   LIG    1       30.217 -21.023   8.655  0.00  0.00    +0.122 C 
BRANCH   7   8
ATOM      8  C   LIG    1       31.257 -19.946   9.058  0.00  0.00    +0.244 C 
BRANCH   8   9
ATOM      9  O   LIG    1       30.951 -18.957  10.104  0.00  0.00    -0.487 OA
BRANCH   9  11
ATOM     10  C   LIG    1       31.974 -17.193  11.463  0.00  0.00    +0.162 A 
ATOM     11  C   LIG    1       31.590 -17.751  10.240  0.00  0.00    +0.162 A 
ATOM     12  C   LIG    1       32.043 -17.051   9.111  0.00  0.00    +0.049 A 
ATOM     13  C   LIG    1       32.755 -15.857   9.140  0.00  0.00    +0.004 A 
ATOM     14  C   LIG    1       33.022 -15.291  10.347  0.00  0.00    +0.004 A 
ATOM     15  C   LIG    1       32.576 -15.919  11.515  0.00  0.00    +0.049 A 
BRANCH  10  17
ATOM     16  C   LIG    1       32.357 -17.000  13.821  0.00  0.00    +0.277 C 
ATOM     17  O   LIG    1       31.837 -17.747  12.726  0.00  0.00    -0.491 OA
ENDBRANCH  10  17
ENDBRANCH   9  11
ENDBRANCH   8   9
ENDBRANCH   7   8
ENDBRANCH   5   7
ENDBRANCH   4   5
ENDBRANCH   1   4
BRANCH   1  18
ATOM     18  C   LIG    1       27.034 -20.264   5.557  0.00  0.00    +0.261 C 
BRANCH  18  19
ATOM     19  O   LIG    1       26.866 -21.527   6.250  0.00  0.00    -0.489 OA
BRANCH  19  20
ATOM     20  C   LIG    1       25.582 -21.905   6.687  0.00  0.00    +0.130 C 
ATOM     21  C   LIG    1       24.967 -23.218   6.726  0.00  0.00    +0.049 C 
ATOM     22  C   LIG    1       23.585 -23.193   6.863  0.00  0.00    +0.051 C 
ATOM     23  N   LIG    1       23.095 -24.446   6.527  0.00  0.00    -0.354 NA
ATOM     24  H   LIG    1       22.151 -24.660   6.428  0.00  0.00    +0.166 HD
ATOM     25  C   LIG    1       24.145 -25.270   6.167  0.00  0.00    +0.048 C 
ATOM     26  C   LIG    1       24.107 -26.523   5.501  0.00  0.00    +0.026 C 
ATOM     27  C   LIG    1       25.316 -27.122   5.208  0.00  0.00    +0.002 C 
ATOM     28  C   LIG    1       26.466 -26.651   5.773  0.00  0.00    +0.001 C 
ATOM     29  C   LIG    1       26.408 -25.562   6.643  0.00  0.00    +0.010 C 
ATOM     30  C   LIG    1       22.801 -22.071   7.191  0.00  0.00    +0.026 C 
ATOM     31  C   LIG    1       23.451 -20.852   7.339  0.00  0.00    +0.006 C 
ATOM     32  C   LIG    1       25.320 -24.651   6.577  0.00  0.00    +0.011 C 
ATOM     33  C   LIG    1       24.807 -20.764   7.055  0.00  0.00    +0.046 C 
ENDBRANCH  19  20
ENDBRANCH  18  19
ENDBRANCH   1  18
TORSDOF 11
ENDMDL
MODEL 2
REMARK VINA RESULT:      -8.7      3.785      5.983
REMARK  Name = *****
REMARK                            x       y       z     vdW  Elec       q    Type
REMARK                         _______ _______ _______ _____ _____    ______ ____
ROOT
ATOM      1  C   LIG    1       28.738 -20.249   7.070  0.00  0.00    +0.166 C 
ENDROOT
BRANCH   1   2
ATOM      2  O   LIG    1       29.267 -21.399   6.463  0.00  0.00    -0.387 OA
ATOM      3  H   LIG    1       28.524 -21.987   6.659  0.00  0.00    +0.210 HD
ENDBRANCH   1   2
BRANCH   1   4
ATOM      4  C   LIG    1       28.426 -19.290   5.905  0.00  0.00    +0.115 C 
BRANCH   4   5
ATOM      5  N   LIG    1       27.590 -19.980   4.943  0.00  0.00    -0.310 NA
ATOM      6  H   LIG    1       28.038 -19.922   4.027  0.00  0.00    +0.122 HD
BRANCH   5   7
ATOM      7  C   LIG    1       26.233 -19.462   4.818  0.00  0.00    +0.122 C 
BRANCH   7   8
ATOM      8  C   LIG    1       25.673 -18.805   3.530  0.00  0.00    +0.244 C 
BRANCH   8   9
ATOM      9  O   LIG    1       26.118 -17.465   3.113  0.00  0.00    -0.487 OA
BRANCH   9  11
ATOM     10  C   LIG    1       26.185 -15.052   3.533  0.00  0.00    +0.162 A 
ATOM     11  C   LIG    1       25.541 -16.293   3.530  0.00  0.00    +0.162 A 
ATOM     12  C   LIG    1       24.176 -16.243   3.851  0.00  0.00    +0.049 A 
ATOM     13  C   LIG    1       23.480 -15.097   4.222  0.00  0.00    +0.004 A 
ATOM     14  C   LIG    1       24.164 -13.926   4.312  0.00  0.00    +0.004 A 
ATOM     15  C   LIG    1       25.535 -13.906   4.035  0.00  0.00    +0.049 A 
BRANCH  10  17
ATOM     16  C   LIG    1       28.076 -13.580   3.596  0.00  0.00    +0.277 C 
ATOM     17  O   LIG    1       27.465 -14.761   3.086  0.00  0.00    -0.491 OA
ENDBRANCH  10  17
ENDBRANCH   9  11
ENDBRANCH   8   9
ENDBRANCH   7   8
ENDBRANCH   5   7
ENDBRANCH   4   5
ENDBRANCH   1   4
BRANCH   1  18
ATOM     18  C   LIG    1       27.545 -20.731   7.944  0.00  0.00    +0.261 C 
BRANCH  18  19
ATOM     19  O   LIG    1       27.049 -21.963   7.360  0.00  0.00    -0.489 OA
BRANCH  19  20
ATOM     20  C   LIG    1       25.664 -22.218   7.370  0.00  0.00    +0.130 C 
ATOM     21  C   LIG    1       24.946 -23.437   7.050  0.00  0.00    +0.049 C 
ATOM     22  C   LIG    1       23.591 -23.249   6.806  0.00  0.00    +0.051 C 
ATOM     23  N   LIG    1       23.105 -24.383   6.172  0.00  0.00    -0.354 NA
ATOM     24  H   LIG    1       22.214 -24.460   5.789  0.00  0.00    +0.166 HD
ATOM     25  C   LIG    1       24.134 -25.289   5.997  0.00  0.00    +0.048 C 
ATOM     26  C   LIG    1       24.174 -26.444   5.173  0.00  0.00    +0.026 C 
ATOM     27  C   LIG    1       25.355 -27.158   5.139  0.00  0.00    +0.002 C 
ATOM     28  C   LIG    1       26.332 -26.906   6.058  0.00  0.00    +0.001 C 
ATOM     29  C   LIG    1       26.127 -25.924   7.027  0.00  0.00    +0.010 C 
ATOM     30  C   LIG    1       22.853 -22.079   7.065  0.00  0.00    +0.026 C 
ATOM     31  C   LIG    1       23.542 -20.978   7.558  0.00  0.00    +0.006 C 
ATOM     32  C   LIG    1       25.192 -24.878   6.797  0.00  0.00    +0.011 C 
ATOM     33  C   LIG    1       24.925 -21.035   7.672  0.00  0.00    +0.046 C 
ENDBRANCH  19  20
ENDBRANCH  18  19
ENDBRANCH   1  18
TORSDOF 11
ENDMDL
MODEL 3
REMARK VINA RESULT:      -8.6      3.870      6.522
REMARK  Name = *****
REMARK                            x       y       z     vdW  Elec       q    Type
REMARK                         _______ _______ _______ _____ _____    ______ ____
ROOT
ATOM      1  C   LIG    1       28.541 -20.079   5.942  0.00  0.00    +0.166 C 
ENDROOT
BRANCH   1   2
ATOM      2  O   LIG    1       27.651 -20.136   4.858  0.00  0.00    -0.387 OA
ATOM      3  H   LIG    1       28.309 -20.333   4.177  0.00  0.00    +0.210 HD
ENDBRANCH   1   2
BRANCH   1   4
ATOM      4  C   LIG    1       29.125 -18.654   5.906  0.00  0.00    +0.115 C 
BRANCH   4   5
ATOM      5  N   LIG    1       28.887 -18.084   4.595  0.00  0.00    -0.310 NA
ATOM      6  H   LIG    1       29.779 -17.769   4.212  0.00  0.00    +0.122 HD
BRANCH   5   7
ATOM      7  C   LIG    1       27.960 -16.959   4.568  0.00  0.00    +0.122 C 
BRANCH   7   8
ATOM      8  C   LIG    1       26.839 -16.785   3.511  0.00  0.00    +0.244 C 
BRANCH   8   9
ATOM      9  O   LIG    1       26.007 -17.928   3.101  0.00  0.00    -0.487 OA
BRANCH   9  11
ATOM     10  C   LIG    1       24.285 -19.449   3.951  0.00  0.00    +0.162 A 
ATOM     11  C   LIG    1       24.749 -18.183   3.584  0.00  0.00    +0.162 A 
ATOM     12  C   LIG    1       23.873 -17.130   3.888  0.00  0.00    +0.049 A 
ATOM     13  C   LIG    1       22.605 -17.274   4.440  0.00  0.00    +0.004 A 
ATOM     14  C   LIG    1       22.147 -18.529   4.688  0.00  0.00    +0.004 A 
ATOM     15  C   LIG    1       22.955 -19.630   4.384  0.00  0.00    +0.049 A 
BRANCH  10  17
ATOM     16  C   LIG    1       24.233 -21.841   3.803  0.00  0.00    +0.277 C 
ATOM     17  O   LIG    1       24.989 -20.643   3.947  0.00  0.00    -0.491 OA
ENDBRANCH  10  17
ENDBRANCH   9  11
ENDBRANCH   8   9
ENDBRANCH   7   8
ENDBRANCH   5   7
ENDBRANCH   4   5
ENDBRANCH   1   4
BRANCH   1  18
ATOM     18  C   LIG    1       27.720 -20.488   7.198  0.00  0.00    +0.261 C 
BRANCH  18  19
ATOM     19  O   LIG    1       27.212 -21.827   6.968  0.00  0.00    -0.489 OA
BRANCH  19  20
ATOM     20  C   LIG    1       25.847 -22.092   7.192  0.00  0.00    +0.130 C 
ATOM     21  C   LIG    1       25.103 -23.324   7.015  0.00  0.00    +0.049 C 
ATOM     22  C   LIG    1       23.725 -23.153   6.971  0.00  0.00    +0.051 C 
ATOM     23  N   LIG    1       23.162 -24.307   6.448  0.00  0.00    -0.354 NA
ATOM     24  H   LIG    1       22.225 -24.401   6.204  0.00  0.00    +0.166 HD
ATOM     25  C   LIG    1       24.164 -25.211   6.146  0.00  0.00    +0.048 C 
ATOM     26  C   LIG    1       24.093 -26.388   5.356  0.00  0.00    +0.026 C 
ATOM     27  C   LIG    1       25.264 -27.094   5.165  0.00  0.00    +0.002 C 
ATOM     28  C   LIG    1       26.365 -26.810   5.920  0.00  0.00    +0.001 C 
ATOM     29  C   LIG    1       26.295 -25.802   6.883  0.00  0.00    +0.010 C 
ATOM     30  C   LIG    1       23.021 -21.980   7.307  0.00  0.00    +0.026 C 
ATOM     31  C   LIG    1       23.764 -20.862   7.662  0.00  0.00    +0.006 C 
ATOM     32  C   LIG    1       25.325 -24.769   6.767  0.00  0.00    +0.011 C 
ATOM     33  C   LIG    1       25.149 -20.906   7.569  0.00  0.00    +0.046 C 
ENDBRANCH  19  20
ENDBRANCH  18  19
ENDBRANCH   1  18
TORSDOF 11
ENDMDL
MODEL 4
REMARK VINA RESULT:      -8.6      4.168     10.258
REMARK  Name = *****
REMARK                            x       y       z     vdW  Elec       q    Type
REMARK                         _______ _______ _______ _____ _____    ______ ____
ROOT
ATOM      1  C   LIG    1       24.590 -23.821   6.364  0.00  0.00    +0.166 C 
ENDROOT
BRANCH   1   2
ATOM      2  O   LIG    1       24.846 -23.749   4.986  0.00  0.00    -0.387 OA
ATOM      3  H   LIG    1       23.955 -23.486   4.715  0.00  0.00    +0.210 HD
ENDBRANCH   1   2
BRANCH   1   4
ATOM      4  C   LIG    1       23.548 -24.946   6.519  0.00  0.00    +0.115 C 
BRANCH   4   5
ATOM      5  N   LIG    1       23.792 -25.951   5.504  0.00  0.00    -0.310 NA
ATOM      6  H   LIG    1       22.892 -26.289   5.160  0.00  0.00    +0.122 HD
BRANCH   5   7
ATOM      7  C   LIG    1       24.567 -27.104   5.949  0.00  0.00    +0.122 C 
BRANCH   7   8
ATOM      8  C   LIG    1       24.158 -28.576   5.687  0.00  0.00    +0.244 C 
BRANCH   8   9
ATOM      9  O   LIG    1       23.883 -29.492   6.806  0.00  0.00    -0.487 OA
BRANCH   9  11
ATOM     10  C   LIG    1       25.425 -31.346   7.241  0.00  0.00    +0.162 A 
ATOM     11  C   LIG    1       24.852 -30.110   7.556  0.00  0.00    +0.162 A 
ATOM     12  C   LIG    1       25.449 -29.449   8.639  0.00  0.00    +0.049 A 
ATOM     13  C   LIG    1       26.479 -29.958   9.421  0.00  0.00    +0.004 A 
ATOM     14  C   LIG    1       26.942 -31.206   9.149  0.00  0.00    +0.004 A 
ATOM     15  C   LIG    1       26.374 -31.938   8.100  0.00  0.00    +0.049 A 
BRANCH  10  17
ATOM     16  C   LIG    1       26.058 -31.990   5.021  0.00  0.00    +0.277 C 
ATOM     17  O   LIG    1       25.177 -32.137   6.130  0.00  0.00    -0.491 OA
ENDBRANCH  10  17
ENDBRANCH   9  11
ENDBRANCH   8   9
ENDBRANCH   7   8
ENDBRANCH   5   7
ENDBRANCH   4   5
ENDBRANCH   1   4
BRANCH   1  18
ATOM     18  C   LIG    1       25.971 -24.020   7.051  0.00  0.00    +0.261 C 
BRANCH  18  19
ATOM     19  O   LIG    1       26.204 -22.867   7.900  0.00  0.00    -0.489 OA
BRANCH  19  20
ATOM     20  C   LIG    1       26.897 -21.759   7.377  0.00  0.00    +0.130 C 
ATOM     21  C   LIG    1       26.467 -20.773   6.405  0.00  0.00    +0.049 C 
ATOM     22  C   LIG    1       27.504 -20.041   5.841  0.00  0.00    +0.051 C 
ATOM     23  N   LIG    1       27.023 -19.414   4.702  0.00  0.00    -0.354 NA
ATOM     24  H   LIG    1       27.576 -18.935   4.061  0.00  0.00    +0.166 HD
ATOM     25  C   LIG    1       25.692 -19.744   4.523  0.00  0.00    +0.048 C 
ATOM     26  C   LIG    1       24.876 -19.566   3.375  0.00  0.00    +0.026 C 
ATOM     27  C   LIG    1       23.580 -20.036   3.440  0.00  0.00    +0.002 C 
ATOM     28  C   LIG    1       23.046 -20.406   4.641  0.00  0.00    +0.001 C 
ATOM     29  C   LIG    1       23.822 -20.308   5.796  0.00  0.00    +0.010 C 
ATOM     30  C   LIG    1       28.840 -20.011   6.287  0.00  0.00    +0.026 C 
ATOM     31  C   LIG    1       29.181 -20.831   7.354  0.00  0.00    +0.006 C 
ATOM     32  C   LIG    1       25.241 -20.313   5.708  0.00  0.00    +0.011 C 
ATOM     33  C   LIG    1       28.238 -21.715   7.864  0.00  0.00    +0.046 C 
ENDBRANCH  19  20
ENDBRANCH  18  19
ENDBRANCH   1  18
TORSDOF 11
ENDMDL
MODEL 5
REMARK VINA RESULT:      -8.6      4.181     10.252
REMARK  Name = *****
REMARK                            x       y       z     vdW  Elec       q    Type
REMARK                         _______ _______ _______ _____ _____    ______ ____
ROOT
ATOM      1  C   LIG    1       24.576 -23.757   6.394  0.00  0.00    +0.166 C 
ENDROOT
BRANCH   1   2
ATOM      2  O   LIG    1       24.956 -23.726   5.043  0.00  0.00    -0.387 OA
ATOM      3  H   LIG    1       24.708 -24.637   4.831  0.00  0.00    +0.210 HD
ENDBRANCH   1   2
BRANCH   1   4
ATOM      4  C   LIG    1       23.478 -24.836   6.475  0.00  0.00    +0.115 C 
BRANCH   4   5
ATOM      5  N   LIG    1       23.782 -25.885   5.522  0.00  0.00    -0.310 NA
ATOM      6  H   LIG    1       22.933 -26.102   4.999  0.00  0.00    +0.122 HD
BRANCH   5   7
ATOM      7  C   LIG    1       24.284 -27.123   6.105  0.00  0.00    +0.122 C 
BRANCH   7   8
ATOM      8  C   LIG    1       24.229 -28.500   5.393  0.00  0.00    +0.244 C 
BRANCH   8   9
ATOM      9  O   LIG    1       23.988 -29.734   6.158  0.00  0.00    -0.487 OA
BRANCH   9  11
ATOM     10  C   LIG    1       25.278 -30.522   8.087  0.00  0.00    +0.162 A 
ATOM     11  C   LIG    1       24.976 -30.501   6.721  0.00  0.00    +0.162 A 
ATOM     12  C   LIG    1       25.669 -31.451   5.956  0.00  0.00    +0.049 A 
ATOM     13  C   LIG    1       26.639 -32.320   6.441  0.00  0.00    +0.004 A 
ATOM     14  C   LIG    1       26.980 -32.241   7.754  0.00  0.00    +0.004 A 
ATOM     15  C   LIG    1       26.352 -31.297   8.573  0.00  0.00    +0.049 A 
BRANCH  10  17
ATOM     16  C   LIG    1       23.404 -30.384   9.574  0.00  0.00    +0.277 C 
ATOM     17  O   LIG    1       24.635 -29.840   9.107  0.00  0.00    -0.491 OA
ENDBRANCH  10  17
ENDBRANCH   9  11
ENDBRANCH   8   9
ENDBRANCH   7   8
ENDBRANCH   5   7
ENDBRANCH   4   5
ENDBRANCH   1   4
BRANCH   1  18
ATOM     18  C   LIG    1       25.881 -23.997   7.205  0.00  0.00    +0.261 C 
BRANCH  18  19
ATOM     19  O   LIG    1       26.117 -22.812   8.007  0.00  0.00    -0.489 OA
BRANCH  19  20
ATOM     20  C   LIG    1       26.833 -21.736   7.448  0.00  0.00    +0.130 C 
ATOM     21  C   LIG    1       26.424 -20.777   6.440  0.00  0.00    +0.049 C 
ATOM     22  C   LIG    1       27.477 -20.085   5.855  0.00  0.00    +0.051 C 
ATOM     23  N   LIG    1       27.012 -19.490   4.693  0.00  0.00    -0.354 NA
ATOM     24  H   LIG    1       27.576 -19.045   4.038  0.00  0.00    +0.166 HD
ATOM     25  C   LIG    1       25.675 -19.801   4.521  0.00  0.00    +0.048 C 
ATOM     26  C   LIG    1       24.867 -19.649   3.363  0.00  0.00    +0.026 C 
ATOM     27  C   LIG    1       23.562 -20.091   3.440  0.00  0.00    +0.002 C 
ATOM     28  C   LIG    1       23.018 -20.409   4.650  0.00  0.00    +0.001 C 
ATOM     29  C   LIG    1       23.791 -20.284   5.805  0.00  0.00    +0.010 C 
ATOM     30  C   LIG    1       28.812 -20.065   6.305  0.00  0.00    +0.026 C 
ATOM     31  C   LIG    1       29.134 -20.853   7.403  0.00  0.00    +0.006 C 
ATOM     32  C   LIG    1       25.210 -20.319   5.722  0.00  0.00    +0.011 C 
ATOM     33  C   LIG    1       28.173 -21.700   7.939  0.00  0.00    +0.046 C 
ENDBRANCH  19  20
ENDBRANCH  18  19
ENDBRANCH   1  18
TORSDOF 11
ENDMDL
MODEL 6
REMARK VINA RESULT:      -8.5      4.002      9.680
REMARK  Name = *****
REMARK                            x       y       z     vdW  Elec       q    Type
REMARK                         _______ _______ _______ _____ _____    ______ ____
ROOT
ATOM      1  C   LIG    1       24.338 -23.526   6.601  0.00  0.00    +0.166 C 
ENDROOT
BRANCH   1   2
ATOM      2  O   LIG    1       25.410 -23.593   7.506  0.00  0.00    -0.387 OA
ATOM      3  H   LIG    1       25.093 -24.358   8.006  0.00  0.00    +0.210 HD
ENDBRANCH   1   2
BRANCH   1   4
ATOM      4  C   LIG    1       23.902 -24.989   6.389  0.00  0.00    +0.115 C 
BRANCH   4   5
ATOM      5  N   LIG    1       24.124 -25.347   5.002  0.00  0.00    -0.310 NA
ATOM      6  H   LIG    1       23.375 -25.975   4.707  0.00  0.00    +0.122 HD
BRANCH   5   7
ATOM      7  C   LIG    1       25.398 -26.000   4.727  0.00  0.00    +0.122 C 
BRANCH   7   8
ATOM      8  C   LIG    1       25.821 -27.363   5.335  0.00  0.00    +0.244 C 
BRANCH   8   9
ATOM      9  O   LIG    1       24.859 -28.180   6.093  0.00  0.00    -0.487 OA
BRANCH   9  11
ATOM     10  C   LIG    1       24.425 -29.757   7.918  0.00  0.00    +0.162 A 
ATOM     11  C   LIG    1       25.075 -28.650   7.363  0.00  0.00    +0.162 A 
ATOM     12  C   LIG    1       26.103 -28.119   8.157  0.00  0.00    +0.049 A 
ATOM     13  C   LIG    1       26.448 -28.565   9.428  0.00  0.00    +0.004 A 
ATOM     14  C   LIG    1       25.725 -29.578   9.976  0.00  0.00    +0.004 A 
ATOM     15  C   LIG    1       24.666 -30.137   9.254  0.00  0.00    +0.049 A 
BRANCH  10  17
ATOM     16  C   LIG    1       24.028 -31.613   6.453  0.00  0.00    +0.277 C 
ATOM     17  O   LIG    1       23.508 -30.595   7.304  0.00  0.00    -0.491 OA
ENDBRANCH  10  17
ENDBRANCH   9  11
ENDBRANCH   8   9
ENDBRANCH   7   8
ENDBRANCH   5   7
ENDBRANCH   4   5
ENDBRANCH   1   4
BRANCH   1  18
ATOM     18  C   LIG    1       23.302 -22.551   7.229  0.00  0.00    +0.261 C 
BRANCH  18  19
ATOM     19  O   LIG    1       23.898 -21.228   7.232  0.00  0.00    -0.489 OA
BRANCH  19  20
ATOM     20  C   LIG    1       24.475 -20.732   6.047  0.00  0.00    +0.130 C 
ATOM     21  C   LIG    1       25.866 -20.470   5.735  0.00  0.00    +0.049 C 
ATOM     22  C   LIG    1       26.055 -19.649   4.630  0.00  0.00    +0.051 C 
ATOM     23  N   LIG    1       27.362 -19.187   4.652  0.00  0.00    -0.354 NA
ATOM     24  H   LIG    1       27.715 -18.504   4.055  0.00  0.00    +0.166 HD
ATOM     25  C   LIG    1       28.009 -19.692   5.765  0.00  0.00    +0.048 C 
ATOM     26  C   LIG    1       29.242 -19.285   6.339  0.00  0.00    +0.026 C 
ATOM     27  C   LIG    1       29.645 -19.926   7.493  0.00  0.00    +0.002 C 
ATOM     28  C   LIG    1       29.015 -21.067   7.897  0.00  0.00    +0.001 C 
ATOM     29  C   LIG    1       27.963 -21.577   7.135  0.00  0.00    +0.010 C 
ATOM     30  C   LIG    1       25.071 -19.271   3.697  0.00  0.00    +0.026 C 
ATOM     31  C   LIG    1       23.770 -19.703   3.921  0.00  0.00    +0.006 C 
ATOM     32  C   LIG    1       27.227 -20.722   6.271  0.00  0.00    +0.011 C 
ATOM     33  C   LIG    1       23.471 -20.387   5.092  0.00  0.00    +0.046 C 
ENDBRANCH  19  20
ENDBRANCH  18  19
ENDBRANCH   1  18
TORSDOF 11
ENDMDL
MODEL 7
REMARK VINA RESULT:      -8.5      4.483      9.219
REMARK  Name = *****
REMARK                            x       y       z     vdW  Elec       q    Type
REMARK                         _______ _______ _______ _____ _____    ______ ____
ROOT
ATOM      1  C   LIG    1       22.662 -23.149   7.014  0.00  0.00    +0.166 C 
ENDROOT
BRANCH   1   2
ATOM      2  O   LIG    1       22.017 -22.734   5.838  0.00  0.00    -0.387 OA
ATOM      3  H   LIG    1       22.264 -21.801   5.892  0.00  0.00    +0.210 HD
ENDBRANCH   1   2
BRANCH   1   4
ATOM      4  C   LIG    1       23.522 -24.357   6.595  0.00  0.00    +0.115 C 
BRANCH   4   5
ATOM      5  N   LIG    1       24.331 -23.980   5.453  0.00  0.00    -0.310 NA
ATOM      6  H   LIG    1       23.714 -23.616   4.725  0.00  0.00    +0.122 HD
BRANCH   5   7
ATOM      7  C   LIG    1       25.126 -25.057   4.876  0.00  0.00    +0.122 C 
BRANCH   7   8
ATOM      8  C   LIG    1       26.119 -25.931   5.686  0.00  0.00    +0.244 C 
BRANCH   8   9
ATOM      9  O   LIG    1       25.710 -26.555   6.955  0.00  0.00    -0.487 OA
BRANCH   9  11
ATOM     10  C   LIG    1       25.798 -28.689   8.157  0.00  0.00    +0.162 A 
ATOM     11  C   LIG    1       25.382 -27.880   7.095  0.00  0.00    +0.162 A 
ATOM     12  C   LIG    1       24.457 -28.483   6.229  0.00  0.00    +0.049 A 
ATOM     13  C   LIG    1       24.009 -29.795   6.323  0.00  0.00    +0.004 A 
ATOM     14  C   LIG    1       24.514 -30.584   7.308  0.00  0.00    +0.004 A 
ATOM     15  C   LIG    1       25.463 -30.058   8.192  0.00  0.00    +0.049 A 
BRANCH  10  17
ATOM     16  C   LIG    1       26.901 -29.344  10.182  0.00  0.00    +0.277 C 
ATOM     17  O   LIG    1       26.552 -28.317   9.259  0.00  0.00    -0.491 OA
ENDBRANCH  10  17
ENDBRANCH   9  11
ENDBRANCH   8   9
ENDBRANCH   7   8
ENDBRANCH   5   7
ENDBRANCH   4   5
ENDBRANCH   1   4
BRANCH   1  18
ATOM     18  C   LIG    1       23.401 -21.897   7.566  0.00  0.00    +0.261 C 
BRANCH  18  19
ATOM     19  O   LIG    1       23.023 -20.769   6.736  0.00  0.00    -0.489 OA
BRANCH  19  20
ATOM     20  C   LIG    1       23.852 -20.399   5.660  0.00  0.00    +0.130 C 
ATOM     21  C   LIG    1       25.297 -20.453   5.545  0.00  0.00    +0.049 C 
ATOM     22  C   LIG    1       25.813 -19.682   4.511  0.00  0.00    +0.051 C 
ATOM     23  N   LIG    1       27.173 -19.526   4.725  0.00  0.00    -0.354 NA
ATOM     24  H   LIG    1       27.748 -18.934   4.209  0.00  0.00    +0.166 HD
ATOM     25  C   LIG    1       27.534 -20.180   5.889  0.00  0.00    +0.048 C 
ATOM     26  C   LIG    1       28.735 -20.069   6.637  0.00  0.00    +0.026 C 
ATOM     27  C   LIG    1       28.823 -20.800   7.805  0.00  0.00    +0.002 C 
ATOM     28  C   LIG    1       27.907 -21.775   8.072  0.00  0.00    +0.001 C 
ATOM     29  C   LIG    1       26.883 -22.024   7.157  0.00  0.00    +0.010 C 
ATOM     30  C   LIG    1       25.074 -19.079   3.475  0.00  0.00    +0.026 C 
ATOM     31  C   LIG    1       23.692 -19.209   3.508  0.00  0.00    +0.006 C 
ATOM     32  C   LIG    1       26.480 -21.013   6.242  0.00  0.00    +0.011 C 
ATOM     33  C   LIG    1       23.091 -19.824   4.599  0.00  0.00    +0.046 C 
ENDBRANCH  19  20
ENDBRANCH  18  19
ENDBRANCH   1  18
TORSDOF 11
ENDMDL
MODEL 8
REMARK VINA RESULT:      -8.3      4.292     10.544
REMARK  Name = *****
REMARK                            x       y       z     vdW  Elec       q    Type
REMARK                         _______ _______ _______ _____ _____    ______ ____
ROOT
ATOM      1  C   LIG    1       23.574 -23.591   6.903  0.00  0.00    +0.166 C 
ENDROOT
BRANCH   1   2
ATOM      2  O   LIG    1       22.413 -23.335   6.156  0.00  0.00    -0.387 OA
ATOM      3  H   LIG    1       21.968 -24.175   6.339  0.00  0.00    +0.210 HD
ENDBRANCH   1   2
BRANCH   1   4
ATOM      4  C   LIG    1       24.590 -24.144   5.885  0.00  0.00    +0.115 C 
BRANCH   4   5
ATOM      5  N   LIG    1       24.061 -25.367   5.314  0.00  0.00    -0.310 NA
ATOM      6  H   LIG    1       23.045 -25.284   5.256  0.00  0.00    +0.122 HD
BRANCH   5   7
ATOM      7  C   LIG    1       24.375 -26.582   6.056  0.00  0.00    +0.122 C 
BRANCH   7   8
ATOM      8  C   LIG    1       24.427 -27.996   5.420  0.00  0.00    +0.244 C 
BRANCH   8   9
ATOM      9  O   LIG    1       23.837 -29.154   6.111  0.00  0.00    -0.487 OA
BRANCH   9  11
ATOM     10  C   LIG    1       24.226 -31.136   7.499  0.00  0.00    +0.162 A 
ATOM     11  C   LIG    1       24.519 -30.305   6.413  0.00  0.00    +0.162 A 
ATOM     12  C   LIG    1       25.492 -30.811   5.538  0.00  0.00    +0.049 A 
ATOM     13  C   LIG    1       26.193 -31.997   5.717  0.00  0.00    +0.004 A 
ATOM     14  C   LIG    1       25.954 -32.728   6.838  0.00  0.00    +0.004 A 
ATOM     15  C   LIG    1       25.017 -32.270   7.771  0.00  0.00    +0.049 A 
BRANCH  10  17
ATOM     16  C   LIG    1       23.086 -31.998   9.424  0.00  0.00    +0.277 C 
ATOM     17  O   LIG    1       23.198 -30.995   8.418  0.00  0.00    -0.491 OA
ENDBRANCH  10  17
ENDBRANCH   9  11
ENDBRANCH   8   9
ENDBRANCH   7   8
ENDBRANCH   5   7
ENDBRANCH   4   5
ENDBRANCH   1   4
BRANCH   1  18
ATOM     18  C   LIG    1       23.928 -22.259   7.621  0.00  0.00    +0.261 C 
BRANCH  18  19
ATOM     19  O   LIG    1       23.372 -21.177   6.831  0.00  0.00    -0.489 OA
BRANCH  19  20
ATOM     20  C   LIG    1       24.104 -20.680   5.736  0.00  0.00    +0.130 C 
ATOM     21  C   LIG    1       25.536 -20.506   5.583  0.00  0.00    +0.049 C 
ATOM     22  C   LIG    1       25.897 -19.661   4.542  0.00  0.00    +0.051 C 
ATOM     23  N   LIG    1       27.222 -19.294   4.722  0.00  0.00    -0.354 NA
ATOM     24  H   LIG    1       27.682 -18.617   4.196  0.00  0.00    +0.166 HD
ATOM     25  C   LIG    1       27.711 -19.886   5.872  0.00  0.00    +0.048 C 
ATOM     26  C   LIG    1       28.899 -19.590   6.590  0.00  0.00    +0.026 C 
ATOM     27  C   LIG    1       29.132 -20.301   7.750  0.00  0.00    +0.002 C 
ATOM     28  C   LIG    1       28.386 -21.409   8.034  0.00  0.00    +0.001 C 
ATOM     29  C   LIG    1       27.390 -21.812   7.144  0.00  0.00    +0.010 C 
ATOM     30  C   LIG    1       25.046 -19.178   3.529  0.00  0.00    +0.026 C 
ATOM     31  C   LIG    1       23.703 -19.524   3.597  0.00  0.00    +0.006 C 
ATOM     32  C   LIG    1       26.811 -20.875   6.247  0.00  0.00    +0.011 C 
ATOM     33  C   LIG    1       23.235 -20.228   4.698  0.00  0.00    +0.046 C 
ENDBRANCH  19  20
ENDBRANCH  18  19
ENDBRANCH   1  18
TORSDOF 11
ENDMDL
MODEL 9
REMARK VINA RESULT:      -8.3      1.691      3.421
REMARK  Name = *****
REMARK                            x       y       z     vdW  Elec       q    Type
REMARK                         _______ _______ _______ _____ _____    ______ ____
ROOT
ATOM      1  C   LIG    1       28.518 -20.006   6.090  0.00  0.00    +0.166 C 
ENDROOT
BRANCH   1   2
ATOM      2  O   LIG    1       28.733 -18.834   5.347  0.00  0.00    -0.387 OA
ATOM      3  H   LIG    1       28.034 -18.979   4.695  0.00  0.00    +0.210 HD
ENDBRANCH   1   2
BRANCH   1   4
ATOM      4  C   LIG    1       29.053 -19.690   7.500  0.00  0.00    +0.115 C 
BRANCH   4   5
ATOM      5  N   LIG    1       29.216 -20.933   8.227  0.00  0.00    -0.310 NA
ATOM      6  H   LIG    1       28.558 -20.940   9.007  0.00  0.00    +0.122 HD
BRANCH   5   7
ATOM      7  C   LIG    1       30.553 -21.167   8.761  0.00  0.00    +0.122 C 
BRANCH   7   8
ATOM      8  C   LIG    1       31.525 -20.037   9.187  0.00  0.00    +0.244 C 
BRANCH   8   9
ATOM      9  O   LIG    1       31.129 -19.045  10.200  0.00  0.00    -0.487 OA
BRANCH   9  11
ATOM     10  C   LIG    1       31.912 -17.150  11.541  0.00  0.00    +0.162 A 
ATOM     11  C   LIG    1       31.688 -17.799  10.323  0.00  0.00    +0.162 A 
ATOM     12  C   LIG    1       32.220 -17.140   9.205  0.00  0.00    +0.049 A 
ATOM     13  C   LIG    1       32.863 -15.908   9.229  0.00  0.00    +0.004 A 
ATOM     14  C   LIG    1       32.972 -15.259  10.419  0.00  0.00    +0.004 A 
ATOM     15  C   LIG    1       32.438 -15.842  11.573  0.00  0.00    +0.049 A 
BRANCH  10  17
ATOM     16  C   LIG    1       32.480 -17.123  13.870  0.00  0.00    +0.277 C 
ATOM     17  O   LIG    1       31.670 -17.636  12.817  0.00  0.00    -0.491 OA
ENDBRANCH  10  17
ENDBRANCH   9  11
ENDBRANCH   8   9
ENDBRANCH   7   8
ENDBRANCH   5   7
ENDBRANCH   4   5
ENDBRANCH   1   4
BRANCH   1  18
ATOM     18  C   LIG    1       27.004 -20.334   5.952  0.00  0.00    +0.261 C 
BRANCH  18  19
ATOM     19  O   LIG    1       26.790 -21.646   6.531  0.00  0.00    -0.489 OA
BRANCH  19  20
ATOM     20  C   LIG    1       25.563 -22.302   6.312  0.00  0.00    +0.130 C 
ATOM     21  C   LIG    1       24.378 -21.839   5.616  0.00  0.00    +0.049 C 
ATOM     22  C   LIG    1       23.233 -22.573   5.896  0.00  0.00    +0.051 C 
ATOM     23  N   LIG    1       22.134 -21.837   5.478  0.00  0.00    -0.354 NA
ATOM     24  H   LIG    1       21.209 -22.074   5.663  0.00  0.00    +0.166 HD
ATOM     25  C   LIG    1       22.563 -20.635   4.943  0.00  0.00    +0.048 C 
ATOM     26  C   LIG    1       21.805 -19.472   4.646  0.00  0.00    +0.026 C 
ATOM     27  C   LIG    1       22.491 -18.376   4.162  0.00  0.00    +0.002 C 
ATOM     28  C   LIG    1       23.784 -18.508   3.745  0.00  0.00    +0.001 C 
ATOM     29  C   LIG    1       24.403 -19.757   3.814  0.00  0.00    +0.010 C 
ATOM     30  C   LIG    1       23.179 -23.806   6.573  0.00  0.00    +0.026 C 
ATOM     31  C   LIG    1       24.370 -24.323   7.065  0.00  0.00    +0.006 C 
ATOM     32  C   LIG    1       23.930 -20.740   4.726  0.00  0.00    +0.011 C 
ATOM     33  C   LIG    1       25.532 -23.568   6.970  0.00  0.00    +0.046 C 
ENDBRANCH  19  20
ENDBRANCH  18  19
ENDBRANCH   1  18
TORSDOF 11
ENDMDL
