MODEL 1
REMARK VINA RESULT:      -9.3      0.000      0.000
REMARK  Name = *****
REMARK                            x       y       z     vdW  Elec       q    Type
REMARK                         _______ _______ _______ _____ _____    ______ ____
ROOT
ATOM      1  C   LIG    1       27.250 -20.904   8.138  0.00  0.00    +0.122 C 
ATOM      2  C   LIG    1       26.684 -20.585   6.803  0.00  0.00    +0.192 A 
ATOM      3  N   LIG    1       25.390 -21.019   6.485  0.00  0.00    -0.190 N 
ATOM      4  C   LIG    1       24.959 -20.624   5.301  0.00  0.00    +0.357 A 
ATOM      5  S   LIG    1       26.171 -19.781   4.444  0.00  0.00    -0.027 S 
ATOM      6  C   LIG    1       27.305 -19.944   5.740  0.00  0.00    +0.064 A 
ENDROOT
BRANCH   3   7
ATOM      7  C   LIG    1       24.614 -21.905   7.379  0.00  0.00    +0.399 C 
BRANCH   7   8
ATOM      8  C   LIG    1       24.617 -23.358   7.032  0.00  0.00    +0.075 A 
ATOM      9  C   LIG    1       23.485 -24.047   6.646  0.00  0.00    +0.129 A 
ATOM     10  N   LIG    1       23.505 -25.334   6.285  0.00  0.00    -0.218 NA
ATOM     11  C   LIG    1       24.688 -25.972   6.301  0.00  0.00    +0.128 A 
ATOM     12  C   LIG    1       24.734 -27.379   5.788  0.00  0.00    +0.088 C 
ATOM     13  N   LIG    1       25.835 -25.402   6.706  0.00  0.00    -0.240 NA
ATOM     14  C   LIG    1       25.776 -24.110   7.064  0.00  0.00    +0.126 A 
BRANCH   9  15
ATOM     15  N   LIG    1       22.222 -23.462   6.663  0.00  0.00    -0.343 N 
ATOM     16  H   LIG    1       21.577 -23.830   5.972  0.00  0.00    +0.144 HD
ATOM     17  H   LIG    1       21.841 -23.665   7.594  0.00  0.00    +0.144 HD
ENDBRANCH   9  15
ENDBRANCH   7   8
ENDBRANCH   3   7
BRANCH   6  18
ATOM     18  C   LIG    1       28.710 -19.418   5.510  0.00  0.00    +0.077 C 
BRANCH  18  19
ATOM     19  C   LIG    1       29.375 -18.657   6.658  0.00  0.00    +0.178 C 
BRANCH  19  20
ATOM     20  O   LIG    1       30.666 -19.163   6.964  0.00  0.00    -0.286 OA
BRANCH  20  21
ATOM     21  P   LIG    1       31.241 -18.880   8.448  0.00  0.00    +0.483 P 
ATOM     22  O   LIG    1       31.993 -17.595   8.610  0.00  0.00    -0.227 OA
BRANCH  21  23
ATOM     23  O   LIG    1       29.895 -18.888   9.319  0.00  0.00    -0.302 OA
ATOM     24  H   LIG    1       30.080 -18.792  10.280  0.00  0.00    +0.222 HD
ENDBRANCH  21  23
BRANCH  21  25
ATOM     25  O   LIG    1       31.985 -20.211   8.832  0.00  0.00    -0.186 OA
BRANCH  25  26
ATOM     26  P   LIG    1       31.305 -21.632   9.016  0.00  0.00    +0.481 P 
ATOM     27  O   LIG    1       30.792 -21.923  10.375  0.00  0.00    -0.227 OA
BRANCH  26  28
ATOM     28  O   LIG    1       32.367 -22.704   8.505  0.00  0.00    -0.302 OA
ATOM     29  H   LIG    1       32.410 -23.505   9.063  0.00  0.00    +0.222 HD
ENDBRANCH  26  28
BRANCH  26  30
ATOM     30  O   LIG    1       30.195 -21.693   7.871  0.00  0.00    -0.302 OA
ATOM     31  H   LIG    1       29.465 -22.300   8.085  0.00  0.00    +0.222 HD
ENDBRANCH  26  30
ENDBRANCH  25  26
ENDBRANCH  21  25
ENDBRANCH  20  21
ENDBRANCH  19  20
ENDBRANCH  18  19
ENDBRANCH   6  18
TORSDOF 12
ENDMDL
MODEL 2
REMARK VINA RESULT:      -9.1      1.168      2.493
REMARK  Name = *****
REMARK                            x       y       z     vdW  Elec       q    Type
REMARK                         _______ _______ _______ _____ _____    ______ ____
ROOT
ATOM      1  C   LIG    1       27.197 -20.832   8.090  0.00  0.00    +0.122 C 
ATOM      2  C   LIG    1       26.526 -20.613   6.783  0.00  0.00    +0.192 A 
ATOM      3  N   LIG    1       25.294 -21.232   6.533  0.00  0.00    -0.190 N 
ATOM      4  C   LIG    1       24.753 -20.917   5.370  0.00  0.00    +0.357 A 
ATOM      5  S   LIG    1       25.787 -19.919   4.450  0.00  0.00    -0.027 S 
ATOM      6  C   LIG    1       26.995 -19.901   5.688  0.00  0.00    +0.064 A 
ENDROOT
BRANCH   3   7
ATOM      7  C   LIG    1       24.699 -22.210   7.468  0.00  0.00    +0.399 C 
BRANCH   7   8
ATOM      8  C   LIG    1       24.692 -23.634   7.017  0.00  0.00    +0.075 A 
ATOM      9  C   LIG    1       23.555 -24.286   6.583  0.00  0.00    +0.129 A 
ATOM     10  N   LIG    1       23.566 -25.543   6.130  0.00  0.00    -0.218 NA
ATOM     11  C   LIG    1       24.745 -26.189   6.098  0.00  0.00    +0.128 A 
ATOM     12  C   LIG    1       24.782 -27.555   5.485  0.00  0.00    +0.088 C 
ATOM     13  N   LIG    1       25.896 -25.658   6.544  0.00  0.00    -0.240 NA
ATOM     14  C   LIG    1       25.846 -24.394   6.994  0.00  0.00    +0.126 A 
BRANCH   9  15
ATOM     15  N   LIG    1       22.297 -23.695   6.643  0.00  0.00    -0.343 N 
ATOM     16  H   LIG    1       22.295 -22.690   6.506  0.00  0.00    +0.144 HD
ATOM     17  H   LIG    1       21.760 -24.122   5.879  0.00  0.00    +0.144 HD
ENDBRANCH   9  15
ENDBRANCH   7   8
ENDBRANCH   3   7
BRANCH   6  18
ATOM     18  C   LIG    1       28.297 -19.181   5.386  0.00  0.00    +0.077 C 
BRANCH  18  19
ATOM     19  C   LIG    1       29.524 -19.565   6.213  0.00  0.00    +0.178 C 
BRANCH  19  20
ATOM     20  O   LIG    1       29.685 -18.739   7.356  0.00  0.00    -0.286 OA
BRANCH  20  21
ATOM     21  P   LIG    1       30.967 -19.019   8.299  0.00  0.00    +0.483 P 
ATOM     22  O   LIG    1       30.662 -19.640   9.627  0.00  0.00    -0.227 OA
BRANCH  21  23
ATOM     23  O   LIG    1       31.835 -20.001   7.376  0.00  0.00    -0.302 OA
ATOM     24  H   LIG    1       32.742 -20.133   7.731  0.00  0.00    +0.222 HD
ENDBRANCH  21  23
BRANCH  21  25
ATOM     25  O   LIG    1       31.751 -17.656   8.298  0.00  0.00    -0.186 OA
BRANCH  25  26
ATOM     26  P   LIG    1       31.952 -16.702   9.549  0.00  0.00    +0.481 P 
ATOM     27  O   LIG    1       32.724 -15.464   9.291  0.00  0.00    -0.227 OA
BRANCH  26  28
ATOM     28  O   LIG    1       32.586 -17.605  10.699  0.00  0.00    -0.302 OA
ATOM     29  H   LIG    1       32.991 -17.088  11.421  0.00  0.00    +0.222 HD
ENDBRANCH  26  28
BRANCH  26  30
ATOM     30  O   LIG    1       30.476 -16.451  10.100  0.00  0.00    -0.302 OA
ATOM     31  H   LIG    1       30.045 -17.267  10.409  0.00  0.00    +0.222 HD
ENDBRANCH  26  30
ENDBRANCH  25  26
ENDBRANCH  21  25
ENDBRANCH  20  21
ENDBRANCH  19  20
ENDBRANCH  18  19
ENDBRANCH   6  18
TORSDOF 12
ENDMDL
MODEL 3
REMARK VINA RESULT:      -8.4      5.792      8.103
REMARK  Name = *****
REMARK                            x       y       z     vdW  Elec       q    Type
REMARK                         _______ _______ _______ _____ _____    ______ ____
ROOT
ATOM      1  C   LIG    1       28.329 -18.422   5.015  0.00  0.00    +0.122 C 
ATOM      2  C   LIG    1       28.011 -19.568   5.903  0.00  0.00    +0.192 A 
ATOM      3  N   LIG    1       28.934 -19.951   6.886  0.00  0.00    -0.190 N 
ATOM      4  C   LIG    1       28.523 -20.936   7.664  0.00  0.00    +0.357 A 
ATOM      5  S   LIG    1       27.007 -21.538   7.161  0.00  0.00    -0.027 S 
ATOM      6  C   LIG    1       26.904 -20.404   5.860  0.00  0.00    +0.064 A 
ENDROOT
BRANCH   3   7
ATOM      7  C   LIG    1       30.279 -19.345   6.983  0.00  0.00    +0.399 C 
BRANCH   7   8
ATOM      8  C   LIG    1       30.585 -18.619   8.253  0.00  0.00    +0.075 A 
ATOM      9  C   LIG    1       31.441 -19.110   9.218  0.00  0.00    +0.129 A 
ATOM     10  N   LIG    1       31.752 -18.431  10.327  0.00  0.00    -0.218 NA
ATOM     11  C   LIG    1       31.200 -17.217  10.495  0.00  0.00    +0.128 A 
ATOM     12  C   LIG    1       31.634 -16.406  11.677  0.00  0.00    +0.088 C 
ATOM     13  N   LIG    1       30.318 -16.676   9.638  0.00  0.00    -0.240 NA
ATOM     14  C   LIG    1       30.029 -17.387   8.537  0.00  0.00    +0.126 A 
BRANCH   9  15
ATOM     15  N   LIG    1       32.001 -20.381   9.132  0.00  0.00    -0.343 N 
ATOM     16  H   LIG    1       31.846 -20.967   9.946  0.00  0.00    +0.144 HD
ATOM     17  H   LIG    1       31.543 -20.825   8.328  0.00  0.00    +0.144 HD
ENDBRANCH   9  15
ENDBRANCH   7   8
ENDBRANCH   3   7
BRANCH   6  18
ATOM     18  C   LIG    1       25.712 -20.517   4.926  0.00  0.00    +0.077 C 
BRANCH  18  19
ATOM     19  C   LIG    1       24.324 -20.607   5.561  0.00  0.00    +0.178 C 
BRANCH  19  20
ATOM     20  O   LIG    1       23.741 -21.891   5.404  0.00  0.00    -0.286 OA
BRANCH  20  21
ATOM     21  P   LIG    1       23.412 -22.726   6.749  0.00  0.00    +0.483 P 
ATOM     22  O   LIG    1       23.147 -21.898   7.968  0.00  0.00    -0.227 OA
BRANCH  21  23
ATOM     23  O   LIG    1       22.111 -23.549   6.302  0.00  0.00    -0.302 OA
ATOM     24  H   LIG    1       22.341 -24.445   5.967  0.00  0.00    +0.222 HD
ENDBRANCH  21  23
BRANCH  21  25
ATOM     25  O   LIG    1       24.564 -23.793   6.831  0.00  0.00    -0.186 OA
BRANCH  25  26
ATOM     26  P   LIG    1       24.910 -24.870   5.719  0.00  0.00    +0.481 P 
ATOM     27  O   LIG    1       26.206 -25.567   5.887  0.00  0.00    -0.227 OA
BRANCH  26  28
ATOM     28  O   LIG    1       24.779 -24.121   4.319  0.00  0.00    -0.302 OA
ATOM     29  H   LIG    1       25.355 -23.337   4.242  0.00  0.00    +0.222 HD
ENDBRANCH  26  28
BRANCH  26  30
ATOM     30  O   LIG    1       23.643 -25.840   5.697  0.00  0.00    -0.302 OA
ATOM     31  H   LIG    1       23.397 -26.118   4.797  0.00  0.00    +0.222 HD
ENDBRANCH  26  30
ENDBRANCH  25  26
ENDBRANCH  21  25
ENDBRANCH  20  21
ENDBRANCH  19  20
ENDBRANCH  18  19
ENDBRANCH   6  18
TORSDOF 12
ENDMDL
MODEL 4
REMARK VINA RESULT:      -8.4      5.193      7.848
REMARK  Name = *****
REMARK                            x       y       z     vdW  Elec       q    Type
REMARK                         _______ _______ _______ _____ _____    ______ ____
ROOT
ATOM      1  C   LIG    1       27.163 -19.814   4.964  0.00  0.00    +0.122 C 
ATOM      2  C   LIG    1       26.867 -20.383   6.302  0.00  0.00    +0.192 A 
ATOM      3  N   LIG    1       27.922 -20.617   7.196  0.00  0.00    -0.190 N 
ATOM      4  C   LIG    1       27.543 -21.060   8.381  0.00  0.00    +0.357 A 
ATOM      5  S   LIG    1       25.858 -21.329   8.438  0.00  0.00    -0.027 S 
ATOM      6  C   LIG    1       25.643 -20.803   6.804  0.00  0.00    +0.064 A 
ENDROOT
BRANCH   3   7
ATOM      7  C   LIG    1       29.338 -20.449   6.805  0.00  0.00    +0.399 C 
BRANCH   7   8
ATOM      8  C   LIG    1       30.172 -19.593   7.703  0.00  0.00    +0.075 A 
ATOM      9  C   LIG    1       31.197 -20.088   8.482  0.00  0.00    +0.129 A 
ATOM     10  N   LIG    1       31.974 -19.309   9.242  0.00  0.00    -0.218 NA
ATOM     11  C   LIG    1       31.735 -17.986   9.233  0.00  0.00    +0.128 A 
ATOM     12  C   LIG    1       32.674 -17.098   9.991  0.00  0.00    +0.088 C 
ATOM     13  N   LIG    1       30.731 -17.415   8.547  0.00  0.00    -0.240 NA
ATOM     14  C   LIG    1       29.971 -18.229   7.798  0.00  0.00    +0.126 A 
BRANCH   9  15
ATOM     15  N   LIG    1       31.460 -21.451   8.580  0.00  0.00    -0.343 N 
ATOM     16  H   LIG    1       30.635 -22.037   8.641  0.00  0.00    +0.144 HD
ATOM     17  H   LIG    1       31.960 -21.693   7.717  0.00  0.00    +0.144 HD
ENDBRANCH   9  15
ENDBRANCH   7   8
ENDBRANCH   3   7
BRANCH   6  18
ATOM     18  C   LIG    1       24.249 -20.905   6.214  0.00  0.00    +0.077 C 
BRANCH  18  19
ATOM     19  C   LIG    1       23.792 -22.276   5.715  0.00  0.00    +0.178 C 
BRANCH  19  20
ATOM     20  O   LIG    1       24.882 -23.110   5.356  0.00  0.00    -0.286 OA
BRANCH  20  21
ATOM     21  P   LIG    1       25.033 -24.515   6.141  0.00  0.00    +0.483 P 
ATOM     22  O   LIG    1       25.744 -24.441   7.457  0.00  0.00    -0.227 OA
BRANCH  21  23
ATOM     23  O   LIG    1       23.499 -24.945   6.324  0.00  0.00    -0.302 OA
ATOM     24  H   LIG    1       23.017 -24.954   5.467  0.00  0.00    +0.222 HD
ENDBRANCH  21  23
BRANCH  21  25
ATOM     25  O   LIG    1       25.609 -25.501   5.059  0.00  0.00    -0.186 OA
BRANCH  25  26
ATOM     26  P   LIG    1       25.983 -27.023   5.300  0.00  0.00    +0.481 P 
ATOM     27  O   LIG    1       25.008 -28.010   4.780  0.00  0.00    -0.227 OA
BRANCH  26  28
ATOM     28  O   LIG    1       26.252 -27.173   6.863  0.00  0.00    -0.302 OA
ATOM     29  H   LIG    1       26.434 -28.092   7.140  0.00  0.00    +0.222 HD
ENDBRANCH  26  28
BRANCH  26  30
ATOM     30  O   LIG    1       27.452 -27.172   4.693  0.00  0.00    -0.302 OA
ATOM     31  H   LIG    1       27.449 -27.314   3.731  0.00  0.00    +0.222 HD
ENDBRANCH  26  30
ENDBRANCH  25  26
ENDBRANCH  21  25
ENDBRANCH  20  21
ENDBRANCH  19  20
ENDBRANCH  18  19
ENDBRANCH   6  18
TORSDOF 12
ENDMDL
MODEL 5
REMARK VINA RESULT:      -7.9      5.194      7.972
REMARK  Name = *****
REMARK                            x       y       z     vdW  Elec       q    Type
REMARK                         _______ _______ _______ _____ _____    ______ ____
ROOT
ATOM      1  C   LIG    1       28.764 -21.566   8.389  0.00  0.00    +0.122 C 
ATOM      2  C   LIG    1       28.150 -20.852   7.242  0.00  0.00    +0.192 A 
ATOM      3  N   LIG    1       28.945 -20.002   6.460  0.00  0.00    -0.190 N 
ATOM      4  C   LIG    1       28.318 -19.470   5.426  0.00  0.00    +0.357 A 
ATOM      5  S   LIG    1       26.665 -19.894   5.412  0.00  0.00    -0.027 S 
ATOM      6  C   LIG    1       26.820 -20.848   6.846  0.00  0.00    +0.064 A 
ENDROOT
BRANCH   3   7
ATOM      7  C   LIG    1       30.342 -19.680   6.817  0.00  0.00    +0.399 C 
BRANCH   7   8
ATOM      8  C   LIG    1       30.538 -18.905   8.079  0.00  0.00    +0.075 A 
ATOM      9  C   LIG    1       31.353 -19.330   9.110  0.00  0.00    +0.129 A 
ATOM     10  N   LIG    1       31.566 -18.607  10.214  0.00  0.00    -0.218 NA
ATOM     11  C   LIG    1       30.955 -17.414  10.309  0.00  0.00    +0.128 A 
ATOM     12  C   LIG    1       31.281 -16.551  11.490  0.00  0.00    +0.088 C 
ATOM     13  N   LIG    1       30.107 -16.936   9.384  0.00  0.00    -0.240 NA
ATOM     14  C   LIG    1       29.916 -17.690   8.290  0.00  0.00    +0.126 A 
BRANCH   9  15
ATOM     15  N   LIG    1       31.968 -20.578   9.099  0.00  0.00    -0.343 N 
ATOM     16  H   LIG    1       32.899 -20.587   8.697  0.00  0.00    +0.144 HD
ATOM     17  H   LIG    1       32.043 -20.853  10.084  0.00  0.00    +0.144 HD
ENDBRANCH   9  15
ENDBRANCH   7   8
ENDBRANCH   3   7
BRANCH   6  18
ATOM     18  C   LIG    1       25.556 -21.463   7.418  0.00  0.00    +0.077 C 
BRANCH  18  19
ATOM     19  C   LIG    1       25.588 -22.953   7.759  0.00  0.00    +0.178 C 
BRANCH  19  20
ATOM     20  O   LIG    1       26.022 -23.748   6.666  0.00  0.00    -0.286 OA
BRANCH  20  21
ATOM     21  P   LIG    1       24.883 -24.396   5.721  0.00  0.00    +0.483 P 
ATOM     22  O   LIG    1       23.612 -24.776   6.417  0.00  0.00    -0.227 OA
BRANCH  21  23
ATOM     23  O   LIG    1       24.643 -23.221   4.658  0.00  0.00    -0.302 OA
ATOM     24  H   LIG    1       25.004 -22.362   4.973  0.00  0.00    +0.222 HD
ENDBRANCH  21  23
BRANCH  21  25
ATOM     25  O   LIG    1       25.639 -25.522   4.924  0.00  0.00    -0.186 OA
BRANCH  25  26
ATOM     26  P   LIG    1       26.034 -26.950   5.490  0.00  0.00    +0.481 P 
ATOM     27  O   LIG    1       25.217 -28.082   4.994  0.00  0.00    -0.227 OA
BRANCH  26  28
ATOM     28  O   LIG    1       26.022 -26.818   7.078  0.00  0.00    -0.302 OA
ATOM     29  H   LIG    1       25.279 -27.291   7.501  0.00  0.00    +0.222 HD
ENDBRANCH  26  28
BRANCH  26  30
ATOM     30  O   LIG    1       27.594 -27.083   5.180  0.00  0.00    -0.302 OA
ATOM     31  H   LIG    1       28.130 -27.190   5.985  0.00  0.00    +0.222 HD
ENDBRANCH  26  30
ENDBRANCH  25  26
ENDBRANCH  21  25
ENDBRANCH  20  21
ENDBRANCH  19  20
ENDBRANCH  18  19
ENDBRANCH   6  18
TORSDOF 12
ENDMDL
MODEL 6
REMARK VINA RESULT:      -7.8      5.137      7.737
REMARK  Name = *****
REMARK                            x       y       z     vdW  Elec       q    Type
REMARK                         _______ _______ _______ _____ _____    ______ ____
ROOT
ATOM      1  C   LIG    1       25.654 -20.422   4.918  0.00  0.00    +0.122 C 
ATOM      2  C   LIG    1       25.754 -20.836   6.340  0.00  0.00    +0.192 A 
ATOM      3  N   LIG    1       27.015 -20.902   6.947  0.00  0.00    -0.190 N 
ATOM      4  C   LIG    1       26.985 -21.215   8.230  0.00  0.00    +0.357 A 
ATOM      5  S   LIG    1       25.398 -21.563   8.752  0.00  0.00    -0.027 S 
ATOM      6  C   LIG    1       24.735 -21.254   7.184  0.00  0.00    +0.064 A 
ENDROOT
BRANCH   3   7
ATOM      7  C   LIG    1       28.268 -20.709   6.187  0.00  0.00    +0.399 C 
BRANCH   7   8
ATOM      8  C   LIG    1       29.353 -19.956   6.884  0.00  0.00    +0.075 A 
ATOM      9  C   LIG    1       29.776 -18.701   6.494  0.00  0.00    +0.129 A 
ATOM     10  N   LIG    1       30.710 -18.010   7.155  0.00  0.00    -0.218 NA
ATOM     11  C   LIG    1       31.251 -18.575   8.249  0.00  0.00    +0.128 A 
ATOM     12  C   LIG    1       32.213 -17.759   9.057  0.00  0.00    +0.088 C 
ATOM     13  N   LIG    1       30.942 -19.809   8.679  0.00  0.00    -0.240 NA
ATOM     14  C   LIG    1       30.002 -20.473   7.989  0.00  0.00    +0.126 A 
BRANCH   9  15
ATOM     15  N   LIG    1       29.298 -18.086   5.341  0.00  0.00    -0.343 N 
ATOM     16  H   LIG    1       29.897 -18.187   4.529  0.00  0.00    +0.144 HD
ATOM     17  H   LIG    1       28.405 -18.547   5.138  0.00  0.00    +0.144 HD
ENDBRANCH   9  15
ENDBRANCH   7   8
ENDBRANCH   3   7
BRANCH   6  18
ATOM     18  C   LIG    1       23.250 -21.502   6.991  0.00  0.00    +0.077 C 
BRANCH  18  19
ATOM     19  C   LIG    1       22.831 -22.838   6.378  0.00  0.00    +0.178 C 
BRANCH  19  20
ATOM     20  O   LIG    1       23.512 -23.937   6.963  0.00  0.00    -0.286 OA
BRANCH  20  21
ATOM     21  P   LIG    1       24.643 -24.670   6.070  0.00  0.00    +0.483 P 
ATOM     22  O   LIG    1       24.950 -24.013   4.760  0.00  0.00    -0.227 OA
BRANCH  21  23
ATOM     23  O   LIG    1       25.905 -24.631   7.058  0.00  0.00    -0.302 OA
ATOM     24  H   LIG    1       26.746 -24.474   6.572  0.00  0.00    +0.222 HD
ENDBRANCH  21  23
BRANCH  21  25
ATOM     25  O   LIG    1       24.193 -26.177   6.040  0.00  0.00    -0.186 OA
BRANCH  25  26
ATOM     26  P   LIG    1       25.119 -27.412   5.677  0.00  0.00    +0.481 P 
ATOM     27  O   LIG    1       24.433 -28.555   5.030  0.00  0.00    -0.227 OA
BRANCH  26  28
ATOM     28  O   LIG    1       25.871 -27.815   7.023  0.00  0.00    -0.302 OA
ATOM     29  H   LIG    1       26.675 -27.287   7.192  0.00  0.00    +0.222 HD
ENDBRANCH  26  28
BRANCH  26  30
ATOM     30  O   LIG    1       26.302 -26.782   4.810  0.00  0.00    -0.302 OA
ATOM     31  H   LIG    1       26.235 -27.004   3.865  0.00  0.00    +0.222 HD
ENDBRANCH  26  30
ENDBRANCH  25  26
ENDBRANCH  21  25
ENDBRANCH  20  21
ENDBRANCH  19  20
ENDBRANCH  18  19
ENDBRANCH   6  18
TORSDOF 12
ENDMDL
MODEL 7
REMARK VINA RESULT:      -7.4      6.619      8.765
REMARK  Name = *****
REMARK                            x       y       z     vdW  Elec       q    Type
REMARK                         _______ _______ _______ _____ _____    ______ ____
ROOT
ATOM      1  C   LIG    1       24.402 -22.154   4.507  0.00  0.00    +0.122 C 
ATOM      2  C   LIG    1       24.943 -23.010   5.593  0.00  0.00    +0.192 A 
ATOM      3  N   LIG    1       25.415 -22.410   6.768  0.00  0.00    -0.190 N 
ATOM      4  C   LIG    1       25.810 -23.265   7.694  0.00  0.00    +0.357 A 
ATOM      5  S   LIG    1       25.733 -24.875   7.133  0.00  0.00    -0.027 S 
ATOM      6  C   LIG    1       25.121 -24.387   5.590  0.00  0.00    +0.064 A 
ENDROOT
BRANCH   3   7
ATOM      7  C   LIG    1       25.526 -20.944   6.915  0.00  0.00    +0.399 C 
BRANCH   7   8
ATOM      8  C   LIG    1       26.910 -20.397   7.053  0.00  0.00    +0.075 A 
ATOM      9  C   LIG    1       27.654 -19.942   5.984  0.00  0.00    +0.129 A 
ATOM     10  N   LIG    1       28.870 -19.404   6.121  0.00  0.00    -0.218 NA
ATOM     11  C   LIG    1       29.377 -19.308   7.362  0.00  0.00    +0.128 A 
ATOM     12  C   LIG    1       30.688 -18.603   7.533  0.00  0.00    +0.088 C 
ATOM     13  N   LIG    1       28.752 -19.767   8.459  0.00  0.00    -0.240 NA
ATOM     14  C   LIG    1       27.533 -20.302   8.282  0.00  0.00    +0.126 A 
BRANCH   9  15
ATOM     15  N   LIG    1       27.212 -20.064   4.670  0.00  0.00    -0.343 N 
ATOM     16  H   LIG    1       27.093 -21.020   4.351  0.00  0.00    +0.144 HD
ATOM     17  H   LIG    1       26.295 -19.604   4.648  0.00  0.00    +0.144 HD
ENDBRANCH   9  15
ENDBRANCH   7   8
ENDBRANCH   3   7
BRANCH   6  18
ATOM     18  C   LIG    1       24.917 -25.468   4.544  0.00  0.00    +0.077 C 
BRANCH  18  19
ATOM     19  C   LIG    1       25.640 -26.798   4.755  0.00  0.00    +0.178 C 
BRANCH  19  20
ATOM     20  O   LIG    1       24.790 -27.914   4.540  0.00  0.00    -0.286 OA
BRANCH  20  21
ATOM     21  P   LIG    1       24.667 -28.995   5.735  0.00  0.00    +0.483 P 
ATOM     22  O   LIG    1       24.815 -28.441   7.118  0.00  0.00    -0.227 OA
BRANCH  21  23
ATOM     23  O   LIG    1       23.193 -29.577   5.489  0.00  0.00    -0.302 OA
ATOM     24  H   LIG    1       22.618 -29.463   6.279  0.00  0.00    +0.222 HD
ENDBRANCH  21  23
BRANCH  21  25
ATOM     25  O   LIG    1       25.641 -30.154   5.308  0.00  0.00    -0.186 OA
BRANCH  25  26
ATOM     26  P   LIG    1       25.543 -31.666   5.777  0.00  0.00    +0.481 P 
ATOM     27  O   LIG    1       26.823 -32.412   5.797  0.00  0.00    -0.227 OA
BRANCH  26  28
ATOM     28  O   LIG    1       24.436 -32.347   4.856  0.00  0.00    -0.302 OA
ATOM     29  H   LIG    1       23.522 -32.129   5.121  0.00  0.00    +0.222 HD
ENDBRANCH  26  28
BRANCH  26  30
ATOM     30  O   LIG    1       24.804 -31.597   7.190  0.00  0.00    -0.302 OA
ATOM     31  H   LIG    1       25.415 -31.420   7.926  0.00  0.00    +0.222 HD
ENDBRANCH  26  30
ENDBRANCH  25  26
ENDBRANCH  21  25
ENDBRANCH  20  21
ENDBRANCH  19  20
ENDBRANCH  18  19
ENDBRANCH   6  18
TORSDOF 12
ENDMDL
MODEL 8
REMARK VINA RESULT:      -7.4      6.096      8.227
REMARK  Name = *****
REMARK                            x       y       z     vdW  Elec       q    Type
REMARK                         _______ _______ _______ _____ _____    ______ ____
ROOT
ATOM      1  C   LIG    1       24.390 -22.145   4.525  0.00  0.00    +0.122 C 
ATOM      2  C   LIG    1       24.941 -22.998   5.607  0.00  0.00    +0.192 A 
ATOM      3  N   LIG    1       25.431 -22.394   6.774  0.00  0.00    -0.190 N 
ATOM      4  C   LIG    1       25.835 -23.246   7.699  0.00  0.00    +0.357 A 
ATOM      5  S   LIG    1       25.743 -24.858   7.147  0.00  0.00    -0.027 S 
ATOM      6  C   LIG    1       25.114 -24.375   5.610  0.00  0.00    +0.064 A 
ENDROOT
BRANCH   3   7
ATOM      7  C   LIG    1       25.550 -20.927   6.912  0.00  0.00    +0.399 C 
BRANCH   7   8
ATOM      8  C   LIG    1       26.937 -20.387   7.040  0.00  0.00    +0.075 A 
ATOM      9  C   LIG    1       27.672 -19.925   5.967  0.00  0.00    +0.129 A 
ATOM     10  N   LIG    1       28.891 -19.393   6.096  0.00  0.00    -0.218 NA
ATOM     11  C   LIG    1       29.411 -19.308   7.333  0.00  0.00    +0.128 A 
ATOM     12  C   LIG    1       30.726 -18.610   7.496  0.00  0.00    +0.088 C 
ATOM     13  N   LIG    1       28.795 -19.774   8.433  0.00  0.00    -0.240 NA
ATOM     14  C   LIG    1       27.573 -20.304   8.264  0.00  0.00    +0.126 A 
BRANCH   9  15
ATOM     15  N   LIG    1       27.216 -20.034   4.657  0.00  0.00    -0.343 N 
ATOM     16  H   LIG    1       27.511 -19.283   4.043  0.00  0.00    +0.144 HD
ATOM     17  H   LIG    1       27.615 -20.911   4.303  0.00  0.00    +0.144 HD
ENDBRANCH   9  15
ENDBRANCH   7   8
ENDBRANCH   3   7
BRANCH   6  18
ATOM     18  C   LIG    1       24.892 -25.460   4.571  0.00  0.00    +0.077 C 
BRANCH  18  19
ATOM     19  C   LIG    1       25.365 -26.873   4.916  0.00  0.00    +0.178 C 
BRANCH  19  20
ATOM     20  O   LIG    1       24.295 -27.722   5.300  0.00  0.00    -0.286 OA
BRANCH  20  21
ATOM     21  P   LIG    1       24.669 -29.063   6.121  0.00  0.00    +0.483 P 
ATOM     22  O   LIG    1       23.591 -30.100   6.180  0.00  0.00    -0.227 OA
BRANCH  21  23
ATOM     23  O   LIG    1       25.947 -29.589   5.308  0.00  0.00    -0.302 OA
ATOM     24  H   LIG    1       26.505 -28.847   4.982  0.00  0.00    +0.222 HD
ENDBRANCH  21  23
BRANCH  21  25
ATOM     25  O   LIG    1       25.242 -28.531   7.486  0.00  0.00    -0.186 OA
BRANCH  25  26
ATOM     26  P   LIG    1       25.800 -29.429   8.668  0.00  0.00    +0.481 P 
ATOM     27  O   LIG    1       24.871 -29.640   9.802  0.00  0.00    -0.227 OA
BRANCH  26  28
ATOM     28  O   LIG    1       27.186 -28.776   9.107  0.00  0.00    -0.302 OA
ATOM     29  H   LIG    1       27.949 -29.100   8.592  0.00  0.00    +0.222 HD
ENDBRANCH  26  28
BRANCH  26  30
ATOM     30  O   LIG    1       26.278 -30.774   7.954  0.00  0.00    -0.302 OA
ATOM     31  H   LIG    1       26.770 -30.609   7.131  0.00  0.00    +0.222 HD
ENDBRANCH  26  30
ENDBRANCH  25  26
ENDBRANCH  21  25
ENDBRANCH  20  21
ENDBRANCH  19  20
ENDBRANCH  18  19
ENDBRANCH   6  18
TORSDOF 12
ENDMDL
MODEL 9
REMARK VINA RESULT:      -7.2      2.423      4.844
REMARK  Name = *****
REMARK                            x       y       z     vdW  Elec       q    Type
REMARK                         _______ _______ _______ _____ _____    ______ ____
ROOT
ATOM      1  C   LIG    1       26.689 -20.147   5.281  0.00  0.00    +0.122 C 
ATOM      2  C   LIG    1       26.173 -21.402   5.883  0.00  0.00    +0.192 A 
ATOM      3  N   LIG    1       25.178 -22.126   5.212  0.00  0.00    -0.190 N 
ATOM      4  C   LIG    1       24.839 -23.259   5.799  0.00  0.00    +0.357 A 
ATOM      5  S   LIG    1       25.647 -23.456   7.289  0.00  0.00    -0.027 S 
ATOM      6  C   LIG    1       26.498 -21.961   7.111  0.00  0.00    +0.064 A 
ENDROOT
BRANCH   3   7
ATOM      7  C   LIG    1       24.520 -21.615   3.990  0.00  0.00    +0.399 C 
BRANCH   7   8
ATOM      8  C   LIG    1       23.805 -20.310   4.123  0.00  0.00    +0.075 A 
ATOM      9  C   LIG    1       22.571 -20.181   4.728  0.00  0.00    +0.129 A 
ATOM     10  N   LIG    1       21.961 -19.003   4.891  0.00  0.00    -0.218 NA
ATOM     11  C   LIG    1       22.591 -17.903   4.444  0.00  0.00    +0.128 A 
ATOM     12  C   LIG    1       21.966 -16.571   4.727  0.00  0.00    +0.088 C 
ATOM     13  N   LIG    1       23.769 -17.930   3.799  0.00  0.00    -0.240 NA
ATOM     14  C   LIG    1       24.351 -19.131   3.651  0.00  0.00    +0.126 A 
BRANCH   9  15
ATOM     15  N   LIG    1       21.841 -21.284   5.161  0.00  0.00    -0.343 N 
ATOM     16  H   LIG    1       21.875 -22.084   4.538  0.00  0.00    +0.144 HD
ATOM     17  H   LIG    1       22.267 -21.557   6.054  0.00  0.00    +0.144 HD
ENDBRANCH   9  15
ENDBRANCH   7   8
ENDBRANCH   3   7
BRANCH   6  18
ATOM     18  C   LIG    1       27.384 -21.518   8.262  0.00  0.00    +0.077 C 
BRANCH  18  19
ATOM     19  C   LIG    1       28.663 -20.755   7.915  0.00  0.00    +0.178 C 
BRANCH  19  20
ATOM     20  O   LIG    1       29.821 -21.364   8.465  0.00  0.00    -0.286 OA
BRANCH  20  21
ATOM     21  P   LIG    1       31.118 -20.426   8.688  0.00  0.00    +0.483 P 
ATOM     22  O   LIG    1       32.281 -21.089   9.358  0.00  0.00    -0.227 OA
BRANCH  21  23
ATOM     23  O   LIG    1       31.469 -20.003   7.182  0.00  0.00    -0.302 OA
ATOM     24  H   LIG    1       31.851 -19.098   7.134  0.00  0.00    +0.222 HD
ENDBRANCH  21  23
BRANCH  21  25
ATOM     25  O   LIG    1       30.541 -19.124   9.355  0.00  0.00    -0.186 OA
BRANCH  25  26
ATOM     26  P   LIG    1       31.342 -17.777   9.601  0.00  0.00    +0.481 P 
ATOM     27  O   LIG    1       32.241 -17.775  10.779  0.00  0.00    -0.227 OA
BRANCH  26  28
ATOM     28  O   LIG    1       30.254 -16.613   9.643  0.00  0.00    -0.302 OA
ATOM     29  H   LIG    1       29.984 -16.301   8.758  0.00  0.00    +0.222 HD
ENDBRANCH  26  28
BRANCH  26  30
ATOM     30  O   LIG    1       32.079 -17.493   8.214  0.00  0.00    -0.302 OA
ATOM     31  H   LIG    1       32.598 -18.254   7.901  0.00  0.00    +0.222 HD
ENDBRANCH  26  30
ENDBRANCH  25  26
ENDBRANCH  21  25
ENDBRANCH  20  21
ENDBRANCH  19  20
ENDBRANCH  18  19
ENDBRANCH   6  18
TORSDOF 12
ENDMDL
