MODEL 1
REMARK VINA RESULT:      -8.5      0.000      0.000
REMARK  Name = *****
REMARK                            x       y       z     vdW  Elec       q    Type
REMARK                         _______ _______ _______ _____ _____    ______ ____
ROOT
ATOM      1  C   LIG    1       28.526 -20.686   6.552  0.00  0.00    +0.162 C 
ENDROOT
BRANCH   1   2
ATOM      2  C   LIG    1       27.119 -21.008   7.045  0.00  0.00    -0.007 A 
ATOM      3  C   LIG    1       25.938 -20.626   6.343  0.00  0.00    +0.009 A 
ATOM      4  C   LIG    1       24.686 -21.012   6.899  0.00  0.00    +0.071 A 
ATOM      5  C   LIG    1       23.517 -20.690   6.226  0.00  0.00    +0.032 A 
ATOM      6  C   LIG    1       23.527 -20.000   5.015  0.00  0.00    +0.048 A 
ATOM      7  C   LIG    1       24.735 -19.611   4.453  0.00  0.00    +0.121 A 
ATOM      8  N   LIG    1       24.575 -21.687   8.048  0.00  0.00    -0.255 NA
ATOM      9  C   LIG    1       25.704 -22.051   8.683  0.00  0.00    +0.112 A 
ATOM     10  C   LIG    1       25.920 -19.903   5.127  0.00  0.00    +0.056 A 
ATOM     11  C   LIG    1       26.974 -21.752   8.224  0.00  0.00    +0.026 A 
BRANCH   7  12
ATOM     12  O   LIG    1       24.653 -18.930   3.271  0.00  0.00    -0.495 OA
ATOM     13  C   LIG    1       25.540 -17.823   3.138  0.00  0.00    +0.277 C 
ENDBRANCH   7  12
ENDBRANCH   1   2
BRANCH   1  17
ATOM     14  C   LIG    1       31.047 -17.687   8.557  0.00  0.00    +0.028 C 
ATOM     15  C   LIG    1       31.579 -18.778   7.595  0.00  0.00    -0.000 C 
ATOM     16  C   LIG    1       30.506 -19.011   6.517  0.00  0.00    +0.026 C 
ATOM     17  C   LIG    1       29.177 -19.415   7.190  0.00  0.00    +0.090 C 
ATOM     18  N   LIG    1       29.335 -19.538   8.686  0.00  0.00    -0.296 NA
ATOM     19  C   LIG    1       30.431 -20.474   9.039  0.00  0.00    +0.085 C 
ATOM     20  C   LIG    1       31.746 -20.115   8.335  0.00  0.00    +0.019 C 
ATOM     21  C   LIG    1       29.732 -18.198   9.211  0.00  0.00    +0.092 C 
BRANCH  14  23
ATOM     22  C   LIG    1       32.619 -16.042   9.615  0.00  0.00    +0.004 C 
ATOM     23  C   LIG    1       32.088 -17.273   9.571  0.00  0.00    -0.029 C 
ENDBRANCH  14  23
ENDBRANCH   1  17
BRANCH   1  24
ATOM     24  O   LIG    1       29.361 -21.815   6.848  0.00  0.00    -0.386 OA
ATOM     25  H   LIG    1       29.974 -21.491   7.539  0.00  0.00    +0.210 HD
ENDBRANCH   1  24
TORSDOF 5
ENDMDL
MODEL 2
REMARK VINA RESULT:      -8.2      4.507      8.026
REMARK  Name = *****
REMARK                            x       y       z     vdW  Elec       q    Type
REMARK                         _______ _______ _______ _____ _____    ______ ____
ROOT
ATOM      1  C   LIG    1       25.234 -24.187   5.529  0.00  0.00    +0.162 C 
ENDROOT
BRANCH   1   2
ATOM      2  C   LIG    1       24.791 -23.011   6.394  0.00  0.00    -0.007 A 
ATOM      3  C   LIG    1       25.703 -22.164   7.090  0.00  0.00    +0.009 A 
ATOM      4  C   LIG    1       25.158 -21.085   7.841  0.00  0.00    +0.071 A 
ATOM      5  C   LIG    1       26.017 -20.219   8.502  0.00  0.00    +0.032 A 
ATOM      6  C   LIG    1       27.402 -20.367   8.451  0.00  0.00    +0.048 A 
ATOM      7  C   LIG    1       27.956 -21.412   7.725  0.00  0.00    +0.121 A 
ATOM      8  N   LIG    1       23.845 -20.853   7.940  0.00  0.00    -0.255 NA
ATOM      9  C   LIG    1       23.006 -21.656   7.261  0.00  0.00    +0.112 A 
ATOM     10  C   LIG    1       27.109 -22.310   7.075  0.00  0.00    +0.056 A 
ATOM     11  C   LIG    1       23.422 -22.718   6.480  0.00  0.00    +0.026 A 
BRANCH   7  12
ATOM     12  O   LIG    1       29.321 -21.490   7.737  0.00  0.00    -0.495 OA
ATOM     13  C   LIG    1       30.007 -20.244   7.660  0.00  0.00    +0.277 C 
ENDBRANCH   7  12
ENDBRANCH   1   2
BRANCH   1  17
ATOM     14  C   LIG    1       24.834 -28.387   6.783  0.00  0.00    +0.028 C 
ATOM     15  C   LIG    1       26.060 -27.492   7.090  0.00  0.00    -0.000 C 
ATOM     16  C   LIG    1       25.549 -26.056   7.298  0.00  0.00    +0.026 C 
ATOM     17  C   LIG    1       24.781 -25.594   6.042  0.00  0.00    +0.090 C 
ATOM     18  N   LIG    1       24.823 -26.643   4.957  0.00  0.00    -0.296 NA
ATOM     19  C   LIG    1       26.218 -27.032   4.633  0.00  0.00    +0.085 C 
ATOM     20  C   LIG    1       27.008 -27.443   5.881  0.00  0.00    +0.019 C 
ATOM     21  C   LIG    1       24.151 -27.866   5.485  0.00  0.00    +0.092 C 
BRANCH  14  23
ATOM     22  C   LIG    1       25.153 -30.562   5.574  0.00  0.00    +0.004 C 
ATOM     23  C   LIG    1       25.206 -29.849   6.708  0.00  0.00    -0.029 C 
ENDBRANCH  14  23
ENDBRANCH   1  17
BRANCH   1  24
ATOM     24  O   LIG    1       24.691 -23.991   4.215  0.00  0.00    -0.386 OA
ATOM     25  H   LIG    1       24.024 -24.701   4.119  0.00  0.00    +0.210 HD
ENDBRANCH   1  24
TORSDOF 5
ENDMDL
MODEL 3
REMARK VINA RESULT:      -7.8      2.754      4.410
REMARK  Name = *****
REMARK                            x       y       z     vdW  Elec       q    Type
REMARK                         _______ _______ _______ _____ _____    ______ ____
ROOT
ATOM      1  C   LIG    1       26.189 -21.405   8.533  0.00  0.00    +0.162 C 
ENDROOT
BRANCH   1   2
ATOM      2  C   LIG    1       25.006 -21.799   7.652  0.00  0.00    -0.007 A 
ATOM      3  C   LIG    1       24.838 -23.105   7.106  0.00  0.00    +0.009 A 
ATOM      4  C   LIG    1       23.675 -23.346   6.322  0.00  0.00    +0.071 A 
ATOM      5  C   LIG    1       23.459 -24.615   5.805  0.00  0.00    +0.032 A 
ATOM      6  C   LIG    1       24.345 -25.668   6.030  0.00  0.00    +0.048 A 
ATOM      7  C   LIG    1       25.486 -25.456   6.790  0.00  0.00    +0.121 A 
ATOM      8  N   LIG    1       22.762 -22.405   6.061  0.00  0.00    -0.255 NA
ATOM      9  C   LIG    1       22.934 -21.186   6.602  0.00  0.00    +0.112 A 
ATOM     10  C   LIG    1       25.735 -24.181   7.298  0.00  0.00    +0.056 A 
ATOM     11  C   LIG    1       24.011 -20.844   7.399  0.00  0.00    +0.026 A 
BRANCH   7  12
ATOM     12  O   LIG    1       26.305 -26.538   6.953  0.00  0.00    -0.495 OA
ATOM     13  C   LIG    1       25.647 -27.799   7.031  0.00  0.00    +0.277 C 
ENDBRANCH   7  12
ENDBRANCH   1   2
BRANCH   1  17
ATOM     14  C   LIG    1       29.391 -19.042   6.654  0.00  0.00    +0.028 C 
ATOM     15  C   LIG    1       28.890 -20.412   6.133  0.00  0.00    -0.000 C 
ATOM     16  C   LIG    1       27.381 -20.495   6.418  0.00  0.00    +0.026 C 
ATOM     17  C   LIG    1       27.129 -20.311   7.929  0.00  0.00    +0.090 C 
ATOM     18  N   LIG    1       28.427 -20.183   8.689  0.00  0.00    -0.296 NA
ATOM     19  C   LIG    1       29.327 -21.333   8.422  0.00  0.00    +0.085 C 
ATOM     20  C   LIG    1       29.543 -21.559   6.920  0.00  0.00    +0.019 C 
ATOM     21  C   LIG    1       29.129 -18.966   8.185  0.00  0.00    +0.092 C 
BRANCH  14  23
ATOM     22  C   LIG    1       31.838 -18.855   7.179  0.00  0.00    +0.004 C 
ATOM     23  C   LIG    1       30.836 -18.794   6.289  0.00  0.00    -0.029 C 
ENDBRANCH  14  23
ENDBRANCH   1  17
BRANCH   1  24
ATOM     24  O   LIG    1       25.664 -20.913   9.774  0.00  0.00    -0.386 OA
ATOM     25  H   LIG    1       26.386 -20.363  10.142  0.00  0.00    +0.210 HD
ENDBRANCH   1  24
TORSDOF 5
ENDMDL
MODEL 4
REMARK VINA RESULT:      -7.4      2.123      7.408
REMARK  Name = *****
REMARK                            x       y       z     vdW  Elec       q    Type
REMARK                         _______ _______ _______ _____ _____    ______ ____
ROOT
ATOM      1  C   LIG    1       27.426 -20.463   8.206  0.00  0.00    +0.162 C 
ENDROOT
BRANCH   1   2
ATOM      2  C   LIG    1       28.619 -19.811   7.512  0.00  0.00    -0.007 A 
ATOM      3  C   LIG    1       29.646 -19.113   8.213  0.00  0.00    +0.009 A 
ATOM      4  C   LIG    1       30.717 -18.574   7.447  0.00  0.00    +0.071 A 
ATOM      5  C   LIG    1       31.753 -17.920   8.097  0.00  0.00    +0.032 A 
ATOM      6  C   LIG    1       31.783 -17.775   9.484  0.00  0.00    +0.048 A 
ATOM      7  C   LIG    1       30.748 -18.292  10.252  0.00  0.00    +0.121 A 
ATOM      8  N   LIG    1       30.785 -18.673   6.115  0.00  0.00    -0.255 NA
ATOM      9  C   LIG    1       29.813 -19.351   5.478  0.00  0.00    +0.112 A 
ATOM     10  C   LIG    1       29.684 -18.930   9.614  0.00  0.00    +0.056 A 
ATOM     11  C   LIG    1       28.738 -19.937   6.120  0.00  0.00    +0.026 A 
BRANCH   7  12
ATOM     12  O   LIG    1       30.851 -18.097  11.601  0.00  0.00    -0.495 OA
ATOM     13  C   LIG    1       31.669 -17.002  12.002  0.00  0.00    +0.277 C 
ENDBRANCH   7  12
ENDBRANCH   1   2
BRANCH   1  17
ATOM     14  C   LIG    1       23.479 -20.831   6.295  0.00  0.00    +0.028 C 
ATOM     15  C   LIG    1       23.898 -21.567   7.592  0.00  0.00    -0.000 C 
ATOM     16  C   LIG    1       24.845 -20.636   8.370  0.00  0.00    +0.026 C 
ATOM     17  C   LIG    1       26.053 -20.269   7.483  0.00  0.00    +0.090 C 
ATOM     18  N   LIG    1       25.995 -20.984   6.155  0.00  0.00    -0.296 NA
ATOM     19  C   LIG    1       25.876 -22.452   6.335  0.00  0.00    +0.085 C 
ATOM     20  C   LIG    1       24.710 -22.828   7.257  0.00  0.00    +0.019 C 
ATOM     21  C   LIG    1       24.755 -20.538   5.455  0.00  0.00    +0.092 C 
BRANCH  14  23
ATOM     22  C   LIG    1       21.578 -21.015   4.668  0.00  0.00    +0.004 C 
ATOM     23  C   LIG    1       22.429 -21.597   5.526  0.00  0.00    -0.029 C 
ENDBRANCH  14  23
ENDBRANCH   1  17
BRANCH   1  24
ATOM     24  O   LIG    1       27.691 -21.870   8.299  0.00  0.00    -0.386 OA
ATOM     25  H   LIG    1       27.510 -22.091   9.235  0.00  0.00    +0.210 HD
ENDBRANCH   1  24
TORSDOF 5
ENDMDL
MODEL 5
REMARK VINA RESULT:      -7.4      3.435      7.534
REMARK  Name = *****
REMARK                            x       y       z     vdW  Elec       q    Type
REMARK                         _______ _______ _______ _____ _____    ______ ____
ROOT
ATOM      1  C   LIG    1       24.164 -21.922   6.495  0.00  0.00    +0.162 C 
ENDROOT
BRANCH   1   2
ATOM      2  C   LIG    1       25.051 -20.931   5.747  0.00  0.00    -0.007 A 
ATOM      3  C   LIG    1       26.394 -20.640   6.127  0.00  0.00    +0.009 A 
ATOM      4  C   LIG    1       27.120 -19.715   5.327  0.00  0.00    +0.071 A 
ATOM      5  C   LIG    1       28.441 -19.435   5.645  0.00  0.00    +0.032 A 
ATOM      6  C   LIG    1       29.086 -20.035   6.726  0.00  0.00    +0.048 A 
ATOM      7  C   LIG    1       28.397 -20.939   7.522  0.00  0.00    +0.121 A 
ATOM      8  N   LIG    1       26.594 -19.098   4.263  0.00  0.00    -0.255 NA
ATOM      9  C   LIG    1       25.331 -19.402   3.914  0.00  0.00    +0.112 A 
ATOM     10  C   LIG    1       27.060 -21.215   7.234  0.00  0.00    +0.056 A 
ATOM     11  C   LIG    1       24.539 -20.303   4.602  0.00  0.00    +0.026 A 
BRANCH   7  12
ATOM     12  O   LIG    1       29.100 -21.472   8.566  0.00  0.00    -0.495 OA
ATOM     13  C   LIG    1       30.510 -21.276   8.520  0.00  0.00    +0.277 C 
ENDBRANCH   7  12
ENDBRANCH   1   2
BRANCH   1  17
ATOM     14  C   LIG    1       24.268 -26.146   5.268  0.00  0.00    +0.028 C 
ATOM     15  C   LIG    1       24.120 -25.661   6.731  0.00  0.00    -0.000 C 
ATOM     16  C   LIG    1       23.303 -24.358   6.709  0.00  0.00    +0.026 C 
ATOM     17  C   LIG    1       24.010 -23.320   5.812  0.00  0.00    +0.090 C 
ATOM     18  N   LIG    1       25.321 -23.852   5.287  0.00  0.00    -0.296 NA
ATOM     19  C   LIG    1       26.202 -24.309   6.390  0.00  0.00    +0.085 C 
ATOM     20  C   LIG    1       25.494 -25.301   7.321  0.00  0.00    +0.019 C 
ATOM     21  C   LIG    1       25.021 -25.054   4.455  0.00  0.00    +0.092 C 
BRANCH  14  23
ATOM     22  C   LIG    1       24.450 -28.589   5.810  0.00  0.00    +0.004 C 
ATOM     23  C   LIG    1       24.928 -27.503   5.187  0.00  0.00    -0.029 C 
ENDBRANCH  14  23
ENDBRANCH   1  17
BRANCH   1  24
ATOM     24  O   LIG    1       24.733 -22.118   7.799  0.00  0.00    -0.386 OA
ATOM     25  H   LIG    1       24.312 -21.430   8.354  0.00  0.00    +0.210 HD
ENDBRANCH   1  24
TORSDOF 5
ENDMDL
MODEL 6
REMARK VINA RESULT:      -7.3      1.482      2.083
REMARK  Name = *****
REMARK                            x       y       z     vdW  Elec       q    Type
REMARK                         _______ _______ _______ _____ _____    ______ ____
ROOT
ATOM      1  C   LIG    1       27.500 -20.178   6.246  0.00  0.00    +0.162 C 
ENDROOT
BRANCH   1   2
ATOM      2  C   LIG    1       26.385 -21.178   6.536  0.00  0.00    -0.007 A 
ATOM      3  C   LIG    1       25.057 -21.036   6.036  0.00  0.00    +0.009 A 
ATOM      4  C   LIG    1       24.118 -22.055   6.360  0.00  0.00    +0.071 A 
ATOM      5  C   LIG    1       22.827 -21.969   5.861  0.00  0.00    +0.032 A 
ATOM      6  C   LIG    1       22.416 -20.915   5.046  0.00  0.00    +0.048 A 
ATOM      7  C   LIG    1       23.314 -19.909   4.717  0.00  0.00    +0.121 A 
ATOM      8  N   LIG    1       24.420 -23.110   7.123  0.00  0.00    -0.255 NA
ATOM      9  C   LIG    1       25.683 -23.231   7.568  0.00  0.00    +0.112 A 
ATOM     10  C   LIG    1       24.610 -19.964   5.230  0.00  0.00    +0.056 A 
ATOM     11  C   LIG    1       26.684 -22.317   7.297  0.00  0.00    +0.026 A 
BRANCH   7  12
ATOM     12  O   LIG    1       22.826 -18.909   3.922  0.00  0.00    -0.495 OA
ATOM     13  C   LIG    1       22.086 -17.896   4.596  0.00  0.00    +0.277 C 
ENDBRANCH   7  12
ENDBRANCH   1   2
BRANCH   1  17
ATOM     14  C   LIG    1       30.898 -19.383   8.927  0.00  0.00    +0.028 C 
ATOM     15  C   LIG    1       29.619 -18.512   8.849  0.00  0.00    -0.000 C 
ATOM     16  C   LIG    1       28.435 -19.449   8.551  0.00  0.00    +0.026 C 
ATOM     17  C   LIG    1       28.704 -20.222   7.242  0.00  0.00    +0.090 C 
ATOM     18  N   LIG    1       29.998 -19.781   6.602  0.00  0.00    -0.296 NA
ATOM     19  C   LIG    1       30.023 -18.313   6.384  0.00  0.00    +0.085 C 
ATOM     20  C   LIG    1       29.705 -17.534   7.667  0.00  0.00    +0.019 C 
ATOM     21  C   LIG    1       31.104 -20.089   7.557  0.00  0.00    +0.092 C 
BRANCH  14  23
ATOM     22  C   LIG    1       32.022 -17.542  10.209  0.00  0.00    +0.004 C 
ATOM     23  C   LIG    1       32.101 -18.581   9.365  0.00  0.00    -0.029 C 
ENDBRANCH  14  23
ENDBRANCH   1  17
BRANCH   1  24
ATOM     24  O   LIG    1       27.998 -20.450   4.927  0.00  0.00    -0.386 OA
ATOM     25  H   LIG    1       28.381 -19.599   4.631  0.00  0.00    +0.210 HD
ENDBRANCH   1  24
TORSDOF 5
ENDMDL
MODEL 7
REMARK VINA RESULT:      -7.2      2.379      4.377
REMARK  Name = *****
REMARK                            x       y       z     vdW  Elec       q    Type
REMARK                         _______ _______ _______ _____ _____    ______ ____
ROOT
ATOM      1  C   LIG    1       26.155 -20.045   5.515  0.00  0.00    +0.162 C 
ENDROOT
BRANCH   1   2
ATOM      2  C   LIG    1       24.741 -20.616   5.565  0.00  0.00    -0.007 A 
ATOM      3  C   LIG    1       24.454 -21.963   5.931  0.00  0.00    +0.009 A 
ATOM      4  C   LIG    1       23.088 -22.361   5.963  0.00  0.00    +0.071 A 
ATOM      5  C   LIG    1       22.768 -23.654   6.350  0.00  0.00    +0.032 A 
ATOM      6  C   LIG    1       23.744 -24.581   6.714  0.00  0.00    +0.048 A 
ATOM      7  C   LIG    1       25.083 -24.217   6.689  0.00  0.00    +0.121 A 
ATOM      8  N   LIG    1       22.081 -21.541   5.645  0.00  0.00    -0.255 NA
ATOM      9  C   LIG    1       22.376 -20.270   5.320  0.00  0.00    +0.112 A 
ATOM     10  C   LIG    1       25.427 -22.929   6.278  0.00  0.00    +0.056 A 
ATOM     11  C   LIG    1       23.663 -19.766   5.278  0.00  0.00    +0.026 A 
BRANCH   7  12
ATOM     12  O   LIG    1       25.974 -25.189   7.050  0.00  0.00    -0.495 OA
ATOM     13  C   LIG    1       25.958 -26.365   6.246  0.00  0.00    +0.277 C 
ENDBRANCH   7  12
ENDBRANCH   1   2
BRANCH   1  17
ATOM     14  C   LIG    1       29.412 -21.156   8.258  0.00  0.00    +0.028 C 
ATOM     15  C   LIG    1       28.558 -19.870   8.385  0.00  0.00    -0.000 C 
ATOM     16  C   LIG    1       27.134 -20.209   7.910  0.00  0.00    +0.026 C 
ATOM     17  C   LIG    1       27.185 -20.742   6.463  0.00  0.00    +0.090 C 
ATOM     18  N   LIG    1       28.591 -20.703   5.914  0.00  0.00    -0.296 NA
ATOM     19  C   LIG    1       29.175 -19.342   6.015  0.00  0.00    +0.085 C 
ATOM     20  C   LIG    1       29.082 -18.779   7.439  0.00  0.00    +0.019 C 
ATOM     21  C   LIG    1       29.434 -21.593   6.765  0.00  0.00    +0.092 C 
BRANCH  14  23
ATOM     22  C   LIG    1       31.586 -22.003   9.181  0.00  0.00    +0.004 C 
ATOM     23  C   LIG    1       30.794 -20.976   8.840  0.00  0.00    -0.029 C 
ENDBRANCH  14  23
ENDBRANCH   1  17
BRANCH   1  24
ATOM     24  O   LIG    1       26.628 -20.170   4.165  0.00  0.00    -0.386 OA
ATOM     25  H   LIG    1       25.823 -20.363   3.642  0.00  0.00    +0.210 HD
ENDBRANCH   1  24
TORSDOF 5
ENDMDL
MODEL 8
REMARK VINA RESULT:      -7.1      1.979      3.092
REMARK  Name = *****
REMARK                            x       y       z     vdW  Elec       q    Type
REMARK                         _______ _______ _______ _____ _____    ______ ____
ROOT
ATOM      1  C   LIG    1       27.731 -20.480   6.026  0.00  0.00    +0.162 C 
ENDROOT
BRANCH   1   2
ATOM      2  C   LIG    1       26.567 -19.954   5.192  0.00  0.00    -0.007 A 
ATOM      3  C   LIG    1       25.235 -20.451   5.307  0.00  0.00    +0.009 A 
ATOM      4  C   LIG    1       24.236 -19.854   4.487  0.00  0.00    +0.071 A 
ATOM      5  C   LIG    1       22.923 -20.286   4.598  0.00  0.00    +0.032 A 
ATOM      6  C   LIG    1       22.545 -21.287   5.491  0.00  0.00    +0.048 A 
ATOM      7  C   LIG    1       23.502 -21.885   6.300  0.00  0.00    +0.121 A 
ATOM      8  N   LIG    1       24.498 -18.879   3.610  0.00  0.00    -0.255 NA
ATOM      9  C   LIG    1       25.758 -18.416   3.533  0.00  0.00    +0.112 A 
ATOM     10  C   LIG    1       24.832 -21.483   6.186  0.00  0.00    +0.056 A 
ATOM     11  C   LIG    1       26.804 -18.902   4.295  0.00  0.00    +0.026 A 
BRANCH   7  12
ATOM     12  O   LIG    1       23.048 -22.864   7.139  0.00  0.00    -0.495 OA
ATOM     13  C   LIG    1       23.304 -24.201   6.717  0.00  0.00    +0.277 C 
ENDBRANCH   7  12
ENDBRANCH   1   2
BRANCH   1  17
ATOM     14  C   LIG    1       30.579 -18.050   8.339  0.00  0.00    +0.028 C 
ATOM     15  C   LIG    1       30.957 -18.910   7.107  0.00  0.00    -0.000 C 
ATOM     16  C   LIG    1       29.766 -18.877   6.134  0.00  0.00    +0.026 C 
ATOM     17  C   LIG    1       28.500 -19.396   6.848  0.00  0.00    +0.090 C 
ATOM     18  N   LIG    1       28.812 -19.852   8.253  0.00  0.00    -0.296 NA
ATOM     19  C   LIG    1       29.898 -20.862   8.266  0.00  0.00    +0.085 C 
ATOM     20  C   LIG    1       31.144 -20.380   7.513  0.00  0.00    +0.019 C 
ATOM     21  C   LIG    1       29.320 -18.670   9.011  0.00  0.00    +0.092 C 
BRANCH  14  23
ATOM     22  C   LIG    1       32.396 -16.735   9.462  0.00  0.00    +0.004 C 
ATOM     23  C   LIG    1       31.739 -17.891   9.294  0.00  0.00    -0.029 C 
ENDBRANCH  14  23
ENDBRANCH   1  17
BRANCH   1  24
ATOM     24  O   LIG    1       27.207 -21.453   6.942  0.00  0.00    -0.386 OA
ATOM     25  H   LIG    1       27.520 -22.312   6.592  0.00  0.00    +0.210 HD
ENDBRANCH   1  24
TORSDOF 5
ENDMDL
MODEL 9
REMARK VINA RESULT:      -7.0      1.656      2.619
REMARK  Name = *****
REMARK                            x       y       z     vdW  Elec       q    Type
REMARK                         _______ _______ _______ _____ _____    ______ ____
ROOT
ATOM      1  C   LIG    1       26.647 -22.434   6.538  0.00  0.00    +0.162 C 
ENDROOT
BRANCH   1   2
ATOM      2  C   LIG    1       25.207 -21.930   6.501  0.00  0.00    -0.007 A 
ATOM      3  C   LIG    1       24.764 -20.889   5.632  0.00  0.00    +0.009 A 
ATOM      4  C   LIG    1       23.387 -20.532   5.679  0.00  0.00    +0.071 A 
ATOM      5  C   LIG    1       22.913 -19.550   4.823  0.00  0.00    +0.032 A 
ATOM      6  C   LIG    1       23.742 -18.900   3.910  0.00  0.00    +0.048 A 
ATOM      7  C   LIG    1       25.088 -19.230   3.846  0.00  0.00    +0.121 A 
ATOM      8  N   LIG    1       22.512 -21.106   6.511  0.00  0.00    -0.255 NA
ATOM      9  C   LIG    1       22.950 -22.097   7.309  0.00  0.00    +0.112 A 
ATOM     10  C   LIG    1       25.590 -20.198   4.716  0.00  0.00    +0.056 A 
ATOM     11  C   LIG    1       24.258 -22.544   7.331  0.00  0.00    +0.026 A 
BRANCH   7  12
ATOM     12  O   LIG    1       25.831 -18.538   2.930  0.00  0.00    -0.495 OA
ATOM     13  C   LIG    1       26.044 -17.161   3.228  0.00  0.00    +0.277 C 
ENDBRANCH   7  12
ENDBRANCH   1   2
BRANCH   1  17
ATOM     14  C   LIG    1       29.346 -19.727   8.717  0.00  0.00    +0.028 C 
ATOM     15  C   LIG    1       28.153 -19.262   7.846  0.00  0.00    -0.000 C 
ATOM     16  C   LIG    1       27.040 -20.316   7.980  0.00  0.00    +0.026 C 
ATOM     17  C   LIG    1       27.581 -21.696   7.551  0.00  0.00    +0.090 C 
ATOM     18  N   LIG    1       29.004 -21.597   7.057  0.00  0.00    -0.296 NA
ATOM     19  C   LIG    1       29.130 -20.599   5.966  0.00  0.00    +0.085 C 
ATOM     20  C   LIG    1       28.548 -19.236   6.361  0.00  0.00    +0.019 C 
ATOM     21  C   LIG    1       29.843 -21.103   8.188  0.00  0.00    +0.092 C 
BRANCH  14  23
ATOM     22  C   LIG    1       31.666 -18.883   8.268  0.00  0.00    +0.004 C 
ATOM     23  C   LIG    1       30.440 -18.687   8.777  0.00  0.00    -0.029 C 
ENDBRANCH  14  23
ENDBRANCH   1  17
BRANCH   1  24
ATOM     24  O   LIG    1       26.612 -23.826   6.887  0.00  0.00    -0.386 OA
ATOM     25  H   LIG    1       27.152 -23.885   7.702  0.00  0.00    +0.210 HD
ENDBRANCH   1  24
TORSDOF 5
ENDMDL
