MODEL 1
REMARK VINA RESULT:      -1.5      0.000      0.000
REMARK  Name = *****
REMARK                            x       y       z     vdW  Elec       q    Type
REMARK                         _______ _______ _______ _____ _____    ______ ____
ROOT
ATOM      1  C   LIG    1       23.872 -13.013   2.878  0.00  0.00    +0.105 C 
ATOM      2  N   LIG    1       25.111 -13.199   3.616  0.00  0.00    -0.299 NA
ATOM      3  C   LIG    1       25.048 -14.193   4.700  0.00  0.00    +0.119 C 
ATOM      4  C   LIG    1       24.274 -15.476   4.425  0.00  0.00    -0.027 A 
ATOM      5  C   LIG    1       24.808 -16.620   3.789  0.00  0.00    -0.010 A 
ATOM      6  C   LIG    1       23.965 -17.741   3.598  0.00  0.00    +0.007 A 
ATOM      7  C   LIG    1       22.636 -17.742   4.015  0.00  0.00    +0.000 A 
ATOM      8  C   LIG    1       22.113 -16.621   4.640  0.00  0.00    +0.000 A 
ATOM      9  C   LIG    1       26.251 -16.775   3.300  0.00  0.00    +0.179 C 
ATOM     10  O   LIG    1       26.995 -15.567   3.196  0.00  0.00    -0.366 OA
ATOM     11  C   LIG    1       26.546 -14.708   2.151  0.00  0.00    +0.176 C 
ATOM     12  C   LIG    1       22.923 -15.505   4.843  0.00  0.00    +0.005 A 
ATOM     13  C   LIG    1       26.289 -13.323   2.748  0.00  0.00    +0.112 C 
ENDROOT
BRANCH   9  14
ATOM     14  C   LIG    1       27.084 -17.714   4.165  0.00  0.00    -0.015 A 
ATOM     15  C   LIG    1       26.588 -18.987   4.496  0.00  0.00    +0.006 A 
ATOM     16  C   LIG    1       27.343 -19.867   5.273  0.00  0.00    +0.000 A 
ATOM     17  C   LIG    1       28.606 -19.493   5.726  0.00  0.00    +0.000 A 
ATOM     18  C   LIG    1       29.119 -18.241   5.394  0.00  0.00    +0.000 A 
ATOM     19  C   LIG    1       28.367 -17.360   4.614  0.00  0.00    +0.006 A 
ENDBRANCH   9  14
TORSDOF 1
ENDMDL
MODEL 2
REMARK VINA RESULT:      -0.9      2.275      4.078
REMARK  Name = *****
REMARK                            x       y       z     vdW  Elec       q    Type
REMARK                         _______ _______ _______ _____ _____    ______ ____
ROOT
ATOM      1  C   LIG    1       28.148 -12.272   4.416  0.00  0.00    +0.105 C 
ATOM      2  N   LIG    1       27.911 -13.526   5.115  0.00  0.00    -0.299 NA
ATOM      3  C   LIG    1       26.538 -13.712   5.612  0.00  0.00    +0.119 C 
ATOM      4  C   LIG    1       25.401 -13.267   4.704  0.00  0.00    -0.027 A 
ATOM      5  C   LIG    1       24.833 -14.056   3.676  0.00  0.00    -0.010 A 
ATOM      6  C   LIG    1       23.780 -13.506   2.907  0.00  0.00    +0.007 A 
ATOM      7  C   LIG    1       23.297 -12.219   3.134  0.00  0.00    +0.000 A 
ATOM      8  C   LIG    1       23.852 -11.447   4.142  0.00  0.00    +0.000 A 
ATOM      9  C   LIG    1       25.241 -15.490   3.326  0.00  0.00    +0.179 C 
ATOM     10  O   LIG    1       26.486 -15.920   3.864  0.00  0.00    -0.366 OA
ATOM     11  C   LIG    1       27.615 -15.270   3.284  0.00  0.00    +0.176 C 
ATOM     12  C   LIG    1       24.888 -11.966   4.917  0.00  0.00    +0.005 A 
ATOM     13  C   LIG    1       28.466 -14.693   4.416  0.00  0.00    +0.112 C 
ENDROOT
BRANCH   9  14
ATOM     14  C   LIG    1       24.212 -16.531   3.750  0.00  0.00    -0.015 A 
ATOM     15  C   LIG    1       24.490 -17.900   3.586  0.00  0.00    +0.006 A 
ATOM     16  C   LIG    1       23.567 -18.868   3.984  0.00  0.00    +0.000 A 
ATOM     17  C   LIG    1       22.356 -18.486   4.556  0.00  0.00    +0.000 A 
ATOM     18  C   LIG    1       22.070 -17.135   4.740  0.00  0.00    +0.000 A 
ATOM     19  C   LIG    1       22.995 -16.164   4.345  0.00  0.00    +0.006 A 
ENDBRANCH   9  14
TORSDOF 1
ENDMDL
MODEL 3
REMARK VINA RESULT:      -0.4      2.690      5.473
REMARK  Name = *****
REMARK                            x       y       z     vdW  Elec       q    Type
REMARK                         _______ _______ _______ _____ _____    ______ ____
ROOT
ATOM      1  C   LIG    1       22.196 -21.572   5.146  0.00  0.00    +0.105 C 
ATOM      2  N   LIG    1       21.915 -20.153   5.310  0.00  0.00    -0.299 NA
ATOM      3  C   LIG    1       22.975 -19.382   5.979  0.00  0.00    +0.119 C 
ATOM      4  C   LIG    1       24.415 -19.705   5.605  0.00  0.00    -0.027 A 
ATOM      5  C   LIG    1       25.104 -19.155   4.500  0.00  0.00    -0.010 A 
ATOM      6  C   LIG    1       26.444 -19.553   4.274  0.00  0.00    +0.007 A 
ATOM      7  C   LIG    1       27.091 -20.466   5.104  0.00  0.00    +0.000 A 
ATOM      8  C   LIG    1       26.416 -21.003   6.188  0.00  0.00    +0.000 A 
ATOM      9  C   LIG    1       24.536 -18.127   3.517  0.00  0.00    +0.179 C 
ATOM     10  O   LIG    1       23.122 -17.972   3.545  0.00  0.00    -0.366 OA
ATOM     11  C   LIG    1       22.413 -19.104   3.044  0.00  0.00    +0.176 C 
ATOM     12  C   LIG    1       25.097 -20.626   6.435  0.00  0.00    +0.005 A 
ATOM     13  C   LIG    1       21.383 -19.524   4.094  0.00  0.00    +0.112 C 
ENDROOT
BRANCH   9  14
ATOM     14  C   LIG    1       25.120 -16.731   3.699  0.00  0.00    -0.015 A 
ATOM     15  C   LIG    1       26.462 -16.482   3.362  0.00  0.00    +0.006 A 
ATOM     16  C   LIG    1       27.010 -15.207   3.506  0.00  0.00    +0.000 A 
ATOM     17  C   LIG    1       26.225 -14.159   3.982  0.00  0.00    +0.000 A 
ATOM     18  C   LIG    1       24.890 -14.384   4.307  0.00  0.00    +0.000 A 
ATOM     19  C   LIG    1       24.338 -15.659   4.160  0.00  0.00    +0.006 A 
ENDBRANCH   9  14
TORSDOF 1
ENDMDL
MODEL 4
REMARK VINA RESULT:       0.2      0.874      1.533
REMARK  Name = *****
REMARK                            x       y       z     vdW  Elec       q    Type
REMARK                         _______ _______ _______ _____ _____    ______ ____
ROOT
ATOM      1  C   LIG    1       23.084 -14.226   2.944  0.00  0.00    +0.105 C 
ATOM      2  N   LIG    1       24.222 -14.188   3.850  0.00  0.00    -0.299 NA
ATOM      3  C   LIG    1       24.274 -15.284   4.831  0.00  0.00    +0.119 C 
ATOM      4  C   LIG    1       23.897 -16.676   4.343  0.00  0.00    -0.027 A 
ATOM      5  C   LIG    1       24.784 -17.578   3.713  0.00  0.00    -0.010 A 
ATOM      6  C   LIG    1       24.289 -18.840   3.307  0.00  0.00    +0.007 A 
ATOM      7  C   LIG    1       22.961 -19.210   3.512  0.00  0.00    +0.000 A 
ATOM      8  C   LIG    1       22.092 -18.328   4.132  0.00  0.00    +0.000 A 
ATOM      9  C   LIG    1       26.270 -17.323   3.442  0.00  0.00    +0.179 C 
ATOM     10  O   LIG    1       26.687 -15.967   3.548  0.00  0.00    -0.366 OA
ATOM     11  C   LIG    1       26.174 -15.129   2.514  0.00  0.00    +0.176 C 
ATOM     12  C   LIG    1       22.555 -17.079   4.543  0.00  0.00    +0.005 A 
ATOM     13  C   LIG    1       25.496 -13.924   3.168  0.00  0.00    +0.112 C 
ENDROOT
BRANCH   9  14
ATOM     14  C   LIG    1       27.195 -18.124   4.352  0.00  0.00    -0.015 A 
ATOM     15  C   LIG    1       28.425 -17.577   4.759  0.00  0.00    +0.006 A 
ATOM     16  C   LIG    1       29.277 -18.288   5.605  0.00  0.00    +0.000 A 
ATOM     17  C   LIG    1       28.913 -19.552   6.061  0.00  0.00    +0.000 A 
ATOM     18  C   LIG    1       27.692 -20.104   5.680  0.00  0.00    +0.000 A 
ATOM     19  C   LIG    1       26.836 -19.392   4.836  0.00  0.00    +0.006 A 
ENDBRANCH   9  14
TORSDOF 1
ENDMDL
MODEL 5
REMARK VINA RESULT:       0.5      2.435      5.365
REMARK  Name = *****
REMARK                            x       y       z     vdW  Elec       q    Type
REMARK                         _______ _______ _______ _____ _____    ______ ____
ROOT
ATOM      1  C   LIG    1       24.536 -21.572   4.604  0.00  0.00    +0.105 C 
ATOM      2  N   LIG    1       23.900 -20.267   4.701  0.00  0.00    -0.299 NA
ATOM      3  C   LIG    1       24.598 -19.296   5.559  0.00  0.00    +0.119 C 
ATOM      4  C   LIG    1       26.118 -19.257   5.475  0.00  0.00    -0.027 A 
ATOM      5  C   LIG    1       26.854 -18.517   4.521  0.00  0.00    -0.010 A 
ATOM      6  C   LIG    1       28.268 -18.580   4.563  0.00  0.00    +0.007 A 
ATOM      7  C   LIG    1       28.943 -19.349   5.509  0.00  0.00    +0.000 A 
ATOM      8  C   LIG    1       28.221 -20.073   6.445  0.00  0.00    +0.000 A 
ATOM      9  C   LIG    1       26.255 -17.612   3.440  0.00  0.00    +0.179 C 
ATOM     10  O   LIG    1       24.867 -17.794   3.191  0.00  0.00    -0.366 OA
ATOM     11  C   LIG    1       24.556 -19.040   2.569  0.00  0.00    +0.176 C 
ATOM     12  C   LIG    1       26.828 -20.025   6.428  0.00  0.00    +0.005 A 
ATOM     13  C   LIG    1       23.475 -19.731   3.401  0.00  0.00    +0.112 C 
ENDROOT
BRANCH   9  14
ATOM     14  C   LIG    1       26.445 -16.126   3.723  0.00  0.00    -0.015 A 
ATOM     15  C   LIG    1       25.339 -15.258   3.687  0.00  0.00    +0.006 A 
ATOM     16  C   LIG    1       25.491 -13.898   3.960  0.00  0.00    +0.000 A 
ATOM     17  C   LIG    1       26.745 -13.385   4.278  0.00  0.00    +0.000 A 
ATOM     18  C   LIG    1       27.849 -14.232   4.333  0.00  0.00    +0.000 A 
ATOM     19  C   LIG    1       27.699 -15.595   4.064  0.00  0.00    +0.006 A 
ENDBRANCH   9  14
TORSDOF 1
ENDMDL
