MODEL 1
REMARK VINA RESULT:      -1.5      0.000      0.000
REMARK  Name = *****
REMARK                            x       y       z     vdW  Elec       q    Type
REMARK                         _______ _______ _______ _____ _____    ______ ____
ROOT
ATOM      1  C   LIG    1       23.678 -21.314   7.062  0.00  0.00    +0.088 C 
ATOM      2  C   LIG    1       24.652 -21.012   5.988  0.00  0.00    +0.135 A 
ATOM      3  N   LIG    1       24.452 -20.156   4.916  0.00  0.00    -0.281 N 
ATOM      4  C   LIG    1       23.257 -19.565   4.430  0.00  0.00    +0.059 A 
ATOM      5  C   LIG    1       23.273 -18.317   3.775  0.00  0.00    +0.026 A 
ATOM      6  C   LIG    1       24.484 -17.437   3.706  0.00  0.00    +0.077 C 
ATOM      7  N   LIG    1       25.672 -17.825   3.389  0.00  0.00    -0.275 NA
ATOM      8  C   LIG    1       25.932 -19.233   3.114  0.00  0.00    +0.218 C 
ATOM      9  C   LIG    1       22.080 -17.805   3.233  0.00  0.00    +0.032 A 
ATOM     10  C   LIG    1       20.888 -18.513   3.365  0.00  0.00    +0.042 A 
ATOM     11 CL   LIG    1       19.436 -17.871   2.705  0.00  0.00    -0.084 Cl
ATOM     12  C   LIG    1       20.865 -19.736   4.026  0.00  0.00    +0.022 A 
ATOM     13  C   LIG    1       22.045 -20.264   4.555  0.00  0.00    +0.028 A 
ATOM     14  C   LIG    1       25.693 -20.048   4.324  0.00  0.00    +0.160 A 
ATOM     15  N   LIG    1       26.551 -20.836   4.936  0.00  0.00    -0.132 NA
ATOM     16  N   LIG    1       25.899 -21.438   5.976  0.00  0.00    -0.134 NA
ENDROOT
BRANCH   6  17
ATOM     17  C   LIG    1       24.320 -15.981   3.998  0.00  0.00    +0.019 A 
ATOM     18  C   LIG    1       25.318 -15.031   3.741  0.00  0.00    +0.050 A 
ATOM     19 CL   LIG    1       26.823 -15.425   2.993  0.00  0.00    -0.083 Cl
ATOM     20  C   LIG    1       25.090 -13.687   4.059  0.00  0.00    +0.021 A 
ATOM     21  C   LIG    1       23.873 -13.290   4.616  0.00  0.00    +0.002 A 
ATOM     22  C   LIG    1       22.871 -14.230   4.849  0.00  0.00    +0.001 A 
ATOM     23  C   LIG    1       23.090 -15.572   4.536  0.00  0.00    +0.011 A 
ENDBRANCH   6  17
TORSDOF 1
ENDMDL
