MODEL 1
REMARK VINA RESULT:      -7.1      0.000      0.000
REMARK  Name = *****
REMARK                            x       y       z     vdW  Elec       q    Type
REMARK                         _______ _______ _______ _____ _____    ______ ____
ROOT
ATOM      1  C   LIG    1       23.764 -22.876   6.716  0.00  0.00    -0.037 C 
ATOM      2  C   LIG    1       24.269 -21.641   6.975  0.00  0.00    -0.037 C 
ENDROOT
BRANCH   1   3
ATOM      3  C   LIG    1       24.638 -24.005   6.322  0.00  0.00    -0.021 A 
ATOM      4  C   LIG    1       25.429 -24.659   7.275  0.00  0.00    +0.012 A 
ATOM      5  C   LIG    1       26.236 -25.735   6.899  0.00  0.00    +0.046 A 
ATOM      6  C   LIG    1       26.255 -26.154   5.573  0.00  0.00    +0.117 A 
ATOM      7  C   LIG    1       25.484 -25.510   4.611  0.00  0.00    +0.046 A 
ATOM      8  C   LIG    1       24.674 -24.436   4.988  0.00  0.00    +0.012 A 
BRANCH   6   9
ATOM      9  O   LIG    1       27.049 -27.215   5.254  0.00  0.00    -0.507 OA
ATOM     10  H   LIG    1       27.969 -26.985   5.465  0.00  0.00    +0.292 HD
ENDBRANCH   6   9
ENDBRANCH   1   3
BRANCH   2  11
ATOM     11  C   LIG    1       25.721 -21.366   6.875  0.00  0.00    -0.021 A 
ATOM     12  C   LIG    1       26.590 -21.798   7.886  0.00  0.00    +0.012 A 
ATOM     13  C   LIG    1       27.955 -21.519   7.806  0.00  0.00    +0.046 A 
ATOM     14  C   LIG    1       28.449 -20.811   6.718  0.00  0.00    +0.117 A 
ATOM     15  C   LIG    1       27.603 -20.382   5.700  0.00  0.00    +0.046 A 
ATOM     16  C   LIG    1       26.237 -20.660   5.781  0.00  0.00    +0.012 A 
BRANCH  14  17
ATOM     17  O   LIG    1       29.787 -20.548   6.685  0.00  0.00    -0.507 OA
ATOM     18  H   LIG    1       30.199 -21.130   6.026  0.00  0.00    +0.292 HD
ENDBRANCH  14  17
ENDBRANCH   2  11
BRANCH   1  20
ATOM     19  C   LIG    1       21.500 -22.573   5.612  0.00  0.00    +0.009 C 
ATOM     20  C   LIG    1       22.291 -23.237   6.730  0.00  0.00    +0.033 C 
ENDBRANCH   1  20
BRANCH   2  21
ATOM     21  C   LIG    1       23.445 -20.416   7.326  0.00  0.00    +0.033 C 
ATOM     22  C   LIG    1       22.883 -19.699   6.104  0.00  0.00    +0.009 C 
ENDBRANCH   2  21
TORSDOF 6
ENDMDL
MODEL 2
REMARK VINA RESULT:      -7.0      0.057      4.706
REMARK  Name = *****
REMARK                            x       y       z     vdW  Elec       q    Type
REMARK                         _______ _______ _______ _____ _____    ______ ____
ROOT
ATOM      1  C   LIG    1       24.272 -21.621   6.867  0.00  0.00    -0.037 C 
ATOM      2  C   LIG    1       23.765 -22.856   6.608  0.00  0.00    -0.037 C 
ENDROOT
BRANCH   1   3
ATOM      3  C   LIG    1       25.729 -21.354   6.815  0.00  0.00    -0.021 A 
ATOM      4  C   LIG    1       26.285 -20.648   5.741  0.00  0.00    +0.012 A 
ATOM      5  C   LIG    1       27.655 -20.383   5.709  0.00  0.00    +0.046 A 
ATOM      6  C   LIG    1       28.469 -20.827   6.746  0.00  0.00    +0.117 A 
ATOM      7  C   LIG    1       27.936 -21.539   7.816  0.00  0.00    +0.046 A 
ATOM      8  C   LIG    1       26.564 -21.801   7.849  0.00  0.00    +0.012 A 
BRANCH   6   9
ATOM      9  O   LIG    1       29.799 -20.537   6.678  0.00  0.00    -0.507 OA
ATOM     10  H   LIG    1       30.267 -21.085   7.329  0.00  0.00    +0.292 HD
ENDBRANCH   6   9
ENDBRANCH   1   3
BRANCH   2  11
ATOM     11  C   LIG    1       24.647 -23.994   6.262  0.00  0.00    -0.021 A 
ATOM     12  C   LIG    1       24.713 -24.456   4.940  0.00  0.00    +0.012 A 
ATOM     13  C   LIG    1       25.524 -25.544   4.616  0.00  0.00    +0.046 A 
ATOM     14  C   LIG    1       26.269 -26.167   5.611  0.00  0.00    +0.117 A 
ATOM     15  C   LIG    1       26.223 -25.716   6.926  0.00  0.00    +0.046 A 
ATOM     16  C   LIG    1       25.409 -24.628   7.250  0.00  0.00    +0.012 A 
BRANCH  14  17
ATOM     17  O   LIG    1       27.038 -27.235   5.254  0.00  0.00    -0.507 OA
ATOM     18  H   LIG    1       27.894 -27.163   5.708  0.00  0.00    +0.292 HD
ENDBRANCH  14  17
ENDBRANCH   2  11
BRANCH   1  20
ATOM     19  C   LIG    1       22.864 -19.650   6.115  0.00  0.00    +0.009 C 
ATOM     20  C   LIG    1       23.458 -20.414   7.290  0.00  0.00    +0.033 C 
ENDBRANCH   1  20
BRANCH   2  21
ATOM     21  C   LIG    1       22.298 -23.233   6.696  0.00  0.00    +0.033 C 
ATOM     22  C   LIG    1       21.443 -22.580   5.617  0.00  0.00    +0.009 C 
ENDBRANCH   2  21
TORSDOF 6
ENDMDL
MODEL 3
REMARK VINA RESULT:      -6.1      2.526      4.221
REMARK  Name = *****
REMARK                            x       y       z     vdW  Elec       q    Type
REMARK                         _______ _______ _______ _____ _____    ______ ____
ROOT
ATOM      1  C   LIG    1       23.393 -22.032   6.393  0.00  0.00    -0.037 C 
ATOM      2  C   LIG    1       22.917 -21.336   5.327  0.00  0.00    -0.037 C 
ENDROOT
BRANCH   1   3
ATOM      3  C   LIG    1       24.735 -21.765   6.959  0.00  0.00    -0.021 A 
ATOM      4  C   LIG    1       25.824 -22.582   6.629  0.00  0.00    +0.012 A 
ATOM      5  C   LIG    1       27.089 -22.311   7.151  0.00  0.00    +0.046 A 
ATOM      6  C   LIG    1       27.266 -21.228   8.006  0.00  0.00    +0.117 A 
ATOM      7  C   LIG    1       26.195 -20.412   8.354  0.00  0.00    +0.046 A 
ATOM      8  C   LIG    1       24.929 -20.681   7.828  0.00  0.00    +0.012 A 
BRANCH   6   9
ATOM      9  O   LIG    1       28.522 -20.996   8.484  0.00  0.00    -0.507 OA
ATOM     10  H   LIG    1       29.150 -21.065   7.746  0.00  0.00    +0.292 HD
ENDBRANCH   6   9
ENDBRANCH   1   3
BRANCH   2  11
ATOM     11  C   LIG    1       23.722 -20.274   4.680  0.00  0.00    -0.021 A 
ATOM     12  C   LIG    1       24.989 -20.571   4.159  0.00  0.00    +0.012 A 
ATOM     13  C   LIG    1       25.760 -19.569   3.571  0.00  0.00    +0.046 A 
ATOM     14  C   LIG    1       25.265 -18.272   3.502  0.00  0.00    +0.117 A 
ATOM     15  C   LIG    1       24.006 -17.960   4.005  0.00  0.00    +0.046 A 
ATOM     16  C   LIG    1       23.235 -18.964   4.596  0.00  0.00    +0.012 A 
BRANCH  14  17
ATOM     17  O   LIG    1       26.057 -17.319   2.931  0.00  0.00    -0.507 OA
ATOM     18  H   LIG    1       26.975 -17.477   3.206  0.00  0.00    +0.292 HD
ENDBRANCH  14  17
ENDBRANCH   2  11
BRANCH   1  20
ATOM     19  C   LIG    1       23.161 -24.547   6.637  0.00  0.00    +0.009 C 
ATOM     20  C   LIG    1       22.671 -23.175   7.080  0.00  0.00    +0.033 C 
ENDBRANCH   1  20
BRANCH   2  21
ATOM     21  C   LIG    1       21.583 -21.582   4.647  0.00  0.00    +0.033 C 
ATOM     22  C   LIG    1       20.872 -20.299   4.235  0.00  0.00    +0.009 C 
ENDBRANCH   2  21
TORSDOF 6
ENDMDL
MODEL 4
REMARK VINA RESULT:      -6.1      1.519      2.084
REMARK  Name = *****
REMARK                            x       y       z     vdW  Elec       q    Type
REMARK                         _______ _______ _______ _____ _____    ______ ____
ROOT
ATOM      1  C   LIG    1       24.330 -21.607   5.062  0.00  0.00    -0.037 C 
ATOM      2  C   LIG    1       24.989 -20.446   5.315  0.00  0.00    -0.037 C 
ENDROOT
BRANCH   1   3
ATOM      3  C   LIG    1       24.812 -22.905   5.591  0.00  0.00    -0.021 A 
ATOM      4  C   LIG    1       25.166 -23.037   6.939  0.00  0.00    +0.012 A 
ATOM      5  C   LIG    1       25.601 -24.268   7.433  0.00  0.00    +0.046 A 
ATOM      6  C   LIG    1       25.685 -25.363   6.581  0.00  0.00    +0.117 A 
ATOM      7  C   LIG    1       25.348 -25.249   5.236  0.00  0.00    +0.046 A 
ATOM      8  C   LIG    1       24.910 -24.017   4.743  0.00  0.00    +0.012 A 
BRANCH   6   9
ATOM      9  O   LIG    1       26.105 -26.548   7.110  0.00  0.00    -0.507 OA
ATOM     10  H   LIG    1       26.985 -26.750   6.752  0.00  0.00    +0.292 HD
ENDBRANCH   6   9
ENDBRANCH   1   3
BRANCH   2  11
ATOM     11  C   LIG    1       26.224 -20.424   6.132  0.00  0.00    -0.021 A 
ATOM     12  C   LIG    1       27.480 -20.434   5.508  0.00  0.00    +0.012 A 
ATOM     13  C   LIG    1       28.645 -20.438   6.275  0.00  0.00    +0.046 A 
ATOM     14  C   LIG    1       28.556 -20.431   7.662  0.00  0.00    +0.117 A 
ATOM     15  C   LIG    1       27.319 -20.411   8.298  0.00  0.00    +0.046 A 
ATOM     16  C   LIG    1       26.152 -20.409   7.530  0.00  0.00    +0.012 A 
BRANCH  14  17
ATOM     17  O   LIG    1       29.719 -20.449   8.374  0.00  0.00    -0.507 OA
ATOM     18  H   LIG    1       29.572 -19.983   9.214  0.00  0.00    +0.292 HD
ENDBRANCH  14  17
ENDBRANCH   2  11
BRANCH   1  20
ATOM     19  C   LIG    1       21.820 -21.284   4.880  0.00  0.00    +0.009 C 
ATOM     20  C   LIG    1       23.098 -21.739   4.188  0.00  0.00    +0.033 C 
ENDBRANCH   1  20
BRANCH   2  21
ATOM     21  C   LIG    1       24.602 -19.084   4.768  0.00  0.00    +0.033 C 
ATOM     22  C   LIG    1       25.160 -18.815   3.375  0.00  0.00    +0.009 C 
ENDBRANCH   2  21
TORSDOF 6
ENDMDL
MODEL 5
REMARK VINA RESULT:      -6.1      1.774      5.009
REMARK  Name = *****
REMARK                            x       y       z     vdW  Elec       q    Type
REMARK                         _______ _______ _______ _____ _____    ______ ____
ROOT
ATOM      1  C   LIG    1       25.257 -19.945   5.046  0.00  0.00    -0.037 C 
ATOM      2  C   LIG    1       24.243 -20.792   4.727  0.00  0.00    -0.037 C 
ENDROOT
BRANCH   1   3
ATOM      3  C   LIG    1       26.338 -20.344   5.978  0.00  0.00    -0.021 A 
ATOM      4  C   LIG    1       26.036 -20.765   7.279  0.00  0.00    +0.012 A 
ATOM      5  C   LIG    1       27.059 -21.158   8.145  0.00  0.00    +0.046 A 
ATOM      6  C   LIG    1       28.380 -21.126   7.712  0.00  0.00    +0.117 A 
ATOM      7  C   LIG    1       28.699 -20.701   6.427  0.00  0.00    +0.046 A 
ATOM      8  C   LIG    1       27.676 -20.311   5.560  0.00  0.00    +0.012 A 
BRANCH   6   9
ATOM      9  O   LIG    1       29.345 -21.528   8.588  0.00  0.00    -0.507 OA
ATOM     10  H   LIG    1       28.926 -22.064   9.282  0.00  0.00    +0.292 HD
ENDBRANCH   6   9
ENDBRANCH   1   3
BRANCH   2  11
ATOM     11  C   LIG    1       24.170 -22.156   5.299  0.00  0.00    -0.021 A 
ATOM     12  C   LIG    1       25.024 -23.163   4.829  0.00  0.00    +0.012 A 
ATOM     13  C   LIG    1       24.940 -24.455   5.348  0.00  0.00    +0.046 A 
ATOM     14  C   LIG    1       24.006 -24.739   6.337  0.00  0.00    +0.117 A 
ATOM     15  C   LIG    1       23.157 -23.751   6.824  0.00  0.00    +0.046 A 
ATOM     16  C   LIG    1       23.240 -22.457   6.301  0.00  0.00    +0.012 A 
BRANCH  14  17
ATOM     17  O   LIG    1       23.949 -26.018   6.808  0.00  0.00    -0.507 OA
ATOM     18  H   LIG    1       24.843 -26.286   7.078  0.00  0.00    +0.292 HD
ENDBRANCH  14  17
ENDBRANCH   2  11
BRANCH   1  20
ATOM     19  C   LIG    1       25.735 -18.408   3.085  0.00  0.00    +0.009 C 
ATOM     20  C   LIG    1       25.383 -18.513   4.563  0.00  0.00    +0.033 C 
ENDBRANCH   1  20
BRANCH   2  21
ATOM     21  C   LIG    1       23.067 -20.448   3.832  0.00  0.00    +0.033 C 
ATOM     22  C   LIG    1       22.098 -19.456   4.464  0.00  0.00    +0.009 C 
ENDBRANCH   2  21
TORSDOF 6
ENDMDL
MODEL 6
REMARK VINA RESULT:      -6.0      2.390      4.493
REMARK  Name = *****
REMARK                            x       y       z     vdW  Elec       q    Type
REMARK                         _______ _______ _______ _____ _____    ______ ____
ROOT
ATOM      1  C   LIG    1       24.451 -22.848   6.118  0.00  0.00    -0.037 C 
ATOM      2  C   LIG    1       25.555 -23.060   6.884  0.00  0.00    -0.037 C 
ENDROOT
BRANCH   1   3
ATOM      3  C   LIG    1       24.151 -21.518   5.539  0.00  0.00    -0.021 A 
ATOM      4  C   LIG    1       24.905 -21.021   4.468  0.00  0.00    +0.012 A 
ATOM      5  C   LIG    1       24.603 -19.776   3.915  0.00  0.00    +0.046 A 
ATOM      6  C   LIG    1       23.554 -19.026   4.434  0.00  0.00    +0.117 A 
ATOM      7  C   LIG    1       22.801 -19.498   5.504  0.00  0.00    +0.046 A 
ATOM      8  C   LIG    1       23.101 -20.746   6.055  0.00  0.00    +0.012 A 
BRANCH   6   9
ATOM      9  O   LIG    1       23.289 -17.820   3.856  0.00  0.00    -0.507 OA
ATOM     10  H   LIG    1       22.837 -17.259   4.508  0.00  0.00    +0.292 HD
ENDBRANCH   6   9
ENDBRANCH   1   3
BRANCH   2  11
ATOM     11  C   LIG    1       26.510 -21.967   7.175  0.00  0.00    -0.021 A 
ATOM     12  C   LIG    1       27.731 -21.897   6.490  0.00  0.00    +0.012 A 
ATOM     13  C   LIG    1       28.644 -20.883   6.780  0.00  0.00    +0.046 A 
ATOM     14  C   LIG    1       28.336 -19.939   7.753  0.00  0.00    +0.117 A 
ATOM     15  C   LIG    1       27.126 -19.986   8.437  0.00  0.00    +0.046 A 
ATOM     16  C   LIG    1       26.213 -21.003   8.147  0.00  0.00    +0.012 A 
BRANCH  14  17
ATOM     17  O   LIG    1       29.262 -18.973   8.015  0.00  0.00    -0.507 OA
ATOM     18  H   LIG    1       30.002 -19.079   7.394  0.00  0.00    +0.292 HD
ENDBRANCH  14  17
ENDBRANCH   2  11
BRANCH   1  20
ATOM     19  C   LIG    1       22.225 -23.855   6.803  0.00  0.00    +0.009 C 
ATOM     20  C   LIG    1       23.386 -23.885   5.818  0.00  0.00    +0.033 C 
ENDBRANCH   1  20
BRANCH   2  21
ATOM     21  C   LIG    1       25.908 -24.369   7.564  0.00  0.00    +0.033 C 
ATOM     22  C   LIG    1       26.121 -25.518   6.585  0.00  0.00    +0.009 C 
ENDBRANCH   2  21
TORSDOF 6
ENDMDL
MODEL 7
REMARK VINA RESULT:      -6.0      2.386      4.939
REMARK  Name = *****
REMARK                            x       y       z     vdW  Elec       q    Type
REMARK                         _______ _______ _______ _____ _____    ______ ____
ROOT
ATOM      1  C   LIG    1       25.509 -23.009   6.969  0.00  0.00    -0.037 C 
ATOM      2  C   LIG    1       24.400 -22.793   6.214  0.00  0.00    -0.037 C 
ENDROOT
BRANCH   1   3
ATOM      3  C   LIG    1       26.501 -21.936   7.217  0.00  0.00    -0.021 A 
ATOM      4  C   LIG    1       26.246 -20.937   8.165  0.00  0.00    +0.012 A 
ATOM      5  C   LIG    1       27.193 -19.941   8.407  0.00  0.00    +0.046 A 
ATOM      6  C   LIG    1       28.391 -19.941   7.701  0.00  0.00    +0.117 A 
ATOM      7  C   LIG    1       28.658 -20.920   6.749  0.00  0.00    +0.046 A 
ATOM      8  C   LIG    1       27.711 -21.918   6.509  0.00  0.00    +0.012 A 
BRANCH   6   9
ATOM      9  O   LIG    1       29.291 -18.955   7.978  0.00  0.00    -0.507 OA
ATOM     10  H   LIG    1       30.164 -19.237   7.659  0.00  0.00    +0.292 HD
ENDBRANCH   6   9
ENDBRANCH   1   3
BRANCH   2  11
ATOM     11  C   LIG    1       24.130 -21.471   5.602  0.00  0.00    -0.021 A 
ATOM     12  C   LIG    1       23.080 -20.676   6.080  0.00  0.00    +0.012 A 
ATOM     13  C   LIG    1       22.808 -19.441   5.490  0.00  0.00    +0.046 A 
ATOM     14  C   LIG    1       23.585 -19.003   4.425  0.00  0.00    +0.117 A 
ATOM     15  C   LIG    1       24.638 -19.774   3.943  0.00  0.00    +0.046 A 
ATOM     16  C   LIG    1       24.908 -21.011   4.533  0.00  0.00    +0.012 A 
BRANCH  14  17
ATOM     17  O   LIG    1       23.277 -17.796   3.868  0.00  0.00    -0.507 OA
ATOM     18  H   LIG    1       22.426 -17.499   4.231  0.00  0.00    +0.292 HD
ENDBRANCH  14  17
ENDBRANCH   2  11
BRANCH   1  20
ATOM     19  C   LIG    1       26.093 -25.442   6.549  0.00  0.00    +0.009 C 
ATOM     20  C   LIG    1       25.902 -24.340   7.581  0.00  0.00    +0.033 C 
ENDBRANCH   1  20
BRANCH   2  21
ATOM     21  C   LIG    1       23.366 -23.845   5.859  0.00  0.00    +0.033 C 
ATOM     22  C   LIG    1       22.163 -23.846   6.795  0.00  0.00    +0.009 C 
ENDBRANCH   2  21
TORSDOF 6
ENDMDL
MODEL 8
REMARK VINA RESULT:      -5.6      9.064     11.499
REMARK  Name = *****
REMARK                            x       y       z     vdW  Elec       q    Type
REMARK                         _______ _______ _______ _____ _____    ______ ____
ROOT
ATOM      1  C   LIG    1       22.723 -27.279  13.348  0.00  0.00    -0.037 C 
ATOM      2  C   LIG    1       23.059 -28.481  12.811  0.00  0.00    -0.037 C 
ENDROOT
BRANCH   1   3
ATOM      3  C   LIG    1       21.337 -26.980  13.778  0.00  0.00    -0.021 A 
ATOM      4  C   LIG    1       20.419 -26.418  12.883  0.00  0.00    +0.012 A 
ATOM      5  C   LIG    1       19.110 -26.158  13.291  0.00  0.00    +0.046 A 
ATOM      6  C   LIG    1       18.720 -26.455  14.592  0.00  0.00    +0.117 A 
ATOM      7  C   LIG    1       19.621 -27.004  15.499  0.00  0.00    +0.046 A 
ATOM      8  C   LIG    1       20.930 -27.267  15.089  0.00  0.00    +0.012 A 
BRANCH   6   9
ATOM      9  O   LIG    1       17.429 -26.194  14.944  0.00  0.00    -0.507 OA
ATOM     10  H   LIG    1       17.173 -25.339  14.561  0.00  0.00    +0.292 HD
ENDBRANCH   6   9
ENDBRANCH   1   3
BRANCH   2  11
ATOM     11  C   LIG    1       22.052 -29.552  12.629  0.00  0.00    -0.021 A 
ATOM     12  C   LIG    1       21.780 -30.447  13.673  0.00  0.00    +0.012 A 
ATOM     13  C   LIG    1       20.850 -31.472  13.496  0.00  0.00    +0.046 A 
ATOM     14  C   LIG    1       20.191 -31.600  12.280  0.00  0.00    +0.117 A 
ATOM     15  C   LIG    1       20.440 -30.715  11.235  0.00  0.00    +0.046 A 
ATOM     16  C   LIG    1       21.373 -29.690  11.412  0.00  0.00    +0.012 A 
BRANCH  14  17
ATOM     17  O   LIG    1       19.299 -32.623  12.145  0.00  0.00    -0.507 OA
ATOM     18  H   LIG    1       19.756 -33.457  12.342  0.00  0.00    +0.292 HD
ENDBRANCH  14  17
ENDBRANCH   2  11
BRANCH   1  20
ATOM     19  C   LIG    1       24.323 -26.051  14.887  0.00  0.00    +0.009 C 
ATOM     20  C   LIG    1       23.667 -26.103  13.514  0.00  0.00    +0.033 C 
ENDBRANCH   1  20
BRANCH   2  21
ATOM     21  C   LIG    1       24.435 -28.852  12.289  0.00  0.00    +0.033 C 
ATOM     22  C   LIG    1       25.352 -29.422  13.364  0.00  0.00    +0.009 C 
ENDBRANCH   2  21
TORSDOF 6
ENDMDL
MODEL 9
REMARK VINA RESULT:      -5.6      9.038     10.682
REMARK  Name = *****
REMARK                            x       y       z     vdW  Elec       q    Type
REMARK                         _______ _______ _______ _____ _____    ______ ____
ROOT
ATOM      1  C   LIG    1       23.293 -28.336  12.875  0.00  0.00    -0.037 C 
ATOM      2  C   LIG    1       22.911 -27.129  13.371  0.00  0.00    -0.037 C 
ENDROOT
BRANCH   1   3
ATOM      3  C   LIG    1       22.333 -29.454  12.726  0.00  0.00    -0.021 A 
ATOM      4  C   LIG    1       22.053 -30.300  13.807  0.00  0.00    +0.012 A 
ATOM      5  C   LIG    1       21.132 -31.340  13.664  0.00  0.00    +0.046 A 
ATOM      6  C   LIG    1       20.496 -31.537  12.443  0.00  0.00    +0.117 A 
ATOM      7  C   LIG    1       20.770 -30.713  11.356  0.00  0.00    +0.046 A 
ATOM      8  C   LIG    1       21.689 -29.671  11.500  0.00  0.00    +0.012 A 
BRANCH   6   9
ATOM      9  O   LIG    1       19.598 -32.558  12.353  0.00  0.00    -0.507 OA
ATOM     10  H   LIG    1       19.067 -32.573  13.167  0.00  0.00    +0.292 HD
ENDBRANCH   6   9
ENDBRANCH   1   3
BRANCH   2  11
ATOM     11  C   LIG    1       21.512 -26.878  13.789  0.00  0.00    -0.021 A 
ATOM     12  C   LIG    1       21.116 -27.134  15.109  0.00  0.00    +0.012 A 
ATOM     13  C   LIG    1       19.794 -26.921  15.500  0.00  0.00    +0.046 A 
ATOM     14  C   LIG    1       18.870 -26.452  14.574  0.00  0.00    +0.117 A 
ATOM     15  C   LIG    1       19.247 -26.183  13.262  0.00  0.00    +0.046 A 
ATOM     16  C   LIG    1       20.571 -26.398  12.871  0.00  0.00    +0.012 A 
BRANCH  14  17
ATOM     17  O   LIG    1       17.585 -26.270  14.993  0.00  0.00    -0.507 OA
ATOM     18  H   LIG    1       17.478 -26.709  15.853  0.00  0.00    +0.292 HD
ENDBRANCH  14  17
ENDBRANCH   2  11
BRANCH   1  20
ATOM     19  C   LIG    1       25.525 -29.273  13.636  0.00  0.00    +0.009 C 
ATOM     20  C   LIG    1       24.710 -28.707  12.481  0.00  0.00    +0.033 C 
ENDBRANCH   1  20
BRANCH   2  21
ATOM     21  C   LIG    1       23.835 -25.951  13.612  0.00  0.00    +0.033 C 
ATOM     22  C   LIG    1       24.449 -25.943  15.007  0.00  0.00    +0.009 C 
ENDBRANCH   2  21
TORSDOF 6
ENDMDL
