MODEL 1
REMARK VINA RESULT:      -5.6      0.000      0.000
REMARK  Name = *****
REMARK                            x       y       z     vdW  Elec       q    Type
REMARK                         _______ _______ _______ _____ _____    ______ ____
ROOT
ATOM      1  C   LIG    1       27.052 -14.466   4.039  0.00  0.00    +0.151 A 
ATOM      2  C   LIG    1       25.747 -14.671   3.578  0.00  0.00    +0.159 A 
ATOM      3  C   LIG    1       25.274 -15.969   3.298  0.00  0.00    +0.048 A 
ATOM      4  C   LIG    1       26.103 -17.089   3.485  0.00  0.00    +0.066 A 
ATOM      5  C   LIG    1       27.393 -16.878   3.979  0.00  0.00    +0.131 A 
ATOM      6  C   LIG    1       27.869 -15.585   4.228  0.00  0.00    +0.093 A 
ENDROOT
BRANCH   2   7
ATOM      7  S   LIG    1       24.643 -13.301   3.340  0.00  0.00    +0.113 S 
ATOM      8  O   LIG    1       23.297 -13.807   3.239  0.00  0.00    -0.142 OA
ATOM      9  O   LIG    1       25.204 -12.451   2.301  0.00  0.00    -0.142 OA
BRANCH   7  10
ATOM     10  O   LIG    1       24.720 -12.440   4.704  0.00  0.00    -0.250 OA
ATOM     11  H   LIG    1       25.655 -12.183   4.835  0.00  0.00    +0.245 HD
ENDBRANCH   7  10
ENDBRANCH   2   7
BRANCH   1  13
ATOM     12  C   LIG    1       28.794 -12.837   3.933  0.00  0.00    +0.277 C 
ATOM     13  O   LIG    1       27.458 -13.181   4.295  0.00  0.00    -0.493 OA
ENDBRANCH   1  13
BRANCH   4  14
ATOM     14  C   LIG    1       25.536 -18.439   3.179  0.00  0.00    +0.197 C 
ATOM     15  O   LIG    1       25.926 -19.017   2.166  0.00  0.00    -0.286 OA
BRANCH  14  16
ATOM     16  C   LIG    1       24.555 -19.140   4.061  0.00  0.00    +0.022 A 
ATOM     17  C   LIG    1       25.010 -20.139   4.933  0.00  0.00    +0.012 A 
ATOM     18  C   LIG    1       24.117 -20.796   5.788  0.00  0.00    +0.001 A 
ATOM     19  C   LIG    1       22.761 -20.470   5.764  0.00  0.00    +0.000 A 
ATOM     20  C   LIG    1       22.302 -19.471   4.909  0.00  0.00    +0.001 A 
ATOM     21  C   LIG    1       23.199 -18.786   4.085  0.00  0.00    +0.012 A 
ENDBRANCH  14  16
ENDBRANCH   4  14
BRANCH   5  22
ATOM     22  O   LIG    1       28.214 -17.930   4.269  0.00  0.00    -0.506 OA
ATOM     23  H   LIG    1       27.749 -18.576   4.828  0.00  0.00    +0.292 HD
ENDBRANCH   5  22
TORSDOF 6
ENDMDL
MODEL 2
REMARK VINA RESULT:      -4.8      1.852      3.113
REMARK  Name = *****
REMARK                            x       y       z     vdW  Elec       q    Type
REMARK                         _______ _______ _______ _____ _____    ______ ____
ROOT
ATOM      1  C   LIG    1       24.281 -14.549   4.108  0.00  0.00    +0.151 A 
ATOM      2  C   LIG    1       25.383 -15.305   3.690  0.00  0.00    +0.159 A 
ATOM      3  C   LIG    1       25.297 -16.707   3.578  0.00  0.00    +0.048 A 
ATOM      4  C   LIG    1       24.098 -17.377   3.876  0.00  0.00    +0.066 A 
ATOM      5  C   LIG    1       22.993 -16.612   4.257  0.00  0.00    +0.131 A 
ATOM      6  C   LIG    1       23.090 -15.222   4.396  0.00  0.00    +0.093 A 
ENDROOT
BRANCH   2   7
ATOM      7  S   LIG    1       26.920 -14.517   3.280  0.00  0.00    +0.113 S 
ATOM      8  O   LIG    1       26.839 -14.031   1.925  0.00  0.00    -0.142 OA
ATOM      9  O   LIG    1       27.999 -15.399   3.697  0.00  0.00    -0.142 OA
BRANCH   7  10
ATOM     10  O   LIG    1       27.013 -13.221   4.239  0.00  0.00    -0.250 OA
ATOM     11  H   LIG    1       26.595 -12.475   3.763  0.00  0.00    +0.245 HD
ENDBRANCH   7  10
ENDBRANCH   2   7
BRANCH   1  13
ATOM     12  C   LIG    1       23.924 -12.409   3.112  0.00  0.00    +0.277 C 
ATOM     13  O   LIG    1       24.422 -13.188   4.198  0.00  0.00    -0.493 OA
ENDBRANCH   1  13
BRANCH   4  14
ATOM     14  C   LIG    1       24.072 -18.866   3.726  0.00  0.00    +0.197 C 
ATOM     15  O   LIG    1       24.022 -19.333   2.589  0.00  0.00    -0.286 OA
BRANCH  14  16
ATOM     16  C   LIG    1       24.146 -19.812   4.878  0.00  0.00    +0.022 A 
ATOM     17  C   LIG    1       25.398 -20.290   5.292  0.00  0.00    +0.012 A 
ATOM     18  C   LIG    1       25.500 -21.160   6.385  0.00  0.00    +0.001 A 
ATOM     19  C   LIG    1       24.350 -21.571   7.059  0.00  0.00    +0.000 A 
ATOM     20  C   LIG    1       23.104 -21.092   6.662  0.00  0.00    +0.001 A 
ATOM     21  C   LIG    1       23.005 -20.192   5.597  0.00  0.00    +0.012 A 
ENDBRANCH  14  16
ENDBRANCH   4  14
BRANCH   5  22
ATOM     22  O   LIG    1       21.776 -17.194   4.471  0.00  0.00    -0.506 OA
ATOM     23  H   LIG    1       21.363 -17.430   3.623  0.00  0.00    +0.292 HD
ENDBRANCH   5  22
TORSDOF 6
ENDMDL
MODEL 3
REMARK VINA RESULT:      -3.3      1.948      3.284
REMARK  Name = *****
REMARK                            x       y       z     vdW  Elec       q    Type
REMARK                         _______ _______ _______ _____ _____    ______ ____
ROOT
ATOM      1  C   LIG    1       24.115 -14.549   3.908  0.00  0.00    +0.151 A 
ATOM      2  C   LIG    1       25.372 -14.933   3.425  0.00  0.00    +0.159 A 
ATOM      3  C   LIG    1       25.726 -16.294   3.331  0.00  0.00    +0.048 A 
ATOM      4  C   LIG    1       24.818 -17.297   3.713  0.00  0.00    +0.066 A 
ATOM      5  C   LIG    1       23.554 -16.906   4.160  0.00  0.00    +0.131 A 
ATOM      6  C   LIG    1       23.216 -15.553   4.280  0.00  0.00    +0.093 A 
ENDROOT
BRANCH   2   7
ATOM      7  S   LIG    1       26.555 -13.715   2.908  0.00  0.00    +0.113 S 
ATOM      8  O   LIG    1       27.403 -13.393   4.029  0.00  0.00    -0.142 OA
ATOM      9  O   LIG    1       25.839 -12.675   2.187  0.00  0.00    -0.142 OA
BRANCH   7  10
ATOM     10  O   LIG    1       27.485 -14.451   1.812  0.00  0.00    -0.250 OA
ATOM     11  H   LIG    1       27.918 -13.753   1.280  0.00  0.00    +0.245 HD
ENDBRANCH   7  10
ENDBRANCH   2   7
BRANCH   1  13
ATOM     12  C   LIG    1       24.159 -12.535   5.189  0.00  0.00    +0.277 C 
ATOM     13  O   LIG    1       23.825 -13.211   3.978  0.00  0.00    -0.493 OA
ENDBRANCH   1  13
BRANCH   4  14
ATOM     14  C   LIG    1       25.253 -18.723   3.577  0.00  0.00    +0.197 C 
ATOM     15  O   LIG    1       25.222 -19.235   2.459  0.00  0.00    -0.286 OA
BRANCH  14  16
ATOM     16  C   LIG    1       25.763 -19.541   4.717  0.00  0.00    +0.022 A 
ATOM     17  C   LIG    1       24.891 -20.426   5.368  0.00  0.00    +0.012 A 
ATOM     18  C   LIG    1       25.348 -21.224   6.424  0.00  0.00    +0.001 A 
ATOM     19  C   LIG    1       26.674 -21.129   6.848  0.00  0.00    +0.000 A 
ATOM     20  C   LIG    1       27.549 -20.261   6.199  0.00  0.00    +0.001 A 
ATOM     21  C   LIG    1       27.105 -19.495   5.118  0.00  0.00    +0.012 A 
ENDBRANCH  14  16
ENDBRANCH   4  14
BRANCH   5  22
ATOM     22  O   LIG    1       22.597 -17.835   4.458  0.00  0.00    -0.506 OA
ATOM     23  H   LIG    1       21.801 -17.398   4.805  0.00  0.00    +0.292 HD
ENDBRANCH   5  22
TORSDOF 6
ENDMDL
MODEL 4
REMARK VINA RESULT:      -3.0      2.864      5.880
REMARK  Name = *****
REMARK                            x       y       z     vdW  Elec       q    Type
REMARK                         _______ _______ _______ _____ _____    ______ ____
ROOT
ATOM      1  C   LIG    1       26.336 -19.850   4.749  0.00  0.00    +0.151 A 
ATOM      2  C   LIG    1       25.379 -19.048   4.116  0.00  0.00    +0.159 A 
ATOM      3  C   LIG    1       25.657 -17.701   3.803  0.00  0.00    +0.048 A 
ATOM      4  C   LIG    1       26.906 -17.137   4.114  0.00  0.00    +0.066 A 
ATOM      5  C   LIG    1       27.867 -17.955   4.713  0.00  0.00    +0.131 A 
ATOM      6  C   LIG    1       27.578 -19.283   5.049  0.00  0.00    +0.093 A 
ENDROOT
BRANCH   2   7
ATOM      7  S   LIG    1       23.790 -19.706   3.679  0.00  0.00    +0.113 S 
ATOM      8  O   LIG    1       23.971 -20.701   2.652  0.00  0.00    -0.142 OA
ATOM      9  O   LIG    1       22.881 -18.587   3.487  0.00  0.00    -0.142 OA
BRANCH   7  10
ATOM     10  O   LIG    1       23.264 -20.480   4.995  0.00  0.00    -0.250 OA
ATOM     11  H   LIG    1       22.339 -20.200   5.149  0.00  0.00    +0.245 HD
ENDBRANCH   7  10
ENDBRANCH   2   7
BRANCH   1  13
ATOM     12  C   LIG    1       26.119 -21.572   6.388  0.00  0.00    +0.277 C 
ATOM     13  O   LIG    1       26.011 -21.152   5.029  0.00  0.00    -0.493 OA
ENDBRANCH   1  13
BRANCH   4  14
ATOM     14  C   LIG    1       27.139 -15.706   3.744  0.00  0.00    +0.197 C 
ATOM     15  O   LIG    1       28.301 -15.304   3.687  0.00  0.00    -0.286 OA
BRANCH  14  16
ATOM     16  C   LIG    1       26.042 -14.754   3.401  0.00  0.00    +0.022 A 
ATOM     17  C   LIG    1       24.925 -14.664   4.245  0.00  0.00    +0.012 A 
ATOM     18  C   LIG    1       23.892 -13.762   3.961  0.00  0.00    +0.001 A 
ATOM     19  C   LIG    1       23.961 -12.959   2.822  0.00  0.00    +0.000 A 
ATOM     20  C   LIG    1       25.072 -13.033   1.985  0.00  0.00    +0.001 A 
ATOM     21  C   LIG    1       26.122 -13.904   2.290  0.00  0.00    +0.012 A 
ENDBRANCH  14  16
ENDBRANCH   4  14
BRANCH   5  22
ATOM     22  O   LIG    1       29.130 -17.493   4.956  0.00  0.00    -0.506 OA
ATOM     23  H   LIG    1       29.092 -16.635   5.411  0.00  0.00    +0.292 HD
ENDBRANCH   5  22
TORSDOF 6
ENDMDL
MODEL 5
REMARK VINA RESULT:      -3.0      0.780      1.616
REMARK  Name = *****
REMARK                            x       y       z     vdW  Elec       q    Type
REMARK                         _______ _______ _______ _____ _____    ______ ____
ROOT
ATOM      1  C   LIG    1       26.934 -14.799   4.176  0.00  0.00    +0.151 A 
ATOM      2  C   LIG    1       25.603 -14.984   3.784  0.00  0.00    +0.159 A 
ATOM      3  C   LIG    1       25.086 -16.277   3.566  0.00  0.00    +0.048 A 
ATOM      4  C   LIG    1       25.897 -17.411   3.746  0.00  0.00    +0.066 A 
ATOM      5  C   LIG    1       27.214 -17.219   4.171  0.00  0.00    +0.131 A 
ATOM      6  C   LIG    1       27.732 -15.932   4.358  0.00  0.00    +0.093 A 
ENDROOT
BRANCH   2   7
ATOM      7  S   LIG    1       24.522 -13.594   3.560  0.00  0.00    +0.113 S 
ATOM      8  O   LIG    1       24.519 -12.814   4.773  0.00  0.00    -0.142 OA
ATOM      9  O   LIG    1       23.282 -14.082   2.979  0.00  0.00    -0.142 OA
BRANCH   7  10
ATOM     10  O   LIG    1       25.215 -12.685   2.419  0.00  0.00    -0.250 OA
ATOM     11  H   LIG    1       26.181 -12.703   2.578  0.00  0.00    +0.245 HD
ENDBRANCH   7  10
ENDBRANCH   2   7
BRANCH   1  13
ATOM     12  C   LIG    1       27.370 -13.024   5.712  0.00  0.00    +0.277 C 
ATOM     13  O   LIG    1       27.383 -13.518   4.374  0.00  0.00    -0.493 OA
ENDBRANCH   1  13
BRANCH   4  14
ATOM     14  C   LIG    1       25.283 -18.755   3.508  0.00  0.00    +0.197 C 
ATOM     15  O   LIG    1       25.253 -19.183   2.355  0.00  0.00    -0.286 OA
BRANCH  14  16
ATOM     16  C   LIG    1       24.746 -19.621   4.600  0.00  0.00    +0.022 A 
ATOM     17  C   LIG    1       23.359 -19.794   4.716  0.00  0.00    +0.012 A 
ATOM     18  C   LIG    1       22.828 -20.620   5.714  0.00  0.00    +0.001 A 
ATOM     19  C   LIG    1       23.679 -21.262   6.614  0.00  0.00    +0.000 A 
ATOM     20  C   LIG    1       25.058 -21.104   6.499  0.00  0.00    +0.001 A 
ATOM     21  C   LIG    1       25.591 -20.313   5.477  0.00  0.00    +0.012 A 
ENDBRANCH  14  16
ENDBRANCH   4  14
BRANCH   5  22
ATOM     22  O   LIG    1       28.023 -18.284   4.452  0.00  0.00    -0.506 OA
ATOM     23  H   LIG    1       28.376 -18.208   5.354  0.00  0.00    +0.292 HD
ENDBRANCH   5  22
TORSDOF 6
ENDMDL
MODEL 6
REMARK VINA RESULT:      -2.8      2.397      6.672
REMARK  Name = *****
REMARK                            x       y       z     vdW  Elec       q    Type
REMARK                         _______ _______ _______ _____ _____    ______ ____
ROOT
ATOM      1  C   LIG    1       22.886 -18.906   4.632  0.00  0.00    +0.151 A 
ATOM      2  C   LIG    1       24.058 -18.591   3.935  0.00  0.00    +0.159 A 
ATOM      3  C   LIG    1       24.419 -17.250   3.695  0.00  0.00    +0.048 A 
ATOM      4  C   LIG    1       23.612 -16.197   4.160  0.00  0.00    +0.066 A 
ATOM      5  C   LIG    1       22.463 -16.520   4.887  0.00  0.00    +0.131 A 
ATOM      6  C   LIG    1       22.092 -17.853   5.097  0.00  0.00    +0.093 A 
ENDROOT
BRANCH   2   7
ATOM      7  S   LIG    1       25.131 -19.874   3.338  0.00  0.00    +0.113 S 
ATOM      8  O   LIG    1       25.853 -20.426   4.457  0.00  0.00    -0.142 OA
ATOM      9  O   LIG    1       25.833 -19.362   2.172  0.00  0.00    -0.142 OA
BRANCH   7  10
ATOM     10  O   LIG    1       24.154 -21.037   2.790  0.00  0.00    -0.250 OA
ATOM     11  H   LIG    1       24.721 -21.762   2.458  0.00  0.00    +0.245 HD
ENDBRANCH   7  10
ENDBRANCH   2   7
BRANCH   1  13
ATOM     12  C   LIG    1       22.871 -20.769   6.125  0.00  0.00    +0.277 C 
ATOM     13  O   LIG    1       22.585 -20.228   4.836  0.00  0.00    -0.493 OA
ENDBRANCH   1  13
BRANCH   4  14
ATOM     14  C   LIG    1       24.059 -14.797   3.882  0.00  0.00    +0.197 C 
ATOM     15  O   LIG    1       23.201 -13.959   3.605  0.00  0.00    -0.286 OA
BRANCH  14  16
ATOM     16  C   LIG    1       25.482 -14.353   3.964  0.00  0.00    +0.022 A 
ATOM     17  C   LIG    1       26.295 -14.445   2.824  0.00  0.00    +0.012 A 
ATOM     18  C   LIG    1       27.626 -14.014   2.865  0.00  0.00    +0.001 A 
ATOM     19  C   LIG    1       28.159 -13.506   4.050  0.00  0.00    +0.000 A 
ATOM     20  C   LIG    1       27.356 -13.401   5.183  0.00  0.00    +0.001 A 
ATOM     21  C   LIG    1       26.015 -13.792   5.132  0.00  0.00    +0.012 A 
ENDBRANCH  14  16
ENDBRANCH   4  14
BRANCH   5  22
ATOM     22  O   LIG    1       21.687 -15.543   5.444  0.00  0.00    -0.506 OA
ATOM     23  H   LIG    1       21.958 -15.383   6.363  0.00  0.00    +0.292 HD
ENDBRANCH   5  22
TORSDOF 6
ENDMDL
