MODEL 1
REMARK VINA RESULT:      -8.8      0.000      0.000
REMARK  Name = *****
REMARK                            x       y       z     vdW  Elec       q    Type
REMARK                         _______ _______ _______ _____ _____    ______ ____
ROOT
ATOM      1 CL   LIG    1       23.190 -19.597   3.254  0.00  0.00    -0.084 Cl
ATOM      2  C   LIG    1       24.633 -19.759   4.174  0.00  0.00    +0.042 A 
ATOM      3  C   LIG    1       24.648 -20.579   5.299  0.00  0.00    +0.032 A 
ATOM      4  C   LIG    1       25.826 -20.734   6.053  0.00  0.00    +0.026 A 
ATOM      5  C   LIG    1       25.812 -21.774   7.135  0.00  0.00    +0.075 C 
ATOM      6  N   LIG    1       26.324 -21.638   8.310  0.00  0.00    -0.275 NA
ATOM      7  C   LIG    1       27.013 -20.415   8.688  0.00  0.00    +0.218 C 
ATOM      8  C   LIG    1       28.214 -20.211   7.849  0.00  0.00    +0.159 A 
ATOM      9  N   LIG    1       28.141 -20.007   6.491  0.00  0.00    -0.283 N 
ATOM     10  C   LIG    1       29.425 -19.703   6.120  0.00  0.00    +0.230 A 
ATOM     11  N   LIG    1       30.226 -19.752   7.159  0.00  0.00    -0.138 NA
ATOM     12  N   LIG    1       29.461 -20.068   8.251  0.00  0.00    -0.132 NA
ATOM     13  C   LIG    1       26.973 -20.002   5.691  0.00  0.00    +0.059 A 
ATOM     14  C   LIG    1       26.953 -19.203   4.533  0.00  0.00    +0.028 A 
ATOM     15  C   LIG    1       25.783 -19.085   3.779  0.00  0.00    +0.022 A 
ENDROOT
BRANCH   5  16
ATOM     16  C   LIG    1       25.166 -23.097   6.841  0.00  0.00    +0.001 A 
ATOM     17  C   LIG    1       23.773 -23.248   6.868  0.00  0.00    +0.010 A 
ATOM     18  C   LIG    1       23.201 -24.490   6.587  0.00  0.00    +0.001 A 
ATOM     19  C   LIG    1       24.014 -25.578   6.265  0.00  0.00    +0.000 A 
ATOM     20  C   LIG    1       25.400 -25.426   6.216  0.00  0.00    +0.001 A 
ATOM     21  C   LIG    1       25.976 -24.186   6.498  0.00  0.00    +0.010 A 
ENDBRANCH   5  16
TORSDOF 1
ENDMDL
MODEL 2
REMARK VINA RESULT:      -8.7      1.187      1.506
REMARK  Name = *****
REMARK                            x       y       z     vdW  Elec       q    Type
REMARK                         _______ _______ _______ _____ _____    ______ ____
ROOT
ATOM      1 CL   LIG    1       21.354 -21.108   4.538  0.00  0.00    -0.084 Cl
ATOM      2  C   LIG    1       23.011 -20.891   4.942  0.00  0.00    +0.042 A 
ATOM      3  C   LIG    1       23.623 -21.759   5.844  0.00  0.00    +0.032 A 
ATOM      4  C   LIG    1       24.982 -21.603   6.172  0.00  0.00    +0.026 A 
ATOM      5  C   LIG    1       25.612 -22.684   7.002  0.00  0.00    +0.075 C 
ATOM      6  N   LIG    1       26.435 -22.496   7.975  0.00  0.00    -0.275 NA
ATOM      7  C   LIG    1       26.859 -21.156   8.347  0.00  0.00    +0.218 C 
ATOM      8  C   LIG    1       27.606 -20.518   7.241  0.00  0.00    +0.159 A 
ATOM      9  N   LIG    1       27.027 -20.232   6.027  0.00  0.00    -0.283 N 
ATOM     10  C   LIG    1       27.979 -19.514   5.352  0.00  0.00    +0.230 A 
ATOM     11  N   LIG    1       29.066 -19.400   6.079  0.00  0.00    -0.138 NA
ATOM     12  N   LIG    1       28.830 -20.030   7.274  0.00  0.00    -0.132 NA
ATOM     13  C   LIG    1       25.701 -20.523   5.625  0.00  0.00    +0.059 A 
ATOM     14  C   LIG    1       25.079 -19.674   4.691  0.00  0.00    +0.028 A 
ATOM     15  C   LIG    1       23.737 -19.862   4.353  0.00  0.00    +0.022 A 
ENDROOT
BRANCH   5  16
ATOM     16  C   LIG    1       25.281 -24.112   6.678  0.00  0.00    +0.001 A 
ATOM     17  C   LIG    1       23.958 -24.523   6.468  0.00  0.00    +0.010 A 
ATOM     18  C   LIG    1       23.682 -25.857   6.164  0.00  0.00    +0.001 A 
ATOM     19  C   LIG    1       24.724 -26.779   6.057  0.00  0.00    +0.000 A 
ATOM     20  C   LIG    1       26.044 -26.370   6.244  0.00  0.00    +0.001 A 
ATOM     21  C   LIG    1       26.325 -25.037   6.549  0.00  0.00    +0.010 A 
ENDBRANCH   5  16
TORSDOF 1
ENDMDL
MODEL 3
REMARK VINA RESULT:      -8.3      3.106      5.678
REMARK  Name = *****
REMARK                            x       y       z     vdW  Elec       q    Type
REMARK                         _______ _______ _______ _____ _____    ______ ____
ROOT
ATOM      1 CL   LIG    1       28.003 -19.356   8.266  0.00  0.00    -0.084 Cl
ATOM      2  C   LIG    1       27.188 -20.742   7.658  0.00  0.00    +0.042 A 
ATOM      3  C   LIG    1       25.865 -20.637   7.234  0.00  0.00    +0.032 A 
ATOM      4  C   LIG    1       25.190 -21.758   6.719  0.00  0.00    +0.026 A 
ATOM      5  C   LIG    1       23.837 -21.523   6.114  0.00  0.00    +0.075 C 
ATOM      6  N   LIG    1       22.806 -22.281   6.267  0.00  0.00    -0.275 NA
ATOM      7  C   LIG    1       22.886 -23.499   7.056  0.00  0.00    +0.218 C 
ATOM      8  C   LIG    1       23.832 -24.458   6.445  0.00  0.00    +0.159 A 
ATOM      9  N   LIG    1       25.176 -24.193   6.322  0.00  0.00    -0.283 N 
ATOM     10  C   LIG    1       25.718 -25.367   5.869  0.00  0.00    +0.230 A 
ATOM     11  N   LIG    1       24.778 -26.267   5.694  0.00  0.00    -0.138 NA
ATOM     12  N   LIG    1       23.588 -25.695   6.062  0.00  0.00    -0.132 NA
ATOM     13  C   LIG    1       25.848 -23.004   6.694  0.00  0.00    +0.059 A 
ATOM     14  C   LIG    1       27.194 -23.088   7.095  0.00  0.00    +0.028 A 
ATOM     15  C   LIG    1       27.858 -21.957   7.575  0.00  0.00    +0.022 A 
ENDROOT
BRANCH   5  16
ATOM     16  C   LIG    1       23.650 -20.316   5.240  0.00  0.00    +0.001 A 
ATOM     17  C   LIG    1       24.606 -19.958   4.280  0.00  0.00    +0.010 A 
ATOM     18  C   LIG    1       24.402 -18.833   3.479  0.00  0.00    +0.001 A 
ATOM     19  C   LIG    1       23.242 -18.072   3.624  0.00  0.00    +0.000 A 
ATOM     20  C   LIG    1       22.278 -18.438   4.564  0.00  0.00    +0.001 A 
ATOM     21  C   LIG    1       22.477 -19.561   5.368  0.00  0.00    +0.010 A 
ENDBRANCH   5  16
TORSDOF 1
ENDMDL
MODEL 4
REMARK VINA RESULT:      -7.1      2.142      5.143
REMARK  Name = *****
REMARK                            x       y       z     vdW  Elec       q    Type
REMARK                         _______ _______ _______ _____ _____    ______ ____
ROOT
ATOM      1 CL   LIG    1       25.658 -17.768   3.057  0.00  0.00    -0.084 Cl
ATOM      2  C   LIG    1       25.041 -19.088   3.968  0.00  0.00    +0.042 A 
ATOM      3  C   LIG    1       25.918 -19.936   4.640  0.00  0.00    +0.032 A 
ATOM      4  C   LIG    1       25.427 -21.011   5.402  0.00  0.00    +0.026 A 
ATOM      5  C   LIG    1       26.418 -21.762   6.243  0.00  0.00    +0.075 C 
ATOM      6  N   LIG    1       26.459 -23.041   6.389  0.00  0.00    -0.275 NA
ATOM      7  C   LIG    1       25.481 -23.899   5.738  0.00  0.00    +0.218 C 
ATOM      8  C   LIG    1       24.120 -23.617   6.243  0.00  0.00    +0.159 A 
ATOM      9  N   LIG    1       23.500 -22.404   6.058  0.00  0.00    -0.283 N 
ATOM     10  C   LIG    1       22.223 -22.598   6.515  0.00  0.00    +0.230 A 
ATOM     11  N   LIG    1       22.082 -23.819   6.977  0.00  0.00    -0.138 NA
ATOM     12  N   LIG    1       23.278 -24.464   6.801  0.00  0.00    -0.132 NA
ATOM     13  C   LIG    1       24.040 -21.257   5.427  0.00  0.00    +0.059 A 
ATOM     14  C   LIG    1       23.164 -20.374   4.770  0.00  0.00    +0.028 A 
ATOM     15  C   LIG    1       23.668 -19.293   4.043  0.00  0.00    +0.022 A 
ENDROOT
BRANCH   5  16
ATOM     16  C   LIG    1       27.449 -20.974   6.999  0.00  0.00    +0.001 A 
ATOM     17  C   LIG    1       27.130 -20.321   8.197  0.00  0.00    +0.010 A 
ATOM     18  C   LIG    1       28.110 -19.599   8.880  0.00  0.00    +0.001 A 
ATOM     19  C   LIG    1       29.411 -19.538   8.378  0.00  0.00    +0.000 A 
ATOM     20  C   LIG    1       29.737 -20.206   7.197  0.00  0.00    +0.001 A 
ATOM     21  C   LIG    1       28.760 -20.927   6.510  0.00  0.00    +0.010 A 
ENDBRANCH   5  16
TORSDOF 1
ENDMDL
MODEL 5
REMARK VINA RESULT:      -6.9      2.957      5.565
REMARK  Name = *****
REMARK                            x       y       z     vdW  Elec       q    Type
REMARK                         _______ _______ _______ _____ _____    ______ ____
ROOT
ATOM      1 CL   LIG    1       26.878 -26.336   6.440  0.00  0.00    -0.084 Cl
ATOM      2  C   LIG    1       26.007 -24.894   6.099  0.00  0.00    +0.042 A 
ATOM      3  C   LIG    1       26.261 -23.741   6.839  0.00  0.00    +0.032 A 
ATOM      4  C   LIG    1       25.567 -22.549   6.561  0.00  0.00    +0.026 A 
ATOM      5  C   LIG    1       26.029 -21.309   7.272  0.00  0.00    +0.075 C 
ATOM      6  N   LIG    1       25.259 -20.408   7.778  0.00  0.00    -0.275 NA
ATOM      7  C   LIG    1       23.813 -20.514   7.673  0.00  0.00    +0.218 C 
ATOM      8  C   LIG    1       23.387 -20.461   6.258  0.00  0.00    +0.159 A 
ATOM      9  N   LIG    1       23.741 -21.425   5.343  0.00  0.00    -0.283 N 
ATOM     10  C   LIG    1       23.028 -21.108   4.216  0.00  0.00    +0.230 A 
ATOM     11  N   LIG    1       22.323 -20.018   4.413  0.00  0.00    -0.138 NA
ATOM     12  N   LIG    1       22.545 -19.612   5.703  0.00  0.00    -0.132 NA
ATOM     13  C   LIG    1       24.568 -22.551   5.568  0.00  0.00    +0.059 A 
ATOM     14  C   LIG    1       24.345 -23.714   4.808  0.00  0.00    +0.028 A 
ATOM     15  C   LIG    1       25.065 -24.880   5.077  0.00  0.00    +0.022 A 
ENDROOT
BRANCH   5  16
ATOM     16  C   LIG    1       27.505 -21.072   7.400  0.00  0.00    +0.001 A 
ATOM     17  C   LIG    1       28.261 -21.712   8.391  0.00  0.00    +0.010 A 
ATOM     18  C   LIG    1       29.634 -21.475   8.484  0.00  0.00    +0.001 A 
ATOM     19  C   LIG    1       30.256 -20.610   7.582  0.00  0.00    +0.000 A 
ATOM     20  C   LIG    1       29.510 -19.988   6.581  0.00  0.00    +0.001 A 
ATOM     21  C   LIG    1       28.138 -20.221   6.485  0.00  0.00    +0.010 A 
ENDBRANCH   5  16
TORSDOF 1
ENDMDL
MODEL 6
REMARK VINA RESULT:      -6.9      7.412      9.772
REMARK  Name = *****
REMARK                            x       y       z     vdW  Elec       q    Type
REMARK                         _______ _______ _______ _____ _____    ______ ____
ROOT
ATOM      1 CL   LIG    1       25.656 -25.398   6.515  0.00  0.00    -0.084 Cl
ATOM      2  C   LIG    1       25.320 -27.079   6.644  0.00  0.00    +0.042 A 
ATOM      3  C   LIG    1       25.868 -27.816   7.692  0.00  0.00    +0.032 A 
ATOM      4  C   LIG    1       25.589 -29.188   7.819  0.00  0.00    +0.026 A 
ATOM      5  C   LIG    1       26.062 -29.868   9.071  0.00  0.00    +0.075 C 
ATOM      6  N   LIG    1       26.596 -31.040   9.131  0.00  0.00    -0.275 NA
ATOM      7  C   LIG    1       26.765 -31.845   7.932  0.00  0.00    +0.218 C 
ATOM      8  C   LIG    1       25.453 -32.181   7.338  0.00  0.00    +0.159 A 
ATOM      9  N   LIG    1       24.603 -31.224   6.836  0.00  0.00    -0.283 N 
ATOM     10  C   LIG    1       23.595 -31.938   6.242  0.00  0.00    +0.230 A 
ATOM     11  N   LIG    1       23.793 -33.226   6.398  0.00  0.00    -0.138 NA
ATOM     12  N   LIG    1       24.968 -33.381   7.087  0.00  0.00    -0.132 NA
ATOM     13  C   LIG    1       24.799 -29.822   6.840  0.00  0.00    +0.059 A 
ATOM     14  C   LIG    1       24.226 -29.059   5.807  0.00  0.00    +0.028 A 
ATOM     15  C   LIG    1       24.488 -27.690   5.713  0.00  0.00    +0.022 A 
ENDROOT
BRANCH   5  16
ATOM     16  C   LIG    1       25.895 -29.147  10.377  0.00  0.00    +0.001 A 
ATOM     17  C   LIG    1       24.781 -29.373  11.196  0.00  0.00    +0.010 A 
ATOM     18  C   LIG    1       24.655 -28.691  12.407  0.00  0.00    +0.001 A 
ATOM     19  C   LIG    1       25.644 -27.793  12.809  0.00  0.00    +0.000 A 
ATOM     20  C   LIG    1       26.766 -27.581  12.008  0.00  0.00    +0.001 A 
ATOM     21  C   LIG    1       26.895 -28.261  10.795  0.00  0.00    +0.010 A 
ENDBRANCH   5  16
TORSDOF 1
ENDMDL
MODEL 7
REMARK VINA RESULT:      -6.9      7.202     10.439
REMARK  Name = *****
REMARK                            x       y       z     vdW  Elec       q    Type
REMARK                         _______ _______ _______ _____ _____    ______ ____
ROOT
ATOM      1 CL   LIG    1       22.540 -29.965  10.821  0.00  0.00    -0.084 Cl
ATOM      2  C   LIG    1       23.759 -30.588   9.782  0.00  0.00    +0.042 A 
ATOM      3  C   LIG    1       23.914 -30.060   8.502  0.00  0.00    +0.032 A 
ATOM      4  C   LIG    1       24.918 -30.548   7.646  0.00  0.00    +0.026 A 
ATOM      5  C   LIG    1       25.141 -29.805   6.361  0.00  0.00    +0.075 C 
ATOM      6  N   LIG    1       25.360 -30.346   5.212  0.00  0.00    -0.275 NA
ATOM      7  C   LIG    1       25.438 -31.790   5.069  0.00  0.00    +0.218 C 
ATOM      8  C   LIG    1       26.578 -32.332   5.839  0.00  0.00    +0.159 A 
ATOM      9  N   LIG    1       26.652 -32.247   7.209  0.00  0.00    -0.283 N 
ATOM     10  C   LIG    1       27.752 -32.993   7.541  0.00  0.00    +0.230 A 
ATOM     11  N   LIG    1       28.327 -33.467   6.460  0.00  0.00    -0.138 NA
ATOM     12  N   LIG    1       27.584 -33.053   5.385  0.00  0.00    -0.132 NA
ATOM     13  C   LIG    1       25.724 -31.620   8.076  0.00  0.00    +0.059 A 
ATOM     14  C   LIG    1       25.578 -32.122   9.382  0.00  0.00    +0.028 A 
ATOM     15  C   LIG    1       24.596 -31.604  10.230  0.00  0.00    +0.022 A 
ENDROOT
BRANCH   5  16
ATOM     16  C   LIG    1       25.129 -28.304   6.398  0.00  0.00    +0.001 A 
ATOM     17  C   LIG    1       26.043 -27.588   7.182  0.00  0.00    +0.010 A 
ATOM     18  C   LIG    1       26.009 -26.192   7.192  0.00  0.00    +0.001 A 
ATOM     19  C   LIG    1       25.075 -25.510   6.413  0.00  0.00    +0.000 A 
ATOM     20  C   LIG    1       24.178 -26.218   5.614  0.00  0.00    +0.001 A 
ATOM     21  C   LIG    1       24.207 -27.614   5.601  0.00  0.00    +0.010 A 
ENDBRANCH   5  16
TORSDOF 1
ENDMDL
MODEL 8
REMARK VINA RESULT:      -6.9      2.032      4.336
REMARK  Name = *****
REMARK                            x       y       z     vdW  Elec       q    Type
REMARK                         _______ _______ _______ _____ _____    ______ ____
ROOT
ATOM      1 CL   LIG    1       23.831 -25.160   5.666  0.00  0.00    -0.084 Cl
ATOM      2  C   LIG    1       24.871 -23.889   6.174  0.00  0.00    +0.042 A 
ATOM      3  C   LIG    1       24.933 -22.709   5.436  0.00  0.00    +0.032 A 
ATOM      4  C   LIG    1       25.768 -21.655   5.848  0.00  0.00    +0.026 A 
ATOM      5  C   LIG    1       25.640 -20.354   5.110  0.00  0.00    +0.075 C 
ATOM      6  N   LIG    1       26.619 -19.598   4.751  0.00  0.00    -0.275 NA
ATOM      7  C   LIG    1       27.993 -19.951   5.071  0.00  0.00    +0.218 C 
ATOM      8  C   LIG    1       28.199 -19.974   6.535  0.00  0.00    +0.159 A 
ATOM      9  N   LIG    1       27.550 -20.863   7.359  0.00  0.00    -0.283 N 
ATOM     10  C   LIG    1       28.124 -20.674   8.589  0.00  0.00    +0.230 A 
ATOM     11  N   LIG    1       29.026 -19.722   8.531  0.00  0.00    -0.138 NA
ATOM     12  N   LIG    1       29.077 -19.283   7.234  0.00  0.00    -0.132 NA
ATOM     13  C   LIG    1       26.588 -21.830   6.980  0.00  0.00    +0.059 A 
ATOM     14  C   LIG    1       26.490 -23.014   7.733  0.00  0.00    +0.028 A 
ATOM     15  C   LIG    1       25.633 -24.039   7.327  0.00  0.00    +0.022 A 
ENDROOT
BRANCH   5  16
ATOM     16  C   LIG    1       24.262 -19.866   4.766  0.00  0.00    +0.001 A 
ATOM     17  C   LIG    1       23.124 -20.416   5.369  0.00  0.00    +0.010 A 
ATOM     18  C   LIG    1       21.856 -19.939   5.032  0.00  0.00    +0.001 A 
ATOM     19  C   LIG    1       21.723 -18.905   4.104  0.00  0.00    +0.000 A 
ATOM     20  C   LIG    1       22.855 -18.340   3.518  0.00  0.00    +0.001 A 
ATOM     21  C   LIG    1       24.124 -18.815   3.851  0.00  0.00    +0.010 A 
ENDBRANCH   5  16
TORSDOF 1
ENDMDL
MODEL 9
REMARK VINA RESULT:      -6.3      6.892     10.403
REMARK  Name = *****
REMARK                            x       y       z     vdW  Elec       q    Type
REMARK                         _______ _______ _______ _____ _____    ______ ____
ROOT
ATOM      1 CL   LIG    1       25.882 -32.313   3.581  0.00  0.00    -0.084 Cl
ATOM      2  C   LIG    1       25.179 -32.063   5.130  0.00  0.00    +0.042 A 
ATOM      3  C   LIG    1       25.533 -30.943   5.878  0.00  0.00    +0.032 A 
ATOM      4  C   LIG    1       24.954 -30.717   7.140  0.00  0.00    +0.026 A 
ATOM      5  C   LIG    1       25.245 -29.399   7.798  0.00  0.00    +0.075 C 
ATOM      6  N   LIG    1       25.504 -29.229   9.049  0.00  0.00    -0.275 NA
ATOM      7  C   LIG    1       25.509 -30.353   9.971  0.00  0.00    +0.218 C 
ATOM      8  C   LIG    1       24.165 -30.963  10.059  0.00  0.00    +0.159 A 
ATOM      9  N   LIG    1       23.556 -31.568   8.984  0.00  0.00    -0.283 N 
ATOM     10  C   LIG    1       22.424 -32.138   9.506  0.00  0.00    +0.230 A 
ATOM     11  N   LIG    1       22.328 -31.873  10.789  0.00  0.00    -0.138 NA
ATOM     12  N   LIG    1       23.429 -31.135  11.139  0.00  0.00    -0.132 NA
ATOM     13  C   LIG    1       24.059 -31.669   7.665  0.00  0.00    +0.059 A 
ATOM     14  C   LIG    1       23.686 -32.778   6.885  0.00  0.00    +0.028 A 
ATOM     15  C   LIG    1       24.247 -32.971   5.620  0.00  0.00    +0.022 A 
ENDROOT
BRANCH   5  16
ATOM     16  C   LIG    1       25.222 -28.161   6.950  0.00  0.00    +0.001 A 
ATOM     17  C   LIG    1       24.283 -28.000   5.923  0.00  0.00    +0.010 A 
ATOM     18  C   LIG    1       24.283 -26.836   5.153  0.00  0.00    +0.001 A 
ATOM     19  C   LIG    1       25.209 -25.825   5.414  0.00  0.00    +0.000 A 
ATOM     20  C   LIG    1       26.132 -25.972   6.450  0.00  0.00    +0.001 A 
ATOM     21  C   LIG    1       26.136 -27.135   7.222  0.00  0.00    +0.010 A 
ENDBRANCH   5  16
TORSDOF 1
ENDMDL
