MODEL 1
REMARK VINA RESULT:      -5.7      0.000      0.000
REMARK  Name = *****
REMARK                            x       y       z     vdW  Elec       q    Type
REMARK                         _______ _______ _______ _____ _____    ______ ____
ROOT
ATOM      1  O   LIG    1       26.548 -20.003   5.115  0.00  0.00    -0.489 OA
ENDROOT
BRANCH   1   4
ATOM      2  C   LIG    1       24.779 -18.631   3.322  0.00  0.00    +0.048 C 
ATOM      3  C   LIG    1       24.311 -19.605   4.364  0.00  0.00    -0.009 A 
ATOM      4  C   LIG    1       25.196 -20.262   5.244  0.00  0.00    +0.123 A 
ATOM      5  C   LIG    1       24.667 -21.147   6.194  0.00  0.00    +0.046 A 
ATOM      6  C   LIG    1       23.301 -21.411   6.266  0.00  0.00    +0.004 A 
ATOM      7  C   LIG    1       22.426 -20.759   5.401  0.00  0.00    +0.001 A 
ATOM      8  C   LIG    1       22.930 -19.858   4.470  0.00  0.00    +0.007 A 
ENDBRANCH   1   4
BRANCH   1   9
ATOM      9  C   LIG    1       27.326 -20.370   6.264  0.00  0.00    +0.262 C 
BRANCH   9  10
ATOM     10  C   LIG    1       28.839 -20.334   6.017  0.00  0.00    +0.177 C 
BRANCH  10  11
ATOM     11  O   LIG    1       29.475 -21.094   7.062  0.00  0.00    -0.386 OA
ATOM     12  H   LIG    1       30.355 -21.340   6.713  0.00  0.00    +0.210 HD
ENDBRANCH  10  11
BRANCH  10  13
ATOM     13  C   LIG    1       29.450 -18.929   5.994  0.00  0.00    +0.190 C 
BRANCH  13  14
ATOM     14  O   LIG    1       29.009 -18.207   4.842  0.00  0.00    -0.392 OA
ATOM     15  H   LIG    1       29.568 -17.409   4.792  0.00  0.00    +0.209 HD
ENDBRANCH  13  14
ENDBRANCH  10  13
ENDBRANCH   9  10
ENDBRANCH   1   9
TORSDOF 6
ENDMDL
MODEL 2
REMARK VINA RESULT:      -5.0      1.370      2.135
REMARK  Name = *****
REMARK                            x       y       z     vdW  Elec       q    Type
REMARK                         _______ _______ _______ _____ _____    ______ ____
ROOT
ATOM      1  O   LIG    1       25.557 -20.716   4.256  0.00  0.00    -0.489 OA
ENDROOT
BRANCH   1   4
ATOM      2  C   LIG    1       25.587 -18.019   3.282  0.00  0.00    +0.048 C 
ATOM      3  C   LIG    1       24.369 -18.677   3.863  0.00  0.00    -0.009 A 
ATOM      4  C   LIG    1       24.377 -20.002   4.347  0.00  0.00    +0.123 A 
ATOM      5  C   LIG    1       23.195 -20.529   4.885  0.00  0.00    +0.046 A 
ATOM      6  C   LIG    1       22.015 -19.789   4.923  0.00  0.00    +0.004 A 
ATOM      7  C   LIG    1       22.007 -18.479   4.449  0.00  0.00    +0.001 A 
ATOM      8  C   LIG    1       23.177 -17.931   3.937  0.00  0.00    +0.007 A 
ENDBRANCH   1   4
BRANCH   1   9
ATOM      9  C   LIG    1       26.054 -21.188   5.517  0.00  0.00    +0.262 C 
BRANCH   9  10
ATOM     10  C   LIG    1       27.210 -20.349   6.075  0.00  0.00    +0.177 C 
BRANCH  10  11
ATOM     11  O   LIG    1       28.008 -19.903   4.962  0.00  0.00    -0.386 OA
ATOM     12  H   LIG    1       28.874 -20.346   5.062  0.00  0.00    +0.210 HD
ENDBRANCH  10  11
BRANCH  10  13
ATOM     13  C   LIG    1       28.119 -21.089   7.062  0.00  0.00    +0.190 C 
BRANCH  13  14
ATOM     14  O   LIG    1       29.472 -21.082   6.602  0.00  0.00    -0.392 OA
ATOM     15  H   LIG    1       29.922 -20.369   7.093  0.00  0.00    +0.209 HD
ENDBRANCH  13  14
ENDBRANCH  10  13
ENDBRANCH   9  10
ENDBRANCH   1   9
TORSDOF 6
ENDMDL
MODEL 3
REMARK VINA RESULT:      -5.0      3.866      5.950
REMARK  Name = *****
REMARK                            x       y       z     vdW  Elec       q    Type
REMARK                         _______ _______ _______ _____ _____    ______ ____
ROOT
ATOM      1  O   LIG    1       25.399 -16.615   2.999  0.00  0.00    -0.489 OA
ENDROOT
BRANCH   1   4
ATOM      2  C   LIG    1       23.585 -14.735   4.180  0.00  0.00    +0.048 C 
ATOM      3  C   LIG    1       25.072 -14.537   4.141  0.00  0.00    -0.009 A 
ATOM      4  C   LIG    1       25.948 -15.469   3.545  0.00  0.00    +0.123 A 
ATOM      5  C   LIG    1       27.323 -15.195   3.544  0.00  0.00    +0.046 A 
ATOM      6  C   LIG    1       27.840 -14.047   4.140  0.00  0.00    +0.004 A 
ATOM      7  C   LIG    1       26.976 -13.124   4.724  0.00  0.00    +0.001 A 
ATOM      8  C   LIG    1       25.607 -13.366   4.711  0.00  0.00    +0.007 A 
ENDBRANCH   1   4
BRANCH   1   9
ATOM      9  C   LIG    1       26.054 -17.826   3.404  0.00  0.00    +0.262 C 
BRANCH   9  10
ATOM     10  C   LIG    1       25.117 -19.039   3.463  0.00  0.00    +0.177 C 
BRANCH  10  11
ATOM     11  O   LIG    1       23.791 -18.559   3.751  0.00  0.00    -0.386 OA
ATOM     12  H   LIG    1       23.397 -19.216   4.360  0.00  0.00    +0.210 HD
ENDBRANCH  10  11
BRANCH  10  13
ATOM     13  C   LIG    1       25.496 -20.089   4.514  0.00  0.00    +0.190 C 
BRANCH  13  14
ATOM     14  O   LIG    1       26.910 -20.108   4.718  0.00  0.00    -0.392 OA
ATOM     15  H   LIG    1       27.300 -19.620   3.969  0.00  0.00    +0.209 HD
ENDBRANCH  13  14
ENDBRANCH  10  13
ENDBRANCH   9  10
ENDBRANCH   1   9
TORSDOF 6
ENDMDL
MODEL 4
REMARK VINA RESULT:      -4.9      1.945      3.528
REMARK  Name = *****
REMARK                            x       y       z     vdW  Elec       q    Type
REMARK                         _______ _______ _______ _____ _____    ______ ____
ROOT
ATOM      1  O   LIG    1       25.798 -19.342   3.930  0.00  0.00    -0.489 OA
ENDROOT
BRANCH   1   4
ATOM      2  C   LIG    1       26.958 -20.463   6.301  0.00  0.00    +0.048 C 
ATOM      3  C   LIG    1       25.482 -20.452   6.027  0.00  0.00    -0.009 A 
ATOM      4  C   LIG    1       24.931 -19.905   4.849  0.00  0.00    +0.123 A 
ATOM      5  C   LIG    1       23.541 -19.950   4.672  0.00  0.00    +0.046 A 
ATOM      6  C   LIG    1       22.698 -20.491   5.641  0.00  0.00    +0.004 A 
ATOM      7  C   LIG    1       23.241 -21.035   6.802  0.00  0.00    +0.001 A 
ATOM      8  C   LIG    1       24.620 -21.024   6.981  0.00  0.00    +0.007 A 
ENDBRANCH   1   4
BRANCH   1   9
ATOM      9  C   LIG    1       25.379 -18.059   3.442  0.00  0.00    +0.262 C 
BRANCH   9  10
ATOM     10  C   LIG    1       26.540 -17.087   3.198  0.00  0.00    +0.177 C 
BRANCH  10  11
ATOM     11  O   LIG    1       27.641 -17.496   4.032  0.00  0.00    -0.386 OA
ATOM     12  H   LIG    1       28.448 -17.324   3.508  0.00  0.00    +0.210 HD
ENDBRANCH  10  11
BRANCH  10  13
ATOM     13  C   LIG    1       26.218 -15.619   3.500  0.00  0.00    +0.190 C 
BRANCH  13  14
ATOM     14  O   LIG    1       26.606 -14.785   2.406  0.00  0.00    -0.392 OA
ATOM     15  H   LIG    1       27.087 -14.031   2.798  0.00  0.00    +0.209 HD
ENDBRANCH  13  14
ENDBRANCH  10  13
ENDBRANCH   9  10
ENDBRANCH   1   9
TORSDOF 6
ENDMDL
MODEL 5
REMARK VINA RESULT:      -4.8      3.872      6.000
REMARK  Name = *****
REMARK                            x       y       z     vdW  Elec       q    Type
REMARK                         _______ _______ _______ _____ _____    ______ ____
ROOT
ATOM      1  O   LIG    1       25.284 -16.751   3.092  0.00  0.00    -0.489 OA
ENDROOT
BRANCH   1   4
ATOM      2  C   LIG    1       23.539 -14.764   4.203  0.00  0.00    +0.048 C 
ATOM      3  C   LIG    1       25.029 -14.601   4.114  0.00  0.00    -0.009 A 
ATOM      4  C   LIG    1       25.870 -15.586   3.554  0.00  0.00    +0.123 A 
ATOM      5  C   LIG    1       27.249 -15.343   3.501  0.00  0.00    +0.046 A 
ATOM      6  C   LIG    1       27.805 -14.172   4.013  0.00  0.00    +0.004 A 
ATOM      7  C   LIG    1       26.976 -13.198   4.562  0.00  0.00    +0.001 A 
ATOM      8  C   LIG    1       25.602 -13.410   4.598  0.00  0.00    +0.007 A 
ENDBRANCH   1   4
BRANCH   1   9
ATOM      9  C   LIG    1       26.067 -17.931   3.325  0.00  0.00    +0.262 C 
BRANCH   9  10
ATOM     10  C   LIG    1       25.299 -19.044   4.047  0.00  0.00    +0.177 C 
BRANCH  10  11
ATOM     11  O   LIG    1       26.064 -20.258   3.926  0.00  0.00    -0.386 OA
ATOM     12  H   LIG    1       26.629 -20.138   3.137  0.00  0.00    +0.210 HD
ENDBRANCH  10  11
BRANCH  10  13
ATOM     13  C   LIG    1       23.888 -19.301   3.509  0.00  0.00    +0.190 C 
BRANCH  13  14
ATOM     14  O   LIG    1       22.943 -18.435   4.141  0.00  0.00    -0.392 OA
ATOM     15  H   LIG    1       22.809 -18.790   5.040  0.00  0.00    +0.209 HD
ENDBRANCH  13  14
ENDBRANCH  10  13
ENDBRANCH   9  10
ENDBRANCH   1   9
TORSDOF 6
ENDMDL
MODEL 6
REMARK VINA RESULT:      -4.7      3.009      3.929
REMARK  Name = *****
REMARK                            x       y       z     vdW  Elec       q    Type
REMARK                         _______ _______ _______ _____ _____    ______ ____
ROOT
ATOM      1  O   LIG    1       24.662 -17.734   3.365  0.00  0.00    -0.489 OA
ENDROOT
BRANCH   1   4
ATOM      2  C   LIG    1       22.015 -17.959   4.444  0.00  0.00    +0.048 C 
ATOM      3  C   LIG    1       23.031 -19.062   4.507  0.00  0.00    -0.009 A 
ATOM      4  C   LIG    1       24.333 -18.928   3.980  0.00  0.00    +0.123 A 
ATOM      5  C   LIG    1       25.220 -20.007   4.095  0.00  0.00    +0.046 A 
ATOM      6  C   LIG    1       24.836 -21.209   4.687  0.00  0.00    +0.004 A 
ATOM      7  C   LIG    1       23.553 -21.340   5.212  0.00  0.00    +0.001 A 
ATOM      8  C   LIG    1       22.669 -20.271   5.131  0.00  0.00    +0.007 A 
ENDBRANCH   1   4
BRANCH   1   9
ATOM      9  C   LIG    1       26.066 -17.434   3.385  0.00  0.00    +0.262 C 
BRANCH   9  10
ATOM     10  C   LIG    1       26.377 -15.942   3.216  0.00  0.00    +0.177 C 
BRANCH  10  11
ATOM     11  O   LIG    1       27.619 -15.671   3.893  0.00  0.00    -0.386 OA
ATOM     12  H   LIG    1       27.467 -15.903   4.830  0.00  0.00    +0.210 HD
ENDBRANCH  10  11
BRANCH  10  13
ATOM     13  C   LIG    1       25.303 -14.999   3.769  0.00  0.00    +0.190 C 
BRANCH  13  14
ATOM     14  O   LIG    1       25.903 -13.932   4.508  0.00  0.00    -0.392 OA
ATOM     15  H   LIG    1       26.147 -14.306   5.376  0.00  0.00    +0.209 HD
ENDBRANCH  13  14
ENDBRANCH  10  13
ENDBRANCH   9  10
ENDBRANCH   1   9
TORSDOF 6
ENDMDL
MODEL 7
REMARK VINA RESULT:      -4.5      5.855      7.503
REMARK  Name = *****
REMARK                            x       y       z     vdW  Elec       q    Type
REMARK                         _______ _______ _______ _____ _____    ______ ____
ROOT
ATOM      1  O   LIG    1       26.208 -14.963   2.914  0.00  0.00    -0.489 OA
ENDROOT
BRANCH   1   4
ATOM      2  C   LIG    1       23.899 -14.804   4.608  0.00  0.00    +0.048 C 
ATOM      3  C   LIG    1       24.330 -13.697   3.690  0.00  0.00    -0.009 A 
ATOM      4  C   LIG    1       25.463 -13.799   2.856  0.00  0.00    +0.123 A 
ATOM      5  C   LIG    1       25.783 -12.718   2.022  0.00  0.00    +0.046 A 
ATOM      6  C   LIG    1       25.029 -11.546   2.021  0.00  0.00    +0.004 A 
ATOM      7  C   LIG    1       23.908 -11.448   2.841  0.00  0.00    +0.001 A 
ATOM      8  C   LIG    1       23.560 -12.520   3.655  0.00  0.00    +0.007 A 
ENDBRANCH   1   4
BRANCH   1   9
ATOM      9  C   LIG    1       27.405 -14.852   3.697  0.00  0.00    +0.262 C 
BRANCH   9  10
ATOM     10  C   LIG    1       27.929 -13.415   3.817  0.00  0.00    +0.177 C 
BRANCH  10  11
ATOM     11  O   LIG    1       29.271 -13.389   3.297  0.00  0.00    -0.386 OA
ATOM     12  H   LIG    1       29.480 -12.445   3.147  0.00  0.00    +0.210 HD
ENDBRANCH  10  11
BRANCH  10  13
ATOM     13  C   LIG    1       27.947 -12.859   5.245  0.00  0.00    +0.190 C 
BRANCH  13  14
ATOM     14  O   LIG    1       29.048 -11.966   5.422  0.00  0.00    -0.392 OA
ATOM     15  H   LIG    1       28.685 -11.170   5.856  0.00  0.00    +0.209 HD
ENDBRANCH  13  14
ENDBRANCH  10  13
ENDBRANCH   9  10
ENDBRANCH   1   9
TORSDOF 6
ENDMDL
MODEL 8
REMARK VINA RESULT:      -4.4      3.298      4.190
REMARK  Name = *****
REMARK                            x       y       z     vdW  Elec       q    Type
REMARK                         _______ _______ _______ _____ _____    ______ ____
ROOT
ATOM      1  O   LIG    1       24.714 -17.260   3.298  0.00  0.00    -0.489 OA
ENDROOT
BRANCH   1   4
ATOM      2  C   LIG    1       22.111 -17.719   4.412  0.00  0.00    +0.048 C 
ATOM      3  C   LIG    1       23.200 -18.753   4.396  0.00  0.00    -0.009 A 
ATOM      4  C   LIG    1       24.478 -18.504   3.853  0.00  0.00    +0.123 A 
ATOM      5  C   LIG    1       25.436 -19.527   3.892  0.00  0.00    +0.046 A 
ATOM      6  C   LIG    1       25.146 -20.781   4.425  0.00  0.00    +0.004 A 
ATOM      7  C   LIG    1       23.886 -21.026   4.965  0.00  0.00    +0.001 A 
ATOM      8  C   LIG    1       22.931 -20.015   4.959  0.00  0.00    +0.007 A 
ENDBRANCH   1   4
BRANCH   1   9
ATOM      9  C   LIG    1       26.093 -16.864   3.319  0.00  0.00    +0.262 C 
BRANCH   9  10
ATOM     10  C   LIG    1       26.294 -15.350   3.468  0.00  0.00    +0.177 C 
BRANCH  10  11
ATOM     11  O   LIG    1       26.291 -14.773   2.149  0.00  0.00    -0.386 OA
ATOM     12  H   LIG    1       25.360 -14.537   1.965  0.00  0.00    +0.210 HD
ENDBRANCH  10  11
BRANCH  10  13
ATOM     13  C   LIG    1       27.592 -14.944   4.175  0.00  0.00    +0.190 C 
BRANCH  13  14
ATOM     14  O   LIG    1       28.158 -13.786   3.561  0.00  0.00    -0.392 OA
ATOM     15  H   LIG    1       28.374 -14.043   2.644  0.00  0.00    +0.209 HD
ENDBRANCH  13  14
ENDBRANCH  10  13
ENDBRANCH   9  10
ENDBRANCH   1   9
TORSDOF 6
ENDMDL
MODEL 9
REMARK VINA RESULT:      -4.3      2.652      3.990
REMARK  Name = *****
REMARK                            x       y       z     vdW  Elec       q    Type
REMARK                         _______ _______ _______ _____ _____    ______ ____
ROOT
ATOM      1  O   LIG    1       25.905 -17.996   3.136  0.00  0.00    -0.489 OA
ENDROOT
BRANCH   1   4
ATOM      2  C   LIG    1       27.153 -19.802   4.982  0.00  0.00    +0.048 C 
ATOM      3  C   LIG    1       25.669 -19.737   4.762  0.00  0.00    -0.009 A 
ATOM      4  C   LIG    1       25.075 -18.849   3.841  0.00  0.00    +0.123 A 
ATOM      5  C   LIG    1       23.681 -18.866   3.693  0.00  0.00    +0.046 A 
ATOM      6  C   LIG    1       22.876 -19.714   4.451  0.00  0.00    +0.004 A 
ATOM      7  C   LIG    1       23.462 -20.594   5.357  0.00  0.00    +0.001 A 
ATOM      8  C   LIG    1       24.845 -20.609   5.498  0.00  0.00    +0.007 A 
ENDBRANCH   1   4
BRANCH   1   9
ATOM      9  C   LIG    1       25.654 -16.604   3.379  0.00  0.00    +0.262 C 
BRANCH   9  10
ATOM     10  C   LIG    1       26.912 -15.731   3.296  0.00  0.00    +0.177 C 
BRANCH  10  11
ATOM     11  O   LIG    1       27.880 -16.263   4.220  0.00  0.00    -0.386 OA
ATOM     12  H   LIG    1       28.590 -15.592   4.276  0.00  0.00    +0.210 HD
ENDBRANCH  10  11
BRANCH  10  13
ATOM     13  C   LIG    1       26.686 -14.251   3.624  0.00  0.00    +0.190 C 
BRANCH  13  14
ATOM     14  O   LIG    1       27.262 -13.419   2.615  0.00  0.00    -0.392 OA
ATOM     15  H   LIG    1       26.526 -13.143   2.037  0.00  0.00    +0.209 HD
ENDBRANCH  13  14
ENDBRANCH  10  13
ENDBRANCH   9  10
ENDBRANCH   1   9
TORSDOF 6
ENDMDL
