MODEL 1
REMARK VINA RESULT:      -3.3      0.000      0.000
REMARK  Name = *****
REMARK                            x       y       z     vdW  Elec       q    Type
REMARK                         _______ _______ _______ _____ _____    ______ ____
ROOT
ATOM      1  C   UNK A  0       22.240 -18.771   4.617  0.00  0.00    -0.047 A 
ATOM      2  C   UNK A  0       21.407 -17.739   5.072  0.00  0.00    +0.004 A 
ATOM      3  C   UNK A  0       21.805 -16.393   4.997  0.00  0.00    +0.013 A 
ATOM      4  C   UNK A  0       23.041 -16.045   4.433  0.00  0.00    +0.037 A 
ATOM      5  C   UNK A  0       23.848 -17.069   3.919  0.00  0.00    +0.013 A 
ATOM      6  C   UNK A  0       23.467 -18.417   4.038  0.00  0.00    +0.004 A 
ENDROOT
BRANCH   4   7
ATOM      7  C   UNK A  0       23.560 -14.633   4.397  0.00  0.00    +0.245 C 
ATOM      8  N   GLU A  1       24.699 -14.407   3.654  0.00  0.00    -0.298 N 
ATOM      9  H   GLU A  1       25.097 -15.193   3.161  0.00  0.00    +0.150 HD
ATOM     10  O   UNK A  0       22.944 -13.703   4.906  0.00  0.00    -0.270 OA
BRANCH   8  11
ATOM     11  CA  GLU A  1       25.331 -13.085   3.459  0.00  0.00    +0.182 C 
BRANCH  11  12
ATOM     12  C   GLU A  1       26.353 -12.990   2.300  0.00  0.00    +0.325 C 
ATOM     13  O   GLU A  1       26.933 -13.955   1.812  0.00  0.00    -0.249 OA
BRANCH  12  14
ATOM     14  OXT GLU A  1       26.681 -11.723   1.951  0.00  0.00    -0.479 OA
ATOM     15  HXT GLU A  1       25.891 -11.150   1.816  0.00  0.00    +0.295 HD
ENDBRANCH  12  14
ENDBRANCH  11  12
BRANCH  11  16
ATOM     16  CB  GLU A  1       25.926 -12.560   4.783  0.00  0.00    +0.045 C 
BRANCH  16  17
ATOM     17  CG  GLU A  1       27.198 -13.278   5.258  0.00  0.00    +0.123 C 
BRANCH  17  18
ATOM     18  CD  GLU A  1       28.481 -12.629   4.801  0.00  0.00    +0.305 C 
ATOM     19  OE1 GLU A  1       29.032 -12.831   3.730  0.00  0.00    -0.251 OA
BRANCH  18  20
ATOM     20  OE2 GLU A  1       29.079 -11.864   5.731  0.00  0.00    -0.481 OA
ATOM     21  HE2 GLU A  1       29.498 -12.515   6.333  0.00  0.00    +0.295 HD
ENDBRANCH  18  20
ENDBRANCH  17  18
ENDBRANCH  16  17
ENDBRANCH  11  16
ENDBRANCH   8  11
ENDBRANCH   4   7
BRANCH   1  22
ATOM     22  C   UNK A  0       21.800 -20.225   4.691  0.00  0.00    +0.040 C 
BRANCH  22  23
ATOM     23  C   UNK A  0       22.808 -21.216   4.095  0.00  0.00    +0.042 C 
BRANCH  23  34
ATOM     24  C   UNK A  0       27.544 -20.189   6.324  0.00  0.00    +0.195 C 
ATOM     25  N   UNK A  0       26.437 -20.649   7.006  0.00  0.00    -0.295 N 
ATOM     26  H   UNK A  0       26.503 -20.862   7.986  0.00  0.00    +0.172 HD
ATOM     27  C   UNK A  0       25.216 -20.901   6.416  0.00  0.00    +0.262 C 
ATOM     28  O   UNK A  0       24.241 -21.315   7.059  0.00  0.00    -0.267 OA
ATOM     29  C   UNK A  0       25.190 -20.600   5.009  0.00  0.00    +0.086 C 
ATOM     30  C   UNK A  0       26.357 -20.127   4.449  0.00  0.00    +0.147 C 
ATOM     31  N   UNK A  0       26.118 -19.861   3.135  0.00  0.00    -0.345 NA
ATOM     32  H   UNK A  0       26.814 -19.512   2.492  0.00  0.00    +0.167 HD
ATOM     33  C   UNK A  0       24.795 -20.114   2.857  0.00  0.00    +0.088 C 
ATOM     34  C   UNK A  0       24.201 -20.664   3.984  0.00  0.00    -0.015 C 
ATOM     35  N   UNK A  0       27.549 -19.921   5.048  0.00  0.00    -0.198 NA
BRANCH  24  36
ATOM     36  N   UNK A  0       28.675 -20.003   7.052  0.00  0.00    -0.329 NA
ATOM     37  H   UNK A  0       29.351 -20.755   7.030  0.00  0.00    +0.145 HD
ATOM     38  H   UNK A  0       28.455 -19.708   7.999  0.00  0.00    +0.145 HD
ENDBRANCH  24  36
ENDBRANCH  23  34
ENDBRANCH  22  23
ENDBRANCH   1  22
TORSDOF 12
ENDMDL
MODEL 2
REMARK VINA RESULT:      -3.2      1.560      3.027
REMARK  Name = *****
REMARK                            x       y       z     vdW  Elec       q    Type
REMARK                         _______ _______ _______ _____ _____    ______ ____
ROOT
ATOM      1  C   UNK A  0       22.605 -17.923   4.106  0.00  0.00    -0.047 A 
ATOM      2  C   UNK A  0       23.951 -17.940   3.714  0.00  0.00    +0.004 A 
ATOM      3  C   UNK A  0       24.674 -16.747   3.535  0.00  0.00    +0.013 A 
ATOM      4  C   UNK A  0       24.069 -15.505   3.774  0.00  0.00    +0.037 A 
ATOM      5  C   UNK A  0       22.743 -15.486   4.227  0.00  0.00    +0.013 A 
ATOM      6  C   UNK A  0       22.010 -16.679   4.360  0.00  0.00    +0.004 A 
ENDROOT
BRANCH   4   7
ATOM      7  C   UNK A  0       24.762 -14.192   3.522  0.00  0.00    +0.245 C 
ATOM      8  N   GLU A  1       25.894 -13.934   4.264  0.00  0.00    -0.298 N 
ATOM      9  H   GLU A  1       26.203 -14.649   4.908  0.00  0.00    +0.150 HD
ATOM     10  O   UNK A  0       24.410 -13.434   2.624  0.00  0.00    -0.270 OA
BRANCH   8  11
ATOM     11  CA  GLU A  1       26.736 -12.727   4.128  0.00  0.00    +0.182 C 
BRANCH  11  12
ATOM     12  C   GLU A  1       28.235 -12.905   4.475  0.00  0.00    +0.325 C 
ATOM     13  O   GLU A  1       28.761 -12.477   5.496  0.00  0.00    -0.249 OA
BRANCH  12  14
ATOM     14  OXT GLU A  1       28.973 -13.455   3.481  0.00  0.00    -0.479 OA
ATOM     15  HXT GLU A  1       29.821 -13.836   3.804  0.00  0.00    +0.295 HD
ENDBRANCH  12  14
ENDBRANCH  11  12
BRANCH  11  16
ATOM     16  CB  GLU A  1       26.117 -11.535   4.890  0.00  0.00    +0.045 C 
BRANCH  16  17
ATOM     17  CG  GLU A  1       25.040 -11.909   5.920  0.00  0.00    +0.123 C 
BRANCH  17  18
ATOM     18  CD  GLU A  1       23.636 -11.546   5.505  0.00  0.00    +0.305 C 
ATOM     19  OE1 GLU A  1       22.680 -11.447   6.258  0.00  0.00    -0.251 OA
BRANCH  18  20
ATOM     20  OE2 GLU A  1       23.457 -11.447   4.176  0.00  0.00    -0.481 OA
ATOM     21  HE2 GLU A  1       24.208 -10.887   3.882  0.00  0.00    +0.295 HD
ENDBRANCH  18  20
ENDBRANCH  17  18
ENDBRANCH  16  17
ENDBRANCH  11  16
ENDBRANCH   8  11
ENDBRANCH   4   7
BRANCH   1  22
ATOM     22  C   UNK A  0       21.831 -19.217   4.309  0.00  0.00    +0.040 C 
BRANCH  22  23
ATOM     23  C   UNK A  0       22.638 -20.484   3.998  0.00  0.00    +0.042 C 
BRANCH  23  34
ATOM     24  C   UNK A  0       27.587 -20.507   5.988  0.00  0.00    +0.195 C 
ATOM     25  N   UNK A  0       27.250 -20.073   4.722  0.00  0.00    -0.295 N 
ATOM     26  H   UNK A  0       27.954 -19.682   4.121  0.00  0.00    +0.172 HD
ATOM     27  C   UNK A  0       25.966 -20.083   4.219  0.00  0.00    +0.262 C 
ATOM     28  O   UNK A  0       25.697 -19.684   3.078  0.00  0.00    -0.267 OA
ATOM     29  C   UNK A  0       24.999 -20.630   5.135  0.00  0.00    +0.086 C 
ATOM     30  C   UNK A  0       25.466 -21.047   6.362  0.00  0.00    +0.147 C 
ATOM     31  N   UNK A  0       24.419 -21.570   7.058  0.00  0.00    -0.345 NA
ATOM     32  H   UNK A  0       24.491 -21.939   7.996  0.00  0.00    +0.167 HD
ATOM     33  C   UNK A  0       23.292 -21.536   6.270  0.00  0.00    +0.088 C 
ATOM     34  C   UNK A  0       23.595 -20.871   5.090  0.00  0.00    -0.015 C 
ATOM     35  N   UNK A  0       26.729 -20.994   6.839  0.00  0.00    -0.198 NA
BRANCH  24  36
ATOM     36  N   UNK A  0       28.897 -20.420   6.333  0.00  0.00    -0.329 NA
ATOM     37  H   UNK A  0       29.273 -19.486   6.435  0.00  0.00    +0.145 HD
ATOM     38  H   UNK A  0       29.473 -21.004   5.733  0.00  0.00    +0.145 HD
ENDBRANCH  24  36
ENDBRANCH  23  34
ENDBRANCH  22  23
ENDBRANCH   1  22
TORSDOF 12
ENDMDL
MODEL 3
REMARK VINA RESULT:      -3.1      1.158      1.764
REMARK  Name = *****
REMARK                            x       y       z     vdW  Elec       q    Type
REMARK                         _______ _______ _______ _____ _____    ______ ____
ROOT
ATOM      1  C   UNK A  0       22.347 -19.025   4.649  0.00  0.00    -0.047 A 
ATOM      2  C   UNK A  0       21.476 -18.043   5.144  0.00  0.00    +0.004 A 
ATOM      3  C   UNK A  0       21.783 -16.675   5.039  0.00  0.00    +0.013 A 
ATOM      4  C   UNK A  0       22.962 -16.256   4.406  0.00  0.00    +0.037 A 
ATOM      5  C   UNK A  0       23.803 -17.231   3.854  0.00  0.00    +0.013 A 
ATOM      6  C   UNK A  0       23.516 -18.599   4.002  0.00  0.00    +0.004 A 
ENDROOT
BRANCH   4   7
ATOM      7  C   UNK A  0       23.387 -14.813   4.334  0.00  0.00    +0.245 C 
ATOM      8  N   GLU A  1       24.532 -14.538   3.618  0.00  0.00    -0.298 N 
ATOM      9  H   GLU A  1       24.998 -15.312   3.167  0.00  0.00    +0.150 HD
ATOM     10  O   UNK A  0       22.694 -13.909   4.788  0.00  0.00    -0.270 OA
BRANCH   8  11
ATOM     11  CA  GLU A  1       25.082 -13.184   3.393  0.00  0.00    +0.182 C 
BRANCH  11  12
ATOM     12  C   GLU A  1       26.172 -13.071   2.300  0.00  0.00    +0.325 C 
ATOM     13  O   GLU A  1       26.760 -14.030   1.812  0.00  0.00    -0.249 OA
BRANCH  12  14
ATOM     14  OXT GLU A  1       26.544 -11.800   2.016  0.00  0.00    -0.479 OA
ATOM     15  HXT GLU A  1       25.776 -11.211   1.834  0.00  0.00    +0.295 HD
ENDBRANCH  12  14
ENDBRANCH  11  12
BRANCH  11  16
ATOM     16  CB  GLU A  1       25.547 -12.552   4.723  0.00  0.00    +0.045 C 
BRANCH  16  17
ATOM     17  CG  GLU A  1       26.656 -13.320   5.459  0.00  0.00    +0.123 C 
BRANCH  17  18
ATOM     18  CD  GLU A  1       28.037 -13.102   4.893  0.00  0.00    +0.305 C 
ATOM     19  OE1 GLU A  1       28.545 -13.758   3.997  0.00  0.00    -0.251 OA
BRANCH  18  20
ATOM     20  OE2 GLU A  1       28.763 -12.173   5.539  0.00  0.00    -0.481 OA
ATOM     21  HE2 GLU A  1       28.117 -11.758   6.151  0.00  0.00    +0.295 HD
ENDBRANCH  18  20
ENDBRANCH  17  18
ENDBRANCH  16  17
ENDBRANCH  11  16
ENDBRANCH   8  11
ENDBRANCH   4   7
BRANCH   1  22
ATOM     22  C   UNK A  0       22.005 -20.503   4.757  0.00  0.00    +0.040 C 
BRANCH  22  23
ATOM     23  C   UNK A  0       23.176 -21.441   4.440  0.00  0.00    +0.042 C 
BRANCH  23  34
ATOM     24  C   UNK A  0       28.062 -19.373   4.997  0.00  0.00    +0.195 C 
ATOM     25  N   UNK A  0       27.363 -19.431   3.809  0.00  0.00    -0.295 N 
ATOM     26  H   UNK A  0       27.750 -19.021   2.977  0.00  0.00    +0.172 HD
ATOM     27  C   UNK A  0       26.103 -19.978   3.680  0.00  0.00    +0.262 C 
ATOM     28  O   UNK A  0       25.502 -20.013   2.598  0.00  0.00    -0.267 OA
ATOM     29  C   UNK A  0       25.591 -20.526   4.909  0.00  0.00    +0.086 C 
ATOM     30  C   UNK A  0       26.395 -20.422   6.022  0.00  0.00    +0.147 C 
ATOM     31  N   UNK A  0       25.761 -21.033   7.061  0.00  0.00    -0.345 NA
ATOM     32  H   UNK A  0       26.134 -21.089   7.998  0.00  0.00    +0.167 HD
ATOM     33  C   UNK A  0       24.576 -21.570   6.613  0.00  0.00    +0.088 C 
ATOM     34  C   UNK A  0       24.391 -21.195   5.289  0.00  0.00    -0.015 C 
ATOM     35  N   UNK A  0       27.614 -19.850   6.124  0.00  0.00    -0.198 NA
BRANCH  24  36
ATOM     36  N   UNK A  0       29.287 -18.791   4.955  0.00  0.00    -0.329 NA
ATOM     37  H   UNK A  0       29.463 -18.067   5.639  0.00  0.00    +0.145 HD
ATOM     38  H   UNK A  0       29.519 -18.494   4.011  0.00  0.00    +0.145 HD
ENDBRANCH  24  36
ENDBRANCH  23  34
ENDBRANCH  22  23
ENDBRANCH   1  22
TORSDOF 12
ENDMDL
MODEL 4
REMARK VINA RESULT:      -1.6      2.341      6.722
REMARK  Name = *****
REMARK                            x       y       z     vdW  Elec       q    Type
REMARK                         _______ _______ _______ _____ _____    ______ ____
ROOT
ATOM      1  C   UNK A  0       23.281 -13.624   4.554  0.00  0.00    -0.047 A 
ATOM      2  C   UNK A  0       23.174 -14.216   3.287  0.00  0.00    +0.004 A 
ATOM      3  C   UNK A  0       22.877 -15.582   3.143  0.00  0.00    +0.013 A 
ATOM      4  C   UNK A  0       22.649 -16.385   4.269  0.00  0.00    +0.037 A 
ATOM      5  C   UNK A  0       22.691 -15.783   5.534  0.00  0.00    +0.013 A 
ATOM      6  C   UNK A  0       23.035 -14.427   5.677  0.00  0.00    +0.004 A 
ENDROOT
BRANCH   4   7
ATOM      7  C   UNK A  0       22.407 -17.869   4.186  0.00  0.00    +0.245 C 
ATOM      8  N   GLU A  1       23.509 -18.686   4.318  0.00  0.00    -0.298 N 
ATOM      9  H   GLU A  1       24.400 -18.244   4.490  0.00  0.00    +0.150 HD
ATOM     10  O   UNK A  0       21.277 -18.339   4.117  0.00  0.00    -0.270 OA
BRANCH   8  11
ATOM     11  CA  GLU A  1       23.469 -20.164   4.313  0.00  0.00    +0.182 C 
BRANCH  11  12
ATOM     12  C   GLU A  1       22.543 -20.818   5.368  0.00  0.00    +0.325 C 
ATOM     13  O   GLU A  1       22.844 -20.973   6.546  0.00  0.00    -0.249 OA
BRANCH  12  14
ATOM     14  OXT GLU A  1       21.409 -21.353   4.856  0.00  0.00    -0.479 OA
ATOM     15  HXT GLU A  1       20.669 -21.367   5.505  0.00  0.00    +0.295 HD
ENDBRANCH  12  14
ENDBRANCH  11  12
BRANCH  11  16
ATOM     16  CB  GLU A  1       24.895 -20.753   4.368  0.00  0.00    +0.045 C 
BRANCH  16  17
ATOM     17  CG  GLU A  1       26.021 -19.722   4.541  0.00  0.00    +0.123 C 
BRANCH  17  18
ATOM     18  CD  GLU A  1       27.006 -20.062   5.632  0.00  0.00    +0.305 C 
ATOM     19  OE1 GLU A  1       26.723 -20.257   6.804  0.00  0.00    -0.251 OA
BRANCH  18  20
ATOM     20  OE2 GLU A  1       28.294 -20.022   5.250  0.00  0.00    -0.481 OA
ATOM     21  HE2 GLU A  1       28.514 -20.963   5.073  0.00  0.00    +0.295 HD
ENDBRANCH  18  20
ENDBRANCH  17  18
ENDBRANCH  16  17
ENDBRANCH  11  16
ENDBRANCH   8  11
ENDBRANCH   4   7
BRANCH   1  22
ATOM     22  C   UNK A  0       23.593 -12.143   4.704  0.00  0.00    +0.040 C 
BRANCH  22  23
ATOM     23  C   UNK A  0       24.845 -11.687   3.944  0.00  0.00    +0.042 C 
BRANCH  23  34
ATOM     24  C   UNK A  0       27.984 -15.970   4.446  0.00  0.00    +0.195 C 
ATOM     25  N   UNK A  0       27.644 -15.120   5.477  0.00  0.00    -0.295 N 
ATOM     26  H   UNK A  0       27.952 -15.316   6.414  0.00  0.00    +0.172 HD
ATOM     27  C   UNK A  0       26.837 -14.010   5.329  0.00  0.00    +0.262 C 
ATOM     28  O   UNK A  0       26.550 -13.267   6.277  0.00  0.00    -0.267 OA
ATOM     29  C   UNK A  0       26.408 -13.795   3.971  0.00  0.00    +0.086 C 
ATOM     30  C   UNK A  0       26.833 -14.706   3.030  0.00  0.00    +0.147 C 
ATOM     31  N   UNK A  0       26.365 -14.308   1.814  0.00  0.00    -0.345 NA
ATOM     32  H   UNK A  0       26.527 -14.810   0.953  0.00  0.00    +0.167 HD
ATOM     33  C   UNK A  0       25.682 -13.123   1.961  0.00  0.00    +0.088 C 
ATOM     34  C   UNK A  0       25.610 -12.815   3.312  0.00  0.00    -0.015 C 
ATOM     35  N   UNK A  0       27.598 -15.804   3.213  0.00  0.00    -0.198 NA
BRANCH  24  36
ATOM     36  N   UNK A  0       28.778 -17.025   4.763  0.00  0.00    -0.329 NA
ATOM     37  H   UNK A  0       29.750 -16.951   4.493  0.00  0.00    +0.145 HD
ATOM     38  H   UNK A  0       28.360 -17.900   4.462  0.00  0.00    +0.145 HD
ENDBRANCH  24  36
ENDBRANCH  23  34
ENDBRANCH  22  23
ENDBRANCH   1  22
TORSDOF 12
ENDMDL
