MODEL 1
REMARK VINA RESULT:      -0.0      0.000      0.000
REMARK  Name = *****
REMARK                            x       y       z     vdW  Elec       q    Type
REMARK                         _______ _______ _______ _____ _____    ______ ____
ROOT
ATOM      1  C   LIG    1       21.953 -15.227   5.918  0.00  0.00    +0.044 C 
ATOM      2  C   LIG    1       22.914 -15.663   4.843  0.00  0.00    -0.050 C 
ATOM      3  C   LIG    1       23.079 -16.906   4.360  0.00  0.00    +0.003 C 
ENDROOT
BRANCH   2   4
ATOM      4  C   LIG    1       23.738 -14.596   4.304  0.00  0.00    +0.003 C 
ATOM      5  C   LIG    1       25.075 -14.576   4.421  0.00  0.00    +0.004 C 
BRANCH   5   6
ATOM      6  C   LIG    1       25.928 -13.544   3.847  0.00  0.00    -0.043 C 
ATOM      7  C   LIG    1       27.383 -13.497   4.381  0.00  0.00    -0.010 C 
ATOM      8  C   LIG    1       27.447 -13.501   5.929  0.00  0.00    +0.016 C 
ATOM      9  C   LIG    1       28.178 -14.723   3.873  0.00  0.00    +0.016 C 
ATOM     10  C   LIG    1       28.101 -12.199   3.924  0.00  0.00    +0.011 C 
ATOM     11  C   LIG    1       27.854 -11.892   2.458  0.00  0.00    +0.005 C 
ATOM     12  C   LIG    1       26.367 -11.686   2.210  0.00  0.00    +0.031 C 
ATOM     13  C   LIG    1       25.478 -12.717   2.869  0.00  0.00    -0.069 C 
ATOM     14  C   LIG    1       24.081 -12.707   2.286  0.00  0.00    +0.039 C 
ENDBRANCH   5   6
ENDBRANCH   2   4
BRANCH   3  15
ATOM     15  C   LIG    1       22.341 -18.075   4.757  0.00  0.00    +0.001 C 
ATOM     16  C   LIG    1       22.115 -19.099   3.920  0.00  0.00    +0.003 C 
BRANCH  16  17
ATOM     17  C   LIG    1       21.372 -20.282   4.295  0.00  0.00    -0.044 C 
ATOM     18  C   LIG    1       21.816 -21.246   5.128  0.00  0.00    +0.094 C 
ATOM     19  C   LIG    1       19.965 -20.384   3.744  0.00  0.00    +0.044 C 
BRANCH  18  20
ATOM     20  C   LIG    1       23.093 -21.471   5.834  0.00  0.00    +0.330 C 
ATOM     21  O   LIG    1       23.115 -21.571   7.062  0.00  0.00    -0.246 OA
BRANCH  20  22
ATOM     22  O   LIG    1       24.202 -21.572   5.097  0.00  0.00    -0.477 OA
ATOM     23  H   LIG    1       24.050 -21.553   4.136  0.00  0.00    +0.295 HD
ENDBRANCH  20  22
ENDBRANCH  18  20
ENDBRANCH  16  17
ENDBRANCH   3  15
TORSDOF 6
ENDMDL
