MODEL 1
REMARK VINA RESULT:      32.4      0.000      0.000
REMARK  Name = *****
REMARK                            x       y       z     vdW  Elec       q    Type
REMARK                         _______ _______ _______ _____ _____    ______ ____
ROOT
ATOM      1  C   LIG    1       27.496 -21.534   5.567  0.00  0.00    +0.183 C 
ATOM      2  C   LIG    1       26.523 -20.507   4.934  0.00  0.00    +0.008 C 
ATOM      3  C   LIG    1       27.114 -19.085   5.017  0.00  0.00    +0.015 C 
ATOM      4  C   LIG    1       25.237 -20.605   5.815  0.00  0.00    +0.002 C 
ATOM      5  C   LIG    1       23.998 -21.053   5.011  0.00  0.00    -0.003 C 
ATOM      6  C   LIG    1       23.766 -20.157   3.759  0.00  0.00    +0.002 C 
ATOM      7  C   LIG    1       25.043 -20.107   2.873  0.00  0.00    +0.005 C 
ATOM      8  C   LIG    1       23.005 -18.771   4.048  0.00  0.00    -0.007 C 
ATOM      9  C   LIG    1       21.722 -18.749   3.180  0.00  0.00    +0.016 C 
ATOM     10  C   LIG    1       22.587 -18.681   5.516  0.00  0.00    -0.062 C 
ATOM     11  C   LIG    1       22.727 -17.581   6.276  0.00  0.00    +0.024 C 
ATOM     12  C   LIG    1       23.151 -16.281   5.708  0.00  0.00    +0.059 C 
ATOM     13  N   LIG    1       23.334 -15.309   6.549  0.00  0.00    -0.185 NA
ATOM     14  C   LIG    1       23.292 -16.187   4.211  0.00  0.00    +0.058 C 
ATOM     15  C   LIG    1       21.977 -19.908   6.138  0.00  0.00    +0.031 C 
ATOM     16  C   LIG    1       23.822 -17.506   3.658  0.00  0.00    +0.017 C 
ATOM     17  C   LIG    1       22.722 -21.202   5.845  0.00  0.00    +0.008 C 
ATOM     18  C   LIG    1       25.592 -21.570   6.965  0.00  0.00    +0.008 C 
ATOM     19  C   LIG    1       26.243 -20.866   3.458  0.00  0.00    +0.011 C 
ATOM     20  C   LIG    1       27.106 -21.550   7.040  0.00  0.00    +0.045 C 
ENDROOT
BRANCH  13  21
ATOM     21  N   LIG    1       23.647 -14.069   6.096  0.00  0.00    -0.204 N 
ATOM     22  H   LIG    1       22.938 -13.377   5.871  0.00  0.00    +0.177 HD
ATOM     23  C   LIG    1       24.988 -13.763   5.896  0.00  0.00    +0.273 C 
ATOM     24  O   LIG    1       25.871 -14.608   6.059  0.00  0.00    -0.270 OA
BRANCH  23  25
ATOM     25  C   LIG    1       25.231 -12.290   5.366  0.00  0.00    +0.194 C 
BRANCH  25  26
ATOM     26  C   LIG    1       24.290 -11.962   4.193  0.00  0.00    -0.003 A 
ATOM     27  C   LIG    1       24.781 -11.786   2.886  0.00  0.00    +0.007 A 
ATOM     28  C   LIG    1       23.917 -11.541   1.813  0.00  0.00    +0.000 A 
ATOM     29  C   LIG    1       22.544 -11.447   2.025  0.00  0.00    +0.000 A 
ATOM     30  C   LIG    1       22.035 -11.589   3.311  0.00  0.00    +0.000 A 
ATOM     31  C   LIG    1       22.898 -11.840   4.384  0.00  0.00    +0.007 A 
ENDBRANCH  25  26
BRANCH  25  32
ATOM     32  C   LIG    1       26.715 -11.991   5.059  0.00  0.00    -0.003 A 
ATOM     33  C   LIG    1       27.653 -11.775   6.090  0.00  0.00    +0.007 A 
ATOM     34  C   LIG    1       29.014 -11.585   5.806  0.00  0.00    +0.000 A 
ATOM     35  C   LIG    1       29.470 -11.601   4.491  0.00  0.00    +0.000 A 
ATOM     36  C   LIG    1       28.561 -11.763   3.457  0.00  0.00    +0.000 A 
ATOM     37  C   LIG    1       27.204 -11.925   3.741  0.00  0.00    +0.007 A 
ENDBRANCH  25  32
BRANCH  25  38
ATOM     38  O   LIG    1       24.817 -11.450   6.483  0.00  0.00    -0.371 OA
ATOM     39  H   LIG    1       24.415 -12.058   7.129  0.00  0.00    +0.212 HD
ENDBRANCH  25  38
ENDBRANCH  23  25
ENDBRANCH  13  21
BRANCH   1  40
ATOM     40  O   LIG    1       28.864 -21.153   5.383  0.00  0.00    -0.461 OA
BRANCH  40  41
ATOM     41  C   LIG    1       29.182 -19.917   5.863  0.00  0.00    +0.307 C 
ATOM     42  O   LIG    1       29.428 -19.672   7.043  0.00  0.00    -0.251 OA
BRANCH  41  43
ATOM     43  C   LIG    1       29.193 -18.915   4.752  0.00  0.00    +0.120 C 
BRANCH  43  44
ATOM     44  C   LIG    1       28.969 -17.511   5.311  0.00  0.00    +0.011 C 
BRANCH  44  45
ATOM     45  C   LIG    1       27.530 -17.050   5.121  0.00  0.00    +0.000 C 
BRANCH  45  46
ATOM     46  C   LIG    1       27.134 -17.092   3.645  0.00  0.00    -0.000 C 
BRANCH  46  48
ATOM     47  C   LIG    1       27.618 -14.604   3.824  0.00  0.00    +0.004 C 
ATOM     48  C   LIG    1       26.887 -15.701   3.065  0.00  0.00    -0.003 C 
ENDBRANCH  46  48
ENDBRANCH  45  46
ENDBRANCH  44  45
ENDBRANCH  43  44
ENDBRANCH  41  43
ENDBRANCH  40  41
ENDBRANCH   1  40
TORSDOF 12
ENDMDL
