MODEL 1
REMARK VINA RESULT:      -7.0      0.000      0.000
REMARK  Name = *****
REMARK                            x       y       z     vdW  Elec       q    Type
REMARK                         _______ _______ _______ _____ _____    ______ ____
ROOT
ATOM      1  C   LIG    1       24.444 -21.325   6.029  0.00  0.00    +0.126 C 
ATOM      2  C   LIG    1       24.513 -22.139   4.733  0.00  0.00    +0.236 C 
ATOM      3  O   LIG    1       24.402 -21.658   3.609  0.00  0.00    -0.274 OA
ATOM      4  N   LIG    1       24.782 -23.472   4.882  0.00  0.00    -0.239 N 
ATOM      5  H   LIG    1       24.845 -23.999   4.022  0.00  0.00    +0.159 HD
ATOM      6  C   LIG    1       24.401 -24.201   5.964  0.00  0.00    +0.312 C 
ATOM      7  O   LIG    1       24.251 -25.417   5.895  0.00  0.00    -0.252 OA
ATOM      8  N   LIG    1       24.089 -23.512   7.092  0.00  0.00    -0.239 N 
ATOM      9  H   LIG    1       23.655 -24.066   7.820  0.00  0.00    +0.159 HD
ATOM     10  C   LIG    1       23.771 -22.181   7.105  0.00  0.00    +0.236 C 
ATOM     11  O   LIG    1       23.036 -21.735   7.982  0.00  0.00    -0.274 OA
ENDROOT
BRANCH   1  12
ATOM     12  C   LIG    1       25.935 -21.047   6.501  0.00  0.00    +0.010 C 
ATOM     13  C   LIG    1       26.011 -20.499   7.939  0.00  0.00    +0.009 C 
BRANCH  12  15
ATOM     14  C   LIG    1       28.179 -19.929   5.903  0.00  0.00    +0.004 C 
ATOM     15  C   LIG    1       26.708 -20.106   5.540  0.00  0.00    +0.001 C 
ENDBRANCH  12  15
ENDBRANCH   1  12
BRANCH   1  16
ATOM     16  C   LIG    1       23.652 -20.010   5.802  0.00  0.00    +0.022 C 
ATOM     17  C   LIG    1       22.311 -20.175   5.084  0.00  0.00    +0.005 C 
ENDBRANCH   1  16
TORSDOF 3
ENDMDL
MODEL 2
REMARK VINA RESULT:      -6.8      1.655      3.250
REMARK  Name = *****
REMARK                            x       y       z     vdW  Elec       q    Type
REMARK                         _______ _______ _______ _____ _____    ______ ____
ROOT
ATOM      1  C   LIG    1       24.592 -21.775   6.626  0.00  0.00    +0.126 C 
ATOM      2  C   LIG    1       23.335 -22.436   7.199  0.00  0.00    +0.236 C 
ATOM      3  O   LIG    1       22.557 -21.886   7.974  0.00  0.00    -0.274 OA
ATOM      4  N   LIG    1       23.066 -23.697   6.743  0.00  0.00    -0.239 N 
ATOM      5  H   LIG    1       22.224 -24.120   7.111  0.00  0.00    +0.159 HD
ATOM      6  C   LIG    1       24.025 -24.583   6.367  0.00  0.00    +0.312 C 
ATOM      7  O   LIG    1       23.822 -25.793   6.389  0.00  0.00    -0.252 OA
ATOM      8  N   LIG    1       25.250 -24.076   6.072  0.00  0.00    -0.239 N 
ATOM      9  H   LIG    1       25.979 -24.770   5.958  0.00  0.00    +0.159 HD
ATOM     10  C   LIG    1       25.679 -22.842   6.478  0.00  0.00    +0.236 C 
ATOM     11  O   LIG    1       26.878 -22.633   6.644  0.00  0.00    -0.274 OA
ENDROOT
BRANCH   1  12
ATOM     12  C   LIG    1       24.235 -21.250   5.170  0.00  0.00    +0.010 C 
ATOM     13  C   LIG    1       25.254 -20.223   4.641  0.00  0.00    +0.009 C 
BRANCH  12  15
ATOM     14  C   LIG    1       22.765 -19.192   4.673  0.00  0.00    +0.004 C 
ATOM     15  C   LIG    1       22.802 -20.665   5.072  0.00  0.00    +0.001 C 
ENDBRANCH  12  15
ENDBRANCH   1  12
BRANCH   1  16
ATOM     16  C   LIG    1       25.073 -20.628   7.554  0.00  0.00    +0.022 C 
ATOM     17  C   LIG    1       25.799 -21.081   8.822  0.00  0.00    +0.005 C 
ENDBRANCH   1  16
TORSDOF 3
ENDMDL
MODEL 3
REMARK VINA RESULT:      -6.8      2.139      3.861
REMARK  Name = *****
REMARK                            x       y       z     vdW  Elec       q    Type
REMARK                         _______ _______ _______ _____ _____    ______ ____
ROOT
ATOM      1  C   LIG    1       24.989 -21.890   6.892  0.00  0.00    +0.126 C 
ATOM      2  C   LIG    1       25.798 -21.035   5.912  0.00  0.00    +0.236 C 
ATOM      3  O   LIG    1       27.001 -20.811   6.021  0.00  0.00    -0.274 OA
ATOM      4  N   LIG    1       25.111 -20.565   4.826  0.00  0.00    -0.239 N 
ATOM      5  H   LIG    1       25.656 -20.018   4.174  0.00  0.00    +0.159 HD
ATOM      6  C   LIG    1       23.786 -20.266   4.845  0.00  0.00    +0.312 C 
ATOM      7  O   LIG    1       23.300 -19.464   4.053  0.00  0.00    -0.252 OA
ATOM      8  N   LIG    1       23.046 -20.809   5.847  0.00  0.00    -0.239 N 
ATOM      9  H   LIG    1       22.108 -20.438   5.928  0.00  0.00    +0.159 HD
ATOM     10  C   LIG    1       23.582 -21.298   7.006  0.00  0.00    +0.236 C 
ATOM     11  O   LIG    1       22.915 -21.297   8.038  0.00  0.00    -0.274 OA
ENDROOT
BRANCH   1  12
ATOM     12  C   LIG    1       24.848 -23.340   6.261  0.00  0.00    +0.010 C 
ATOM     13  C   LIG    1       23.532 -24.037   6.657  0.00  0.00    +0.009 C 
BRANCH  12  15
ATOM     14  C   LIG    1       25.692 -25.746   6.643  0.00  0.00    +0.004 C 
ATOM     15  C   LIG    1       26.050 -24.264   6.592  0.00  0.00    +0.001 C 
ENDBRANCH  12  15
ENDBRANCH   1  12
BRANCH   1  16
ATOM     16  C   LIG    1       25.681 -21.926   8.281  0.00  0.00    +0.022 C 
ATOM     17  C   LIG    1       26.011 -20.557   8.877  0.00  0.00    +0.005 C 
ENDBRANCH   1  16
TORSDOF 3
ENDMDL
MODEL 4
REMARK VINA RESULT:      -6.6      2.426      4.346
REMARK  Name = *****
REMARK                            x       y       z     vdW  Elec       q    Type
REMARK                         _______ _______ _______ _____ _____    ______ ____
ROOT
ATOM      1  C   LIG    1       24.979 -20.918   6.355  0.00  0.00    +0.126 C 
ATOM      2  C   LIG    1       25.869 -20.588   7.556  0.00  0.00    +0.236 C 
ATOM      3  O   LIG    1       25.454 -20.437   8.702  0.00  0.00    -0.274 OA
ATOM      4  N   LIG    1       27.212 -20.530   7.303  0.00  0.00    -0.239 N 
ATOM      5  H   LIG    1       27.795 -20.330   8.105  0.00  0.00    +0.159 HD
ATOM      6  C   LIG    1       27.738 -20.141   6.112  0.00  0.00    +0.312 C 
ATOM      7  O   LIG    1       28.873 -19.680   6.033  0.00  0.00    -0.252 OA
ATOM      8  N   LIG    1       26.915 -20.183   5.032  0.00  0.00    -0.239 N 
ATOM      9  H   LIG    1       27.283 -19.736   4.202  0.00  0.00    +0.159 HD
ATOM     10  C   LIG    1       25.550 -20.218   5.119  0.00  0.00    +0.236 C 
ATOM     11  O   LIG    1       24.866 -19.757   4.210  0.00  0.00    -0.274 OA
ENDROOT
BRANCH   1  12
ATOM     12  C   LIG    1       25.074 -22.484   6.104  0.00  0.00    +0.010 C 
ATOM     13  C   LIG    1       24.653 -22.884   4.677  0.00  0.00    +0.009 C 
BRANCH  12  15
ATOM     14  C   LIG    1       23.607 -24.555   6.553  0.00  0.00    +0.004 C 
ATOM     15  C   LIG    1       24.269 -23.313   7.140  0.00  0.00    +0.001 C 
ENDBRANCH  12  15
ENDBRANCH   1  12
BRANCH   1  16
ATOM     16  C   LIG    1       23.520 -20.461   6.617  0.00  0.00    +0.022 C 
ATOM     17  C   LIG    1       22.570 -20.603   5.426  0.00  0.00    +0.005 C 
ENDBRANCH   1  16
TORSDOF 3
ENDMDL
MODEL 5
REMARK VINA RESULT:      -6.6      2.108      4.171
REMARK  Name = *****
REMARK                            x       y       z     vdW  Elec       q    Type
REMARK                         _______ _______ _______ _____ _____    ______ ____
ROOT
ATOM      1  C   LIG    1       24.375 -21.527   6.024  0.00  0.00    +0.126 C 
ATOM      2  C   LIG    1       24.123 -21.296   7.517  0.00  0.00    +0.236 C 
ATOM      3  O   LIG    1       23.010 -21.284   8.036  0.00  0.00    -0.274 OA
ATOM      4  N   LIG    1       25.240 -21.165   8.295  0.00  0.00    -0.239 N 
ATOM      5  H   LIG    1       25.067 -21.032   9.282  0.00  0.00    +0.159 HD
ATOM      6  C   LIG    1       26.409 -20.633   7.851  0.00  0.00    +0.312 C 
ATOM      7  O   LIG    1       27.217 -20.127   8.624  0.00  0.00    -0.252 OA
ATOM      8  N   LIG    1       26.593 -20.587   6.505  0.00  0.00    -0.239 N 
ATOM      9  H   LIG    1       27.391 -20.041   6.206  0.00  0.00    +0.159 HD
ATOM     10  C   LIG    1       25.575 -20.678   5.596  0.00  0.00    +0.236 C 
ATOM     11  O   LIG    1       25.687 -20.146   4.495  0.00  0.00    -0.274 OA
ENDROOT
BRANCH   1  12
ATOM     12  C   LIG    1       24.775 -23.052   5.835  0.00  0.00    +0.010 C 
ATOM     13  C   LIG    1       24.715 -23.505   4.364  0.00  0.00    +0.009 C 
BRANCH  12  15
ATOM     14  C   LIG    1       24.014 -25.474   6.284  0.00  0.00    +0.004 C 
ATOM     15  C   LIG    1       23.931 -24.012   6.714  0.00  0.00    +0.001 C 
ENDBRANCH  12  15
ENDBRANCH   1  12
BRANCH   1  16
ATOM     16  C   LIG    1       23.117 -21.150   5.196  0.00  0.00    +0.022 C 
ATOM     17  C   LIG    1       22.662 -19.696   5.332  0.00  0.00    +0.005 C 
ENDBRANCH   1  16
TORSDOF 3
ENDMDL
MODEL 6
REMARK VINA RESULT:      -6.1      2.099      3.132
REMARK  Name = *****
REMARK                            x       y       z     vdW  Elec       q    Type
REMARK                         _______ _______ _______ _____ _____    ______ ____
ROOT
ATOM      1  C   LIG    1       23.911 -21.503   6.233  0.00  0.00    +0.126 C 
ATOM      2  C   LIG    1       25.164 -22.310   5.882  0.00  0.00    +0.236 C 
ATOM      3  O   LIG    1       25.177 -23.260   5.103  0.00  0.00    -0.274 OA
ATOM      4  N   LIG    1       26.331 -21.872   6.444  0.00  0.00    -0.239 N 
ATOM      5  H   LIG    1       27.157 -22.398   6.192  0.00  0.00    +0.159 HD
ATOM      6  C   LIG    1       26.401 -21.257   7.654  0.00  0.00    +0.312 C 
ATOM      7  O   LIG    1       27.430 -21.273   8.321  0.00  0.00    -0.252 OA
ATOM      8  N   LIG    1       25.250 -20.721   8.139  0.00  0.00    -0.239 N 
ATOM      9  H   LIG    1       25.299 -20.421   9.105  0.00  0.00    +0.159 HD
ATOM     10  C   LIG    1       24.004 -21.075   7.700  0.00  0.00    +0.236 C 
ATOM     11  O   LIG    1       23.039 -20.981   8.454  0.00  0.00    -0.274 OA
ENDROOT
BRANCH   1  12
ATOM     12  C   LIG    1       23.927 -20.184   5.348  0.00  0.00    +0.010 C 
ATOM     13  C   LIG    1       22.532 -19.546   5.206  0.00  0.00    +0.009 C 
BRANCH  12  15
ATOM     14  C   LIG    1       25.268 -19.181   3.389  0.00  0.00    +0.004 C 
ATOM     15  C   LIG    1       24.548 -20.406   3.944  0.00  0.00    +0.001 C 
ENDBRANCH  12  15
ENDBRANCH   1  12
BRANCH   1  16
ATOM     16  C   LIG    1       22.633 -22.349   5.990  0.00  0.00    +0.022 C 
ATOM     17  C   LIG    1       22.588 -23.685   6.734  0.00  0.00    +0.005 C 
ENDBRANCH   1  16
TORSDOF 3
ENDMDL
MODEL 7
REMARK VINA RESULT:      -5.9      1.829      3.726
REMARK  Name = *****
REMARK                            x       y       z     vdW  Elec       q    Type
REMARK                         _______ _______ _______ _____ _____    ______ ____
ROOT
ATOM      1  C   LIG    1       24.602 -21.650   6.339  0.00  0.00    +0.126 C 
ATOM      2  C   LIG    1       23.393 -21.037   7.052  0.00  0.00    +0.236 C 
ATOM      3  O   LIG    1       22.964 -21.419   8.137  0.00  0.00    -0.274 OA
ATOM      4  N   LIG    1       22.825 -19.956   6.436  0.00  0.00    -0.239 N 
ATOM      5  H   LIG    1       22.040 -19.544   6.921  0.00  0.00    +0.159 HD
ATOM      6  C   LIG    1       22.812 -19.777   5.089  0.00  0.00    +0.312 C 
ATOM      7  O   LIG    1       21.960 -19.083   4.543  0.00  0.00    -0.252 OA
ATOM      8  N   LIG    1       23.717 -20.487   4.365  0.00  0.00    -0.239 N 
ATOM      9  H   LIG    1       23.573 -20.458   3.363  0.00  0.00    +0.159 HD
ATOM     10  C   LIG    1       24.351 -21.606   4.830  0.00  0.00    +0.236 C 
ATOM     11  O   LIG    1       24.731 -22.468   4.042  0.00  0.00    -0.274 OA
ENDROOT
BRANCH   1  12
ATOM     12  C   LIG    1       25.857 -20.726   6.643  0.00  0.00    +0.010 C 
ATOM     13  C   LIG    1       26.562 -20.240   5.362  0.00  0.00    +0.009 C 
BRANCH  12  15
ATOM     14  C   LIG    1       28.340 -21.174   7.171  0.00  0.00    +0.004 C 
ATOM     15  C   LIG    1       26.889 -21.398   7.587  0.00  0.00    +0.001 C 
ENDBRANCH  12  15
ENDBRANCH   1  12
BRANCH   1  16
ATOM     16  C   LIG    1       24.829 -23.111   6.814  0.00  0.00    +0.022 C 
ATOM     17  C   LIG    1       23.626 -24.041   6.647  0.00  0.00    +0.005 C 
ENDBRANCH   1  16
TORSDOF 3
ENDMDL
MODEL 8
REMARK VINA RESULT:      -5.9      2.159      3.832
REMARK  Name = *****
REMARK                            x       y       z     vdW  Elec       q    Type
REMARK                         _______ _______ _______ _____ _____    ______ ____
ROOT
ATOM      1  C   LIG    1       24.751 -21.688   5.977  0.00  0.00    +0.126 C 
ATOM      2  C   LIG    1       25.159 -21.182   4.590  0.00  0.00    +0.236 C 
ATOM      3  O   LIG    1       24.665 -21.577   3.538  0.00  0.00    -0.274 OA
ATOM      4  N   LIG    1       26.090 -20.180   4.574  0.00  0.00    -0.239 N 
ATOM      5  H   LIG    1       26.341 -19.837   3.656  0.00  0.00    +0.159 HD
ATOM      6  C   LIG    1       27.062 -20.039   5.513  0.00  0.00    +0.312 C 
ATOM      7  O   LIG    1       28.110 -19.450   5.267  0.00  0.00    -0.252 OA
ATOM      8  N   LIG    1       26.868 -20.673   6.699  0.00  0.00    -0.239 N 
ATOM      9  H   LIG    1       27.676 -20.685   7.309  0.00  0.00    +0.159 HD
ATOM     10  C   LIG    1       25.993 -21.710   6.872  0.00  0.00    +0.236 C 
ATOM     11  O   LIG    1       26.200 -22.549   7.744  0.00  0.00    -0.274 OA
ENDROOT
BRANCH   1  12
ATOM     12  C   LIG    1       23.735 -20.634   6.593  0.00  0.00    +0.010 C 
ATOM     13  C   LIG    1       23.284 -21.005   8.018  0.00  0.00    +0.009 C 
BRANCH  12  15
ATOM     14  C   LIG    1       22.486 -19.037   5.001  0.00  0.00    +0.004 C 
ATOM     15  C   LIG    1       22.492 -20.396   5.695  0.00  0.00    +0.001 C 
ENDBRANCH  12  15
ENDBRANCH   1  12
BRANCH   1  16
ATOM     16  C   LIG    1       24.126 -23.105   5.875  0.00  0.00    +0.022 C 
ATOM     17  C   LIG    1       25.091 -24.211   5.443  0.00  0.00    +0.005 C 
ENDBRANCH   1  16
TORSDOF 3
ENDMDL
MODEL 9
REMARK VINA RESULT:      -5.9      2.206      3.980
REMARK  Name = *****
REMARK                            x       y       z     vdW  Elec       q    Type
REMARK                         _______ _______ _______ _____ _____    ______ ____
ROOT
ATOM      1  C   LIG    1       24.989 -22.241   6.235  0.00  0.00    +0.126 C 
ATOM      2  C   LIG    1       25.718 -20.965   5.803  0.00  0.00    +0.236 C 
ATOM      3  O   LIG    1       25.722 -20.527   4.656  0.00  0.00    -0.274 OA
ATOM      4  N   LIG    1       26.338 -20.267   6.802  0.00  0.00    -0.239 N 
ATOM      5  H   LIG    1       26.801 -19.416   6.513  0.00  0.00    +0.159 HD
ATOM      6  C   LIG    1       26.866 -20.848   7.912  0.00  0.00    +0.312 C 
ATOM      7  O   LIG    1       27.767 -20.310   8.548  0.00  0.00    -0.252 OA
ATOM      8  N   LIG    1       26.431 -22.097   8.219  0.00  0.00    -0.239 N 
ATOM      9  H   LIG    1       26.959 -22.562   8.948  0.00  0.00    +0.159 HD
ATOM     10  C   LIG    1       25.816 -22.929   7.324  0.00  0.00    +0.236 C 
ATOM     11  O   LIG    1       25.901 -24.146   7.460  0.00  0.00    -0.274 OA
ENDROOT
BRANCH   1  12
ATOM     12  C   LIG    1       23.607 -21.805   6.887  0.00  0.00    +0.010 C 
ATOM     13  C   LIG    1       22.556 -22.930   6.861  0.00  0.00    +0.009 C 
BRANCH  12  15
ATOM     14  C   LIG    1       22.149 -20.784   5.023  0.00  0.00    +0.004 C 
ATOM     15  C   LIG    1       23.016 -20.520   6.250  0.00  0.00    +0.001 C 
ENDBRANCH  12  15
ENDBRANCH   1  12
BRANCH   1  16
ATOM     16  C   LIG    1       24.785 -23.187   5.023  0.00  0.00    +0.022 C 
ATOM     17  C   LIG    1       25.178 -24.646   5.265  0.00  0.00    +0.005 C 
ENDBRANCH   1  16
TORSDOF 3
ENDMDL
