MODEL 1
REMARK VINA RESULT:       2.8      0.000      0.000
REMARK  Name = *****
REMARK                            x       y       z     vdW  Elec       q    Type
REMARK                         _______ _______ _______ _____ _____    ______ ____
ROOT
ATOM      1  C   LIG    1       25.412 -14.472   5.346  0.00  0.00    +0.019 C 
ATOM      2  C   LIG    1       25.353 -14.639   3.821  0.00  0.00    +0.029 C 
ATOM      3  C   LIG    1       25.906 -13.416   3.126  0.00  0.00    +0.140 C 
ATOM      4  O   LIG    1       27.054 -13.306   2.713  0.00  0.00    -0.297 OA
ATOM      5  C   LIG    1       24.841 -12.378   2.940  0.00  0.00    +0.075 C 
ATOM      6  C   LIG    1       23.554 -13.126   3.424  0.00  0.00    +0.012 C 
ATOM      7  C   LIG    1       23.913 -14.631   3.275  0.00  0.00    +0.006 C 
ATOM      8  C   LIG    1       23.072 -15.933   3.653  0.00  0.00    -0.003 C 
ATOM      9  C   LIG    1       22.386 -16.131   5.034  0.00  0.00    +0.008 C 
ATOM     10  C   LIG    1       22.634 -17.446   5.865  0.00  0.00    +0.035 C 
ATOM     11  C   LIG    1       23.189 -18.679   5.174  0.00  0.00    -0.018 C 
ATOM     12  C   LIG    1       23.344 -18.592   3.670  0.00  0.00    -0.004 C 
ATOM     13  C   LIG    1       21.927 -18.862   3.091  0.00  0.00    +0.016 C 
ATOM     14  C   LIG    1       24.298 -19.739   3.166  0.00  0.00    +0.019 C 
ATOM     15  C   LIG    1       25.438 -20.062   4.144  0.00  0.00    +0.083 C 
ATOM     16  C   LIG    1       24.763 -20.593   5.363  0.00  0.00    +0.197 C 
ATOM     17  O   LIG    1       25.129 -21.571   5.960  0.00  0.00    -0.289 OA
ATOM     18  C   LIG    1       23.551 -19.804   5.829  0.00  0.00    +0.159 C 
ATOM     19  C   LIG    1       23.902 -17.197   3.227  0.00  0.00    +0.002 C 
ATOM     20  C   LIG    1       25.366 -17.093   3.679  0.00  0.00    +0.005 C 
ATOM     21  C   LIG    1       26.093 -15.841   3.311  0.00  0.00    +0.015 C 
ENDROOT
BRANCH  18  22
ATOM     22  O   LIG    1       22.584 -20.608   6.415  0.00  0.00    -0.503 OA
ATOM     23  H   LIG    1       22.858 -21.529   6.185  0.00  0.00    +0.292 HD
ENDBRANCH  18  22
TORSDOF 1
ENDMDL
MODEL 2
REMARK VINA RESULT:       3.0      1.280      1.594
REMARK  Name = *****
REMARK                            x       y       z     vdW  Elec       q    Type
REMARK                         _______ _______ _______ _____ _____    ______ ____
ROOT
ATOM      1  C   LIG    1       25.884 -14.520   5.273  0.00  0.00    +0.019 C 
ATOM      2  C   LIG    1       26.628 -14.929   3.993  0.00  0.00    +0.029 C 
ATOM      3  C   LIG    1       27.451 -13.779   3.460  0.00  0.00    +0.140 C 
ATOM      4  O   LIG    1       28.644 -13.613   3.676  0.00  0.00    -0.297 OA
ATOM      5  C   LIG    1       26.628 -12.902   2.566  0.00  0.00    +0.075 C 
ATOM      6  C   LIG    1       25.283 -13.696   2.458  0.00  0.00    +0.012 C 
ATOM      7  C   LIG    1       25.682 -15.160   2.801  0.00  0.00    +0.006 C 
ATOM      8  C   LIG    1       24.779 -16.468   2.937  0.00  0.00    -0.003 C 
ATOM      9  C   LIG    1       23.477 -16.519   3.784  0.00  0.00    +0.008 C 
ATOM     10  C   LIG    1       23.269 -17.654   4.858  0.00  0.00    +0.035 C 
ATOM     11  C   LIG    1       24.114 -18.913   4.793  0.00  0.00    -0.018 C 
ATOM     12  C   LIG    1       25.027 -19.048   3.592  0.00  0.00    -0.004 C 
ATOM     13  C   LIG    1       24.121 -19.554   2.436  0.00  0.00    +0.016 C 
ATOM     14  C   LIG    1       26.115 -20.152   3.871  0.00  0.00    +0.019 C 
ATOM     15  C   LIG    1       26.583 -20.194   5.334  0.00  0.00    +0.083 C 
ATOM     16  C   LIG    1       25.378 -20.596   6.115  0.00  0.00    +0.197 C 
ATOM     17  O   LIG    1       25.390 -21.424   6.987  0.00  0.00    -0.289 OA
ATOM     18  C   LIG    1       24.093 -19.877   5.739  0.00  0.00    +0.159 C 
ATOM     19  C   LIG    1       25.721 -17.688   3.240  0.00  0.00    +0.002 C 
ATOM     20  C   LIG    1       26.736 -17.359   4.346  0.00  0.00    +0.005 C 
ATOM     21  C   LIG    1       27.537 -16.111   4.169  0.00  0.00    +0.015 C 
ENDROOT
BRANCH  18  22
ATOM     22  O   LIG    1       22.970 -20.677   5.892  0.00  0.00    -0.503 OA
ATOM     23  H   LIG    1       23.322 -21.600   5.880  0.00  0.00    +0.292 HD
ENDBRANCH  18  22
TORSDOF 1
ENDMDL
MODEL 3
REMARK VINA RESULT:       3.8      1.707      6.261
REMARK  Name = *****
REMARK                            x       y       z     vdW  Elec       q    Type
REMARK                         _______ _______ _______ _____ _____    ______ ____
ROOT
ATOM      1  C   LIG    1       24.829 -18.904   5.660  0.00  0.00    +0.019 C 
ATOM      2  C   LIG    1       24.090 -18.743   4.324  0.00  0.00    +0.029 C 
ATOM      3  C   LIG    1       23.285 -19.982   4.005  0.00  0.00    +0.140 C 
ATOM      4  O   LIG    1       22.092 -20.121   4.241  0.00  0.00    -0.297 OA
ATOM      5  C   LIG    1       24.125 -20.996   3.288  0.00  0.00    +0.075 C 
ATOM      6  C   LIG    1       25.460 -20.216   3.045  0.00  0.00    +0.012 C 
ATOM      7  C   LIG    1       25.042 -18.721   3.114  0.00  0.00    +0.006 C 
ATOM      8  C   LIG    1       25.928 -17.397   3.015  0.00  0.00    -0.003 C 
ATOM      9  C   LIG    1       27.223 -17.177   3.846  0.00  0.00    +0.008 C 
ATOM     10  C   LIG    1       27.410 -15.864   4.697  0.00  0.00    +0.035 C 
ATOM     11  C   LIG    1       26.551 -14.648   4.400  0.00  0.00    -0.018 C 
ATOM     12  C   LIG    1       25.645 -14.745   3.191  0.00  0.00    -0.004 C 
ATOM     13  C   LIG    1       26.554 -14.445   1.966  0.00  0.00    +0.016 C 
ATOM     14  C   LIG    1       24.542 -13.623   3.259  0.00  0.00    +0.019 C 
ATOM     15  C   LIG    1       24.063 -13.322   4.689  0.00  0.00    +0.083 C 
ATOM     16  C   LIG    1       25.258 -12.770   5.389  0.00  0.00    +0.197 C 
ATOM     17  O   LIG    1       25.230 -11.798   6.097  0.00  0.00    -0.289 OA
ATOM     18  C   LIG    1       26.553 -13.529   5.157  0.00  0.00    +0.159 C 
ATOM     19  C   LIG    1       24.970 -16.155   3.088  0.00  0.00    +0.002 C 
ATOM     20  C   LIG    1       23.951 -16.291   4.230  0.00  0.00    +0.005 C 
ATOM     21  C   LIG    1       23.166 -17.561   4.278  0.00  0.00    +0.015 C 
ENDROOT
BRANCH  18  22
ATOM     22  O   LIG    1       27.666 -12.699   5.168  0.00  0.00    -0.503 OA
ATOM     23  H   LIG    1       27.587 -12.192   6.012  0.00  0.00    +0.292 HD
ENDBRANCH  18  22
TORSDOF 1
ENDMDL
