MODEL 1
REMARK VINA RESULT:      -7.9      0.000      0.000
REMARK  Name = *****
REMARK                            x       y       z     vdW  Elec       q    Type
REMARK                         _______ _______ _______ _____ _____    ______ ____
ROOT
ATOM      1  C   LIG    1       25.245 -23.007   6.237  0.00  0.00    +0.170 C 
ENDROOT
BRANCH   1   2
ATOM      2  C   LIG    1       24.508 -21.765   5.743  0.00  0.00    +0.001 A 
ATOM      3  C   LIG    1       23.515 -21.121   6.509  0.00  0.00    +0.048 A 
ATOM      4 CL   LIG    1       23.132 -21.626   8.118  0.00  0.00    -0.083 Cl
ATOM      5  C   LIG    1       22.780 -20.052   5.984  0.00  0.00    +0.040 A 
ATOM      6  C   LIG    1       23.025 -19.617   4.686  0.00  0.00    +0.042 A 
ATOM      7 CL   LIG    1       22.100 -18.327   4.025  0.00  0.00    -0.084 Cl
ATOM      8  C   LIG    1       24.006 -20.227   3.915  0.00  0.00    +0.020 A 
ATOM      9  C   LIG    1       24.740 -21.290   4.440  0.00  0.00    +0.009 A 
ENDBRANCH   1   2
BRANCH   1  10
ATOM     10  O   LIG    1       26.647 -22.794   6.486  0.00  0.00    -0.365 OA
BRANCH  10  11
ATOM     11  C   LIG    1       26.941 -21.857   7.518  0.00  0.00    +0.198 C 
BRANCH  11  14
ATOM     12 CL   LIG    1       30.011 -21.636   8.747  0.00  0.00    -0.075 Cl
ATOM     13  C   LIG    1       29.249 -20.731   7.495  0.00  0.00    +0.083 A 
ATOM     14  C   LIG    1       27.953 -20.856   7.041  0.00  0.00    +0.004 A 
ATOM     15  C   LIG    1       27.704 -19.870   6.021  0.00  0.00    +0.015 A 
ATOM     16  C   LIG    1       28.823 -19.125   5.709  0.00  0.00    +0.047 A 
ATOM     17  S   LIG    1       30.161 -19.556   6.683  0.00  0.00    -0.085 S 
ENDBRANCH  11  14
ENDBRANCH  10  11
ENDBRANCH   1  10
BRANCH   1  18
ATOM     18  C   LIG    1       25.119 -24.165   5.215  0.00  0.00    +0.159 C 
BRANCH  18  19
ATOM     19  N   LIG    1       25.132 -25.501   5.793  0.00  0.00    -0.334 N 
ATOM     20  C   LIG    1       24.114 -26.409   5.735  0.00  0.00    +0.199 A 
ATOM     21  N   LIG    1       24.442 -27.538   6.334  0.00  0.00    -0.244 NA
ATOM     22  C   LIG    1       25.710 -27.337   6.808  0.00  0.00    +0.130 A 
ATOM     23  C   LIG    1       26.151 -26.070   6.507  0.00  0.00    +0.107 A 
ENDBRANCH  18  19
ENDBRANCH   1  18
TORSDOF 6
ENDMDL
MODEL 2
REMARK VINA RESULT:      -7.8      1.100      1.401
REMARK  Name = *****
REMARK                            x       y       z     vdW  Elec       q    Type
REMARK                         _______ _______ _______ _____ _____    ______ ____
ROOT
ATOM      1  C   LIG    1       25.177 -22.977   6.218  0.00  0.00    +0.170 C 
ENDROOT
BRANCH   1   2
ATOM      2  C   LIG    1       24.439 -21.740   5.716  0.00  0.00    +0.001 A 
ATOM      3  C   LIG    1       23.492 -21.053   6.503  0.00  0.00    +0.048 A 
ATOM      4 CL   LIG    1       23.175 -21.496   8.144  0.00  0.00    -0.083 Cl
ATOM      5  C   LIG    1       22.752 -19.988   5.975  0.00  0.00    +0.040 A 
ATOM      6  C   LIG    1       22.945 -19.601   4.654  0.00  0.00    +0.042 A 
ATOM      7 CL   LIG    1       22.012 -18.317   3.991  0.00  0.00    -0.084 Cl
ATOM      8  C   LIG    1       23.880 -20.254   3.860  0.00  0.00    +0.020 A 
ATOM      9  C   LIG    1       24.620 -21.312   4.388  0.00  0.00    +0.009 A 
ENDBRANCH   1   2
BRANCH   1  10
ATOM     10  O   LIG    1       26.563 -22.745   6.532  0.00  0.00    -0.365 OA
BRANCH  10  11
ATOM     11  C   LIG    1       26.793 -21.871   7.634  0.00  0.00    +0.198 C 
BRANCH  11  14
ATOM     12 CL   LIG    1       27.338 -19.606   5.277  0.00  0.00    -0.075 Cl
ATOM     13  C   LIG    1       28.377 -20.184   6.522  0.00  0.00    +0.083 A 
ATOM     14  C   LIG    1       28.098 -21.151   7.465  0.00  0.00    +0.004 A 
ATOM     15  C   LIG    1       29.262 -21.373   8.285  0.00  0.00    +0.015 A 
ATOM     16  C   LIG    1       30.306 -20.525   7.976  0.00  0.00    +0.047 A 
ATOM     17  S   LIG    1       29.923 -19.503   6.660  0.00  0.00    -0.085 S 
ENDBRANCH  11  14
ENDBRANCH  10  11
ENDBRANCH   1  10
BRANCH   1  18
ATOM     18  C   LIG    1       25.117 -24.117   5.170  0.00  0.00    +0.159 C 
BRANCH  18  19
ATOM     19  N   LIG    1       25.165 -25.464   5.720  0.00  0.00    -0.334 N 
ATOM     20  C   LIG    1       24.102 -26.307   5.868  0.00  0.00    +0.199 A 
ATOM     21  N   LIG    1       24.476 -27.467   6.375  0.00  0.00    -0.244 NA
ATOM     22  C   LIG    1       25.824 -27.354   6.575  0.00  0.00    +0.130 A 
ATOM     23  C   LIG    1       26.273 -26.109   6.199  0.00  0.00    +0.107 A 
ENDBRANCH  18  19
ENDBRANCH   1  18
TORSDOF 6
ENDMDL
MODEL 3
REMARK VINA RESULT:      -7.7      3.419      5.551
REMARK  Name = *****
REMARK                            x       y       z     vdW  Elec       q    Type
REMARK                         _______ _______ _______ _____ _____    ______ ____
ROOT
ATOM      1  C   LIG    1       25.703 -22.915   6.091  0.00  0.00    +0.170 C 
ENDROOT
BRANCH   1   2
ATOM      2  C   LIG    1       24.712 -21.825   5.691  0.00  0.00    +0.001 A 
ATOM      3  C   LIG    1       23.334 -21.915   5.974  0.00  0.00    +0.048 A 
ATOM      4 CL   LIG    1       22.675 -23.220   6.896  0.00  0.00    -0.083 Cl
ATOM      5  C   LIG    1       22.436 -20.952   5.499  0.00  0.00    +0.040 A 
ATOM      6  C   LIG    1       22.904 -19.891   4.731  0.00  0.00    +0.042 A 
ATOM      7 CL   LIG    1       21.799 -18.726   4.115  0.00  0.00    -0.084 Cl
ATOM      8  C   LIG    1       24.259 -19.773   4.447  0.00  0.00    +0.020 A 
ATOM      9  C   LIG    1       25.153 -20.732   4.925  0.00  0.00    +0.009 A 
ENDBRANCH   1   2
BRANCH   1  10
ATOM     10  O   LIG    1       25.172 -24.250   6.001  0.00  0.00    -0.365 OA
BRANCH  10  11
ATOM     11  C   LIG    1       25.813 -25.211   6.835  0.00  0.00    +0.198 C 
BRANCH  11  14
ATOM     12 CL   LIG    1       26.479 -27.877   8.688  0.00  0.00    -0.075 Cl
ATOM     13  C   LIG    1       25.567 -27.736   7.234  0.00  0.00    +0.083 A 
ATOM     14  C   LIG    1       25.343 -26.595   6.492  0.00  0.00    +0.004 A 
ATOM     15  C   LIG    1       24.576 -26.927   5.319  0.00  0.00    +0.015 A 
ATOM     16  C   LIG    1       24.201 -28.254   5.280  0.00  0.00    +0.047 A 
ATOM     17  S   LIG    1       24.822 -29.126   6.613  0.00  0.00    -0.085 S 
ENDBRANCH  11  14
ENDBRANCH  10  11
ENDBRANCH   1  10
BRANCH   1  18
ATOM     18  C   LIG    1       26.200 -22.703   7.543  0.00  0.00    +0.159 C 
BRANCH  18  19
ATOM     19  N   LIG    1       27.211 -21.668   7.703  0.00  0.00    -0.334 N 
ATOM     20  C   LIG    1       27.036 -20.468   8.331  0.00  0.00    +0.199 A 
ATOM     21  N   LIG    1       28.150 -19.760   8.331  0.00  0.00    -0.244 NA
ATOM     22  C   LIG    1       29.064 -20.528   7.664  0.00  0.00    +0.130 A 
ATOM     23  C   LIG    1       28.498 -21.709   7.241  0.00  0.00    +0.107 A 
ENDBRANCH  18  19
ENDBRANCH   1  18
TORSDOF 6
ENDMDL
MODEL 4
REMARK VINA RESULT:      -7.7      3.368      5.444
REMARK  Name = *****
REMARK                            x       y       z     vdW  Elec       q    Type
REMARK                         _______ _______ _______ _____ _____    ______ ____
ROOT
ATOM      1  C   LIG    1       25.906 -21.541   6.206  0.00  0.00    +0.170 C 
ENDROOT
BRANCH   1   2
ATOM      2  C   LIG    1       24.819 -20.639   5.629  0.00  0.00    +0.001 A 
ATOM      3  C   LIG    1       23.557 -20.489   6.238  0.00  0.00    +0.048 A 
ATOM      4 CL   LIG    1       23.181 -21.234   7.753  0.00  0.00    -0.083 Cl
ATOM      5  C   LIG    1       22.544 -19.742   5.626  0.00  0.00    +0.040 A 
ATOM      6  C   LIG    1       22.778 -19.140   4.395  0.00  0.00    +0.042 A 
ATOM      7 CL   LIG    1       21.525 -18.251   3.622  0.00  0.00    -0.084 Cl
ATOM      8  C   LIG    1       24.017 -19.262   3.778  0.00  0.00    +0.020 A 
ATOM      9  C   LIG    1       25.027 -20.004   4.391  0.00  0.00    +0.009 A 
ENDBRANCH   1   2
BRANCH   1  10
ATOM     10  O   LIG    1       25.416 -22.794   6.717  0.00  0.00    -0.365 OA
BRANCH  10  11
ATOM     11  C   LIG    1       26.400 -23.815   6.854  0.00  0.00    +0.198 C 
BRANCH  11  14
ATOM     12 CL   LIG    1       23.158 -24.475   6.659  0.00  0.00    -0.075 Cl
ATOM     13  C   LIG    1       24.516 -25.461   6.272  0.00  0.00    +0.083 A 
ATOM     14  C   LIG    1       25.850 -25.135   6.397  0.00  0.00    +0.004 A 
ATOM     15  C   LIG    1       26.659 -26.265   6.014  0.00  0.00    +0.015 A 
ATOM     16  C   LIG    1       25.911 -27.330   5.555  0.00  0.00    +0.047 A 
ATOM     17  S   LIG    1       24.234 -27.008   5.641  0.00  0.00    -0.085 S 
ENDBRANCH  11  14
ENDBRANCH  10  11
ENDBRANCH   1  10
BRANCH   1  18
ATOM     18  C   LIG    1       26.660 -20.827   7.356  0.00  0.00    +0.159 C 
BRANCH  18  19
ATOM     19  N   LIG    1       27.991 -20.347   7.015  0.00  0.00    -0.334 N 
ATOM     20  C   LIG    1       28.321 -19.617   5.909  0.00  0.00    +0.199 A 
ATOM     21  N   LIG    1       29.606 -19.315   5.899  0.00  0.00    -0.244 NA
ATOM     22  C   LIG    1       30.119 -19.888   7.030  0.00  0.00    +0.130 A 
ATOM     23  C   LIG    1       29.140 -20.556   7.729  0.00  0.00    +0.107 A 
ENDBRANCH  18  19
ENDBRANCH   1  18
TORSDOF 6
ENDMDL
MODEL 5
REMARK VINA RESULT:      -7.5      1.716      2.132
REMARK  Name = *****
REMARK                            x       y       z     vdW  Elec       q    Type
REMARK                         _______ _______ _______ _____ _____    ______ ____
ROOT
ATOM      1  C   LIG    1       25.583 -21.618   7.253  0.00  0.00    +0.170 C 
ENDROOT
BRANCH   1   2
ATOM      2  C   LIG    1       24.647 -20.869   6.309  0.00  0.00    +0.001 A 
ATOM      3  C   LIG    1       25.111 -20.189   5.165  0.00  0.00    +0.048 A 
ATOM      4 CL   LIG    1       26.770 -20.245   4.681  0.00  0.00    -0.083 Cl
ATOM      5  C   LIG    1       24.244 -19.420   4.381  0.00  0.00    +0.040 A 
ATOM      6  C   LIG    1       22.902 -19.316   4.734  0.00  0.00    +0.042 A 
ATOM      7 CL   LIG    1       21.841 -18.343   3.794  0.00  0.00    -0.084 Cl
ATOM      8  C   LIG    1       22.417 -19.986   5.850  0.00  0.00    +0.020 A 
ATOM      9  C   LIG    1       23.282 -20.755   6.629  0.00  0.00    +0.009 A 
ENDBRANCH   1   2
BRANCH   1  10
ATOM     10  O   LIG    1       26.672 -20.821   7.753  0.00  0.00    -0.365 OA
BRANCH  10  11
ATOM     11  C   LIG    1       27.924 -21.495   7.836  0.00  0.00    +0.198 C 
BRANCH  11  14
ATOM     12 CL   LIG    1       30.916 -21.923   9.196  0.00  0.00    -0.075 Cl
ATOM     13  C   LIG    1       30.324 -20.653   8.195  0.00  0.00    +0.083 A 
ATOM     14  C   LIG    1       29.053 -20.519   7.675  0.00  0.00    +0.004 A 
ATOM     15  C   LIG    1       28.963 -19.285   6.938  0.00  0.00    +0.015 A 
ATOM     16  C   LIG    1       30.165 -18.609   6.873  0.00  0.00    +0.047 A 
ATOM     17  S   LIG    1       31.391 -19.414   7.752  0.00  0.00    -0.085 S 
ENDBRANCH  11  14
ENDBRANCH  10  11
ENDBRANCH   1  10
BRANCH   1  18
ATOM     18  C   LIG    1       26.191 -22.860   6.553  0.00  0.00    +0.159 C 
BRANCH  18  19
ATOM     19  N   LIG    1       25.258 -23.952   6.315  0.00  0.00    -0.334 N 
ATOM     20  C   LIG    1       24.010 -24.072   6.857  0.00  0.00    +0.199 A 
ATOM     21  N   LIG    1       23.403 -25.162   6.426  0.00  0.00    -0.244 NA
ATOM     22  C   LIG    1       24.302 -25.769   5.593  0.00  0.00    +0.130 A 
ATOM     23  C   LIG    1       25.473 -25.049   5.527  0.00  0.00    +0.107 A 
ENDBRANCH  18  19
ENDBRANCH   1  18
TORSDOF 6
ENDMDL
MODEL 6
REMARK VINA RESULT:      -7.4      3.457      6.330
REMARK  Name = *****
REMARK                            x       y       z     vdW  Elec       q    Type
REMARK                         _______ _______ _______ _____ _____    ______ ____
ROOT
ATOM      1  C   LIG    1       25.853 -20.901   5.988  0.00  0.00    +0.170 C 
ENDROOT
BRANCH   1   2
ATOM      2  C   LIG    1       27.191 -20.403   6.527  0.00  0.00    +0.001 A 
ATOM      3  C   LIG    1       27.407 -20.148   7.896  0.00  0.00    +0.048 A 
ATOM      4 CL   LIG    1       26.202 -20.487   9.090  0.00  0.00    -0.083 Cl
ATOM      5  C   LIG    1       28.609 -19.588   8.345  0.00  0.00    +0.040 A 
ATOM      6  C   LIG    1       29.607 -19.271   7.430  0.00  0.00    +0.042 A 
ATOM      7 CL   LIG    1       31.071 -18.549   7.973  0.00  0.00    -0.084 Cl
ATOM      8  C   LIG    1       29.424 -19.522   6.076  0.00  0.00    +0.020 A 
ATOM      9  C   LIG    1       28.227 -20.084   5.631  0.00  0.00    +0.009 A 
ENDBRANCH   1   2
BRANCH   1  10
ATOM     10  O   LIG    1       25.820 -22.314   5.719  0.00  0.00    -0.365 OA
BRANCH  10  11
ATOM     11  C   LIG    1       25.966 -23.149   6.864  0.00  0.00    +0.198 C 
BRANCH  11  14
ATOM     12 CL   LIG    1       22.817 -24.163   6.670  0.00  0.00    -0.075 Cl
ATOM     13  C   LIG    1       24.280 -25.034   6.418  0.00  0.00    +0.083 A 
ATOM     14  C   LIG    1       25.570 -24.559   6.536  0.00  0.00    +0.004 A 
ATOM     15  C   LIG    1       26.501 -25.631   6.292  0.00  0.00    +0.015 A 
ATOM     16  C   LIG    1       25.882 -26.810   5.932  0.00  0.00    +0.047 A 
ATOM     17  S   LIG    1       24.178 -26.659   5.948  0.00  0.00    -0.085 S 
ENDBRANCH  11  14
ENDBRANCH  10  11
ENDBRANCH   1  10
BRANCH   1  18
ATOM     18  C   LIG    1       25.478 -20.163   4.678  0.00  0.00    +0.159 C 
BRANCH  18  19
ATOM     19  N   LIG    1       24.085 -19.754   4.578  0.00  0.00    -0.334 N 
ATOM     20  C   LIG    1       23.016 -20.411   5.116  0.00  0.00    +0.199 A 
ATOM     21  N   LIG    1       21.887 -19.773   4.872  0.00  0.00    -0.244 NA
ATOM     22  C   LIG    1       22.246 -18.678   4.135  0.00  0.00    +0.130 A 
ATOM     23  C   LIG    1       23.604 -18.656   3.918  0.00  0.00    +0.107 A 
ENDBRANCH  18  19
ENDBRANCH   1  18
TORSDOF 6
ENDMDL
MODEL 7
REMARK VINA RESULT:      -7.3      3.526      5.638
REMARK  Name = *****
REMARK                            x       y       z     vdW  Elec       q    Type
REMARK                         _______ _______ _______ _____ _____    ______ ____
ROOT
ATOM      1  C   LIG    1       25.514 -22.743   6.242  0.00  0.00    +0.170 C 
ENDROOT
BRANCH   1   2
ATOM      2  C   LIG    1       24.574 -21.709   5.630  0.00  0.00    +0.001 A 
ATOM      3  C   LIG    1       25.043 -20.524   5.027  0.00  0.00    +0.048 A 
ATOM      4 CL   LIG    1       26.731 -20.203   4.836  0.00  0.00    -0.083 Cl
ATOM      5  C   LIG    1       24.153 -19.544   4.573  0.00  0.00    +0.040 A 
ATOM      6  C   LIG    1       22.783 -19.734   4.721  0.00  0.00    +0.042 A 
ATOM      7 CL   LIG    1       21.686 -18.517   4.198  0.00  0.00    -0.084 Cl
ATOM      8  C   LIG    1       22.294 -20.898   5.302  0.00  0.00    +0.020 A 
ATOM      9  C   LIG    1       23.183 -21.875   5.751  0.00  0.00    +0.009 A 
ENDBRANCH   1   2
BRANCH   1  10
ATOM     10  O   LIG    1       24.982 -24.080   6.259  0.00  0.00    -0.365 OA
BRANCH  10  11
ATOM     11  C   LIG    1       25.824 -25.057   6.865  0.00  0.00    +0.198 C 
BRANCH  11  14
ATOM     12 CL   LIG    1       26.556 -27.748   8.655  0.00  0.00    -0.075 Cl
ATOM     13  C   LIG    1       25.612 -27.591   7.223  0.00  0.00    +0.083 A 
ATOM     14  C   LIG    1       25.361 -26.439   6.508  0.00  0.00    +0.004 A 
ATOM     15  C   LIG    1       24.571 -26.758   5.345  0.00  0.00    +0.015 A 
ATOM     16  C   LIG    1       24.209 -28.088   5.290  0.00  0.00    +0.047 A 
ATOM     17  S   LIG    1       24.868 -28.977   6.594  0.00  0.00    -0.085 S 
ENDBRANCH  11  14
ENDBRANCH  10  11
ENDBRANCH   1  10
BRANCH   1  18
ATOM     18  C   LIG    1       25.878 -22.363   7.700  0.00  0.00    +0.159 C 
BRANCH  18  19
ATOM     19  N   LIG    1       27.064 -21.532   7.842  0.00  0.00    -0.334 N 
ATOM     20  C   LIG    1       27.105 -20.280   8.386  0.00  0.00    +0.199 A 
ATOM     21  N   LIG    1       28.335 -19.800   8.394  0.00  0.00    -0.244 NA
ATOM     22  C   LIG    1       29.104 -20.773   7.818  0.00  0.00    +0.130 A 
ATOM     23  C   LIG    1       28.334 -21.850   7.443  0.00  0.00    +0.107 A 
ENDBRANCH  18  19
ENDBRANCH   1  18
TORSDOF 6
ENDMDL
MODEL 8
REMARK VINA RESULT:      -7.3      3.269      5.953
REMARK  Name = *****
REMARK                            x       y       z     vdW  Elec       q    Type
REMARK                         _______ _______ _______ _____ _____    ______ ____
ROOT
ATOM      1  C   LIG    1       25.184 -22.317   7.184  0.00  0.00    +0.170 C 
ENDROOT
BRANCH   1   2
ATOM      2  C   LIG    1       25.077 -23.757   6.689  0.00  0.00    +0.001 A 
ATOM      3  C   LIG    1       23.837 -24.401   6.499  0.00  0.00    +0.048 A 
ATOM      4 CL   LIG    1       22.335 -23.570   6.709  0.00  0.00    -0.083 Cl
ATOM      5  C   LIG    1       23.774 -25.754   6.150  0.00  0.00    +0.040 A 
ATOM      6  C   LIG    1       24.948 -26.483   5.992  0.00  0.00    +0.042 A 
ATOM      7 CL   LIG    1       24.874 -28.155   5.598  0.00  0.00    -0.084 Cl
ATOM      8  C   LIG    1       26.183 -25.869   6.161  0.00  0.00    +0.020 A 
ATOM      9  C   LIG    1       26.245 -24.518   6.506  0.00  0.00    +0.009 A 
ENDBRANCH   1   2
BRANCH   1  10
ATOM     10  O   LIG    1       25.581 -21.378   6.169  0.00  0.00    -0.365 OA
BRANCH  10  11
ATOM     11  C   LIG    1       24.925 -21.533   4.913  0.00  0.00    +0.198 C 
BRANCH  11  14
ATOM     12 CL   LIG    1       25.651 -18.658   3.432  0.00  0.00    -0.075 Cl
ATOM     13  C   LIG    1       24.160 -19.227   4.079  0.00  0.00    +0.083 A 
ATOM     14  C   LIG    1       23.925 -20.432   4.708  0.00  0.00    +0.004 A 
ATOM     15  C   LIG    1       22.554 -20.487   5.145  0.00  0.00    +0.015 A 
ATOM     16  C   LIG    1       21.823 -19.381   4.761  0.00  0.00    +0.047 A 
ATOM     17  S   LIG    1       22.791 -18.240   3.933  0.00  0.00    -0.085 S 
ENDBRANCH  11  14
ENDBRANCH  10  11
ENDBRANCH   1  10
BRANCH   1  18
ATOM     18  C   LIG    1       26.201 -22.210   8.349  0.00  0.00    +0.159 C 
BRANCH  18  19
ATOM     19  N   LIG    1       27.375 -21.396   8.068  0.00  0.00    -0.334 N 
ATOM     20  C   LIG    1       27.530 -20.077   8.386  0.00  0.00    +0.199 A 
ATOM     21  N   LIG    1       28.717 -19.632   8.021  0.00  0.00    -0.244 NA
ATOM     22  C   LIG    1       29.336 -20.700   7.433  0.00  0.00    +0.130 A 
ATOM     23  C   LIG    1       28.513 -21.802   7.428  0.00  0.00    +0.107 A 
ENDBRANCH  18  19
ENDBRANCH   1  18
TORSDOF 6
ENDMDL
MODEL 9
REMARK VINA RESULT:      -7.2      2.524      5.135
REMARK  Name = *****
REMARK                            x       y       z     vdW  Elec       q    Type
REMARK                         _______ _______ _______ _____ _____    ______ ____
ROOT
ATOM      1  C   LIG    1       25.681 -21.701   6.903  0.00  0.00    +0.170 C 
ENDROOT
BRANCH   1   2
ATOM      2  C   LIG    1       27.056 -21.042   6.963  0.00  0.00    +0.001 A 
ATOM      3  C   LIG    1       27.493 -20.114   5.996  0.00  0.00    +0.048 A 
ATOM      4 CL   LIG    1       26.457 -19.566   4.723  0.00  0.00    -0.083 Cl
ATOM      5  C   LIG    1       28.798 -19.610   6.017  0.00  0.00    +0.040 A 
ATOM      6  C   LIG    1       29.686 -20.032   7.001  0.00  0.00    +0.042 A 
ATOM      7 CL   LIG    1       31.301 -19.443   7.009  0.00  0.00    -0.084 Cl
ATOM      8  C   LIG    1       29.277 -20.937   7.973  0.00  0.00    +0.020 A 
ATOM      9  C   LIG    1       27.974 -21.436   7.953  0.00  0.00    +0.009 A 
ENDBRANCH   1   2
BRANCH   1  10
ATOM     10  O   LIG    1       24.629 -20.912   7.487  0.00  0.00    -0.365 OA
BRANCH  10  11
ATOM     11  C   LIG    1       23.331 -21.145   6.948  0.00  0.00    +0.198 C 
BRANCH  11  14
ATOM     12 CL   LIG    1       24.307 -22.215   3.967  0.00  0.00    -0.075 Cl
ATOM     13  C   LIG    1       23.505 -20.759   4.415  0.00  0.00    +0.083 A 
ATOM     14  C   LIG    1       23.142 -20.358   5.683  0.00  0.00    +0.004 A 
ATOM     15  C   LIG    1       22.541 -19.050   5.621  0.00  0.00    +0.015 A 
ATOM     16  C   LIG    1       22.411 -18.580   4.330  0.00  0.00    +0.047 A 
ATOM     17  S   LIG    1       23.068 -19.672   3.190  0.00  0.00    -0.085 S 
ENDBRANCH  11  14
ENDBRANCH  10  11
ENDBRANCH   1  10
BRANCH   1  18
ATOM     18  C   LIG    1       25.697 -23.073   7.624  0.00  0.00    +0.159 C 
BRANCH  18  19
ATOM     19  N   LIG    1       25.236 -24.196   6.820  0.00  0.00    -0.334 N 
ATOM     20  C   LIG    1       23.935 -24.569   6.638  0.00  0.00    +0.199 A 
ATOM     21  N   LIG    1       23.843 -25.613   5.835  0.00  0.00    -0.244 NA
ATOM     22  C   LIG    1       25.133 -25.928   5.507  0.00  0.00    +0.130 A 
ATOM     23  C   LIG    1       26.019 -25.077   6.126  0.00  0.00    +0.107 A 
ENDBRANCH  18  19
ENDBRANCH   1  18
TORSDOF 6
ENDMDL
