MODEL 1
REMARK VINA RESULT:       7.8      0.000      0.000
REMARK  Name = *****
REMARK                            x       y       z     vdW  Elec       q    Type
REMARK                         _______ _______ _______ _____ _____    ______ ____
ROOT
ATOM      1  C   LIG    1       26.845 -11.874   4.611  0.00  0.00    +0.042 C 
ATOM      2  C   LIG    1       26.742 -13.296   4.065  0.00  0.00    +0.069 C 
ATOM      3  C   LIG    1       25.678 -14.229   4.743  0.00  0.00    -0.000 C 
ATOM      4  C   LIG    1       25.722 -14.110   6.288  0.00  0.00    +0.014 C 
ATOM      5  C   LIG    1       26.177 -15.677   4.365  0.00  0.00    +0.001 C 
ATOM      6  C   LIG    1       25.391 -16.372   3.239  0.00  0.00    -0.004 C 
ATOM      7  C   LIG    1       23.871 -16.204   3.399  0.00  0.00    -0.001 C 
ATOM      8  C   LIG    1       23.587 -14.702   3.283  0.00  0.00    +0.005 C 
ATOM      9  C   LIG    1       22.976 -17.315   4.270  0.00  0.00    -0.022 C 
ATOM     10  C   LIG    1       21.548 -16.722   4.256  0.00  0.00    +0.012 C 
ATOM     11  C   LIG    1       23.325 -18.557   3.351  0.00  0.00    +0.001 C 
ATOM     12  C   LIG    1       22.732 -19.955   3.499  0.00  0.00    +0.059 C 
ATOM     13  C   LIG    1       22.837 -20.282   4.918  0.00  0.00    +0.040 A 
ATOM     14  C   LIG    1       22.997 -19.400   5.946  0.00  0.00    -0.006 A 
ATOM     15  C   LIG    1       23.097 -20.283   7.062  0.00  0.00    +0.138 A 
ATOM     16  N   LIG    1       23.121 -21.571   6.705  0.00  0.00    -0.182 NA
ATOM     17  N   LIG    1       23.034 -21.570   5.369  0.00  0.00    -0.281 N 
ATOM     18  H   LIG    1       23.154 -22.408   4.846  0.00  0.00    +0.189 HD
ATOM     19  C   LIG    1       24.870 -18.783   3.606  0.00  0.00    +0.005 C 
ATOM     20  C   LIG    1       23.155 -17.841   5.801  0.00  0.00    +0.045 C 
ATOM     21  C   LIG    1       25.792 -17.811   2.947  0.00  0.00    +0.004 C 
ATOM     22  C   LIG    1       27.672 -15.513   3.968  0.00  0.00    +0.007 C 
ATOM     23  C   LIG    1       24.220 -13.867   4.361  0.00  0.00    +0.010 C 
ATOM     24  C   LIG    1       28.052 -14.065   4.255  0.00  0.00    +0.035 C 
ENDROOT
BRANCH   2  25
ATOM     25  O   LIG    1       26.485 -13.141   2.665  0.00  0.00    -0.388 OA
ATOM     26  H   LIG    1       26.183 -12.237   2.486  0.00  0.00    +0.210 HD
ENDBRANCH   2  25
TORSDOF 1
ENDMDL
MODEL 2
REMARK VINA RESULT:       8.9      1.576      2.011
REMARK  Name = *****
REMARK                            x       y       z     vdW  Elec       q    Type
REMARK                         _______ _______ _______ _____ _____    ______ ____
ROOT
ATOM      1  C   LIG    1       23.408 -11.485   4.602  0.00  0.00    +0.042 C 
ATOM      2  C   LIG    1       24.272 -12.668   4.171  0.00  0.00    +0.069 C 
ATOM      3  C   LIG    1       23.853 -14.076   4.724  0.00  0.00    -0.000 C 
ATOM      4  C   LIG    1       23.514 -14.014   6.235  0.00  0.00    +0.014 C 
ATOM      5  C   LIG    1       25.170 -14.929   4.569  0.00  0.00    +0.001 C 
ATOM      6  C   LIG    1       25.184 -15.911   3.383  0.00  0.00    -0.004 C 
ATOM      7  C   LIG    1       23.862 -16.685   3.252  0.00  0.00    -0.001 C 
ATOM      8  C   LIG    1       22.778 -15.641   2.957  0.00  0.00    +0.005 C 
ATOM      9  C   LIG    1       23.643 -18.143   4.040  0.00  0.00    -0.022 C 
ATOM     10  C   LIG    1       22.177 -18.512   3.717  0.00  0.00    +0.012 C 
ATOM     11  C   LIG    1       24.828 -18.899   3.309  0.00  0.00    +0.001 C 
ATOM     12  C   LIG    1       25.156 -20.380   3.468  0.00  0.00    +0.059 C 
ATOM     13  C   LIG    1       25.152 -20.635   4.906  0.00  0.00    +0.040 A 
ATOM     14  C   LIG    1       24.557 -19.871   5.866  0.00  0.00    -0.006 A 
ATOM     15  C   LIG    1       24.936 -20.564   7.053  0.00  0.00    +0.138 A 
ATOM     16  N   LIG    1       25.783 -21.571   6.820  0.00  0.00    -0.182 NA
ATOM     17  N   LIG    1       25.976 -21.571   5.495  0.00  0.00    -0.281 N 
ATOM     18  H   LIG    1       26.666 -22.153   5.076  0.00  0.00    +0.189 HD
ATOM     19  C   LIG    1       26.123 -18.173   3.858  0.00  0.00    +0.005 C 
ATOM     20  C   LIG    1       23.792 -18.518   5.618  0.00  0.00    +0.045 C 
ATOM     21  C   LIG    1       26.403 -16.818   3.294  0.00  0.00    +0.004 C 
ATOM     22  C   LIG    1       26.325 -13.895   4.436  0.00  0.00    +0.007 C 
ATOM     23  C   LIG    1       22.572 -14.636   4.055  0.00  0.00    +0.010 C 
ATOM     24  C   LIG    1       25.714 -12.516   4.661  0.00  0.00    +0.035 C 
ENDROOT
BRANCH   2  25
ATOM     25  O   LIG    1       24.255 -12.643   2.740  0.00  0.00    -0.388 OA
ATOM     26  H   LIG    1       23.342 -12.734   2.422  0.00  0.00    +0.210 HD
ENDBRANCH   2  25
TORSDOF 1
ENDMDL
