MODEL 1
REMARK VINA RESULT:      -9.8      0.000      0.000
REMARK  Name = *****
REMARK                            x       y       z     vdW  Elec       q    Type
REMARK                         _______ _______ _______ _____ _____    ______ ____
ROOT
ATOM      1  O   LIG    1       24.505 -20.033   3.442  0.00  0.00    -0.226 OA
ATOM      2  C   LIG    1       25.239 -20.413   4.345  0.00  0.00    +0.406 C 
ATOM      3  O   LIG    1       25.014 -21.568   5.010  0.00  0.00    -0.417 OA
ATOM      4  C   LIG    1       25.566 -21.775   6.334  0.00  0.00    +0.296 C 
ATOM      5  C   LIG    1       26.969 -21.197   6.452  0.00  0.00    +0.040 A 
ATOM      6  C   LIG    1       27.304 -20.142   5.609  0.00  0.00    +0.045 A 
ATOM      7  C   LIG    1       28.533 -19.490   5.712  0.00  0.00    +0.025 A 
ATOM      8  C   LIG    1       29.456 -19.909   6.671  0.00  0.00    +0.022 A 
ATOM      9  C   LIG    1       29.135 -20.962   7.525  0.00  0.00    +0.042 A 
ATOM     10 CL   LIG    1       30.263 -21.466   8.720  0.00  0.00    -0.084 Cl
ATOM     11  C   LIG    1       27.898 -21.600   7.428  0.00  0.00    +0.030 A 
ATOM     12  N   LIG    1       26.377 -19.730   4.664  0.00  0.00    -0.251 N 
ATOM     13  H   LIG    1       26.567 -18.933   4.070  0.00  0.00    +0.158 HD
ENDROOT
BRANCH   4  14
ATOM     14  C   LIG    1       24.626 -21.110   7.378  0.00  0.00    +0.446 C 
ATOM     15  F   LIG    1       23.664 -20.352   6.791  0.00  0.00    -0.165 F 
ATOM     16  F   LIG    1       25.301 -20.298   8.229  0.00  0.00    -0.165 F 
ATOM     17  F   LIG    1       23.987 -22.031   8.142  0.00  0.00    -0.165 F 
ENDBRANCH   4  14
BRANCH   4  18
ATOM     18  C   LIG    1       25.589 -23.249   6.524  0.00  0.00    -0.041 C 
ATOM     19  C   LIG    1       25.615 -24.444   6.646  0.00  0.00    -0.094 C 
BRANCH  19  20
ATOM     20  C   LIG    1       25.651 -25.871   6.763  0.00  0.00    +0.064 C 
ATOM     21  C   LIG    1       24.541 -26.668   6.126  0.00  0.00    +0.017 C 
ATOM     22  C   LIG    1       25.920 -26.695   5.532  0.00  0.00    +0.017 C 
ENDBRANCH  19  20
ENDBRANCH   4  18
TORSDOF 3
ENDMDL
MODEL 2
REMARK VINA RESULT:      -9.2      2.700      5.006
REMARK  Name = *****
REMARK                            x       y       z     vdW  Elec       q    Type
REMARK                         _______ _______ _______ _____ _____    ______ ____
ROOT
ATOM      1  O   LIG    1       25.060 -24.983   6.786  0.00  0.00    -0.226 OA
ATOM      2  C   LIG    1       25.277 -23.829   6.440  0.00  0.00    +0.406 C 
ATOM      3  O   LIG    1       26.290 -23.104   6.966  0.00  0.00    -0.417 OA
ATOM      4  C   LIG    1       26.257 -21.656   6.925  0.00  0.00    +0.296 C 
ATOM      5  C   LIG    1       25.682 -21.147   5.611  0.00  0.00    +0.040 A 
ATOM      6  C   LIG    1       24.801 -21.980   4.927  0.00  0.00    +0.045 A 
ATOM      7  C   LIG    1       24.155 -21.558   3.765  0.00  0.00    +0.025 A 
ATOM      8  C   LIG    1       24.401 -20.279   3.266  0.00  0.00    +0.022 A 
ATOM      9  C   LIG    1       25.277 -19.432   3.940  0.00  0.00    +0.042 A 
ATOM     10 CL   LIG    1       25.567 -17.848   3.336  0.00  0.00    -0.084 Cl
ATOM     11  C   LIG    1       25.909 -19.853   5.110  0.00  0.00    +0.030 A 
ATOM     12  N   LIG    1       24.559 -23.247   5.436  0.00  0.00    -0.251 N 
ATOM     13  H   LIG    1       23.886 -23.859   4.993  0.00  0.00    +0.158 HD
ENDROOT
BRANCH   4  14
ATOM     14  C   LIG    1       25.403 -21.139   8.116  0.00  0.00    +0.446 C 
ATOM     15  F   LIG    1       24.161 -20.755   7.726  0.00  0.00    -0.165 F 
ATOM     16  F   LIG    1       25.971 -20.071   8.727  0.00  0.00    -0.165 F 
ATOM     17  F   LIG    1       25.237 -22.091   9.069  0.00  0.00    -0.165 F 
ENDBRANCH   4  14
BRANCH   4  18
ATOM     18  C   LIG    1       27.672 -21.227   7.078  0.00  0.00    -0.041 C 
ATOM     19  C   LIG    1       28.807 -20.861   7.226  0.00  0.00    -0.094 C 
BRANCH  19  20
ATOM     20  C   LIG    1       30.151 -20.409   7.426  0.00  0.00    +0.064 C 
ATOM     21  C   LIG    1       30.609 -19.180   6.682  0.00  0.00    +0.017 C 
ATOM     22  C   LIG    1       30.382 -19.119   8.166  0.00  0.00    +0.017 C 
ENDBRANCH  19  20
ENDBRANCH   4  18
TORSDOF 3
ENDMDL
MODEL 3
REMARK VINA RESULT:      -7.4      2.637      5.207
REMARK  Name = *****
REMARK                            x       y       z     vdW  Elec       q    Type
REMARK                         _______ _______ _______ _____ _____    ______ ____
ROOT
ATOM      1  O   LIG    1       22.779 -20.010   8.004  0.00  0.00    -0.226 OA
ATOM      2  C   LIG    1       23.520 -20.860   7.527  0.00  0.00    +0.406 C 
ATOM      3  O   LIG    1       24.838 -20.631   7.335  0.00  0.00    -0.417 OA
ATOM      4  C   LIG    1       25.588 -21.412   6.372  0.00  0.00    +0.296 C 
ATOM      5  C   LIG    1       25.155 -22.871   6.377  0.00  0.00    +0.040 A 
ATOM      6  C   LIG    1       23.858 -23.158   6.793  0.00  0.00    +0.045 A 
ATOM      7  C   LIG    1       23.347 -24.455   6.742  0.00  0.00    +0.025 A 
ATOM      8  C   LIG    1       24.152 -25.494   6.275  0.00  0.00    +0.022 A 
ATOM      9  C   LIG    1       25.451 -25.224   5.851  0.00  0.00    +0.042 A 
ATOM     10 CL   LIG    1       26.438 -26.501   5.257  0.00  0.00    -0.084 Cl
ATOM     11  C   LIG    1       25.952 -23.923   5.890  0.00  0.00    +0.030 A 
ATOM     12  N   LIG    1       23.065 -22.116   7.250  0.00  0.00    -0.251 N 
ATOM     13  H   LIG    1       22.101 -22.280   7.511  0.00  0.00    +0.158 HD
ENDROOT
BRANCH   4  14
ATOM     14  C   LIG    1       25.379 -20.801   4.959  0.00  0.00    +0.446 C 
ATOM     15  F   LIG    1       24.835 -21.691   4.090  0.00  0.00    -0.165 F 
ATOM     16  F   LIG    1       26.542 -20.375   4.408  0.00  0.00    -0.165 F 
ATOM     17  F   LIG    1       24.547 -19.728   4.990  0.00  0.00    -0.165 F 
ENDBRANCH   4  14
BRANCH   4  18
ATOM     18  C   LIG    1       27.010 -21.287   6.785  0.00  0.00    -0.041 C 
ATOM     19  C   LIG    1       28.155 -21.153   7.123  0.00  0.00    -0.094 C 
BRANCH  19  20
ATOM     20  C   LIG    1       29.516 -20.965   7.529  0.00  0.00    +0.064 C 
ATOM     21  C   LIG    1       30.304 -19.851   6.888  0.00  0.00    +0.017 C 
ATOM     22  C   LIG    1       29.875 -19.738   8.323  0.00  0.00    +0.017 C 
ENDBRANCH  19  20
ENDBRANCH   4  18
TORSDOF 3
ENDMDL
