MODEL 1
REMARK VINA RESULT:      -6.8      0.000      0.000
REMARK  Name = *****
REMARK                            x       y       z     vdW  Elec       q    Type
REMARK                         _______ _______ _______ _____ _____    ______ ____
ROOT
ATOM      1  C   LIG    1       24.432 -21.327   5.891  0.00  0.00    +0.126 C 
ATOM      2  C   LIG    1       24.443 -22.200   4.634  0.00  0.00    +0.236 C 
ATOM      3  O   LIG    1       24.264 -21.773   3.496  0.00  0.00    -0.274 OA
ATOM      4  N   LIG    1       24.735 -23.522   4.825  0.00  0.00    -0.239 N 
ATOM      5  H   LIG    1       24.739 -24.084   3.984  0.00  0.00    +0.159 HD
ATOM      6  C   LIG    1       24.397 -24.202   5.951  0.00  0.00    +0.312 C 
ATOM      7  O   LIG    1       24.194 -25.413   5.930  0.00  0.00    -0.252 OA
ATOM      8  N   LIG    1       24.185 -23.468   7.073  0.00  0.00    -0.239 N 
ATOM      9  H   LIG    1       23.796 -23.991   7.848  0.00  0.00    +0.159 HD
ATOM     10  C   LIG    1       23.852 -22.143   7.050  0.00  0.00    +0.236 C 
ATOM     11  O   LIG    1       23.173 -21.665   7.956  0.00  0.00    -0.274 OA
ENDROOT
BRANCH   1  12
ATOM     12  C   LIG    1       25.939 -20.984   6.253  0.00  0.00    +0.010 C 
ATOM     13  C   LIG    1       26.582 -20.007   5.251  0.00  0.00    +0.009 C 
BRANCH  12  15
ATOM     14  C   LIG    1       27.553 -20.271   8.144  0.00  0.00    +0.004 C 
ATOM     15  C   LIG    1       26.106 -20.453   7.703  0.00  0.00    +0.001 C 
ENDBRANCH  12  15
ENDBRANCH   1  12
BRANCH   1  16
ATOM     16  C   LIG    1       23.581 -20.050   5.653  0.00  0.00    +0.022 C 
ATOM     17  C   LIG    1       22.204 -20.298   5.034  0.00  0.00    +0.005 C 
ENDBRANCH   1  16
TORSDOF 3
ENDMDL
MODEL 2
REMARK VINA RESULT:      -6.8      2.071      4.121
REMARK  Name = *****
REMARK                            x       y       z     vdW  Elec       q    Type
REMARK                         _______ _______ _______ _____ _____    ______ ____
ROOT
ATOM      1  C   LIG    1       24.105 -21.470   6.013  0.00  0.00    +0.126 C 
ATOM      2  C   LIG    1       24.392 -20.800   7.359  0.00  0.00    +0.236 C 
ATOM      3  O   LIG    1       23.522 -20.429   8.143  0.00  0.00    -0.274 OA
ATOM      4  N   LIG    1       25.710 -20.679   7.699  0.00  0.00    -0.239 N 
ATOM      5  H   LIG    1       25.881 -20.235   8.592  0.00  0.00    +0.159 HD
ATOM      6  C   LIG    1       26.700 -20.502   6.786  0.00  0.00    +0.312 C 
ATOM      7  O   LIG    1       27.737 -19.911   7.074  0.00  0.00    -0.252 OA
ATOM      8  N   LIG    1       26.445 -20.905   5.515  0.00  0.00    -0.239 N 
ATOM      9  H   LIG    1       27.144 -20.625   4.839  0.00  0.00    +0.159 HD
ATOM     10  C   LIG    1       25.181 -21.043   5.012  0.00  0.00    +0.236 C 
ATOM     11  O   LIG    1       24.978 -20.878   3.811  0.00  0.00    -0.274 OA
ENDROOT
BRANCH   1  12
ATOM     12  C   LIG    1       24.237 -23.039   6.219  0.00  0.00    +0.010 C 
ATOM     13  C   LIG    1       22.935 -23.682   6.732  0.00  0.00    +0.009 C 
BRANCH  12  15
ATOM     14  C   LIG    1       25.191 -25.209   5.185  0.00  0.00    +0.004 C 
ATOM     15  C   LIG    1       24.734 -23.775   4.945  0.00  0.00    +0.001 C 
ENDBRANCH  12  15
ENDBRANCH   1  12
BRANCH   1  16
ATOM     16  C   LIG    1       22.698 -21.064   5.497  0.00  0.00    +0.022 C 
ATOM     17  C   LIG    1       22.524 -19.572   5.204  0.00  0.00    +0.005 C 
ENDBRANCH   1  16
TORSDOF 3
ENDMDL
MODEL 3
REMARK VINA RESULT:      -6.8      2.390      4.312
REMARK  Name = *****
REMARK                            x       y       z     vdW  Elec       q    Type
REMARK                         _______ _______ _______ _____ _____    ______ ____
ROOT
ATOM      1  C   LIG    1       25.054 -21.370   6.268  0.00  0.00    +0.126 C 
ATOM      2  C   LIG    1       25.818 -20.646   7.379  0.00  0.00    +0.236 C 
ATOM      3  O   LIG    1       25.374 -20.453   8.508  0.00  0.00    -0.274 OA
ATOM      4  N   LIG    1       27.093 -20.258   7.075  0.00  0.00    -0.239 N 
ATOM      5  H   LIG    1       27.583 -19.782   7.821  0.00  0.00    +0.159 HD
ATOM      6  C   LIG    1       27.480 -19.891   5.826  0.00  0.00    +0.312 C 
ATOM      7  O   LIG    1       28.402 -19.100   5.649  0.00  0.00    -0.252 OA
ATOM      8  N   LIG    1       26.730 -20.347   4.790  0.00  0.00    -0.239 N 
ATOM      9  H   LIG    1       26.961 -19.936   3.894  0.00  0.00    +0.159 HD
ATOM     10  C   LIG    1       25.428 -20.741   4.924  0.00  0.00    +0.236 C 
ATOM     11  O   LIG    1       24.654 -20.630   3.976  0.00  0.00    -0.274 OA
ENDROOT
BRANCH   1  12
ATOM     12  C   LIG    1       25.550 -22.879   6.247  0.00  0.00    +0.010 C 
ATOM     13  C   LIG    1       25.835 -23.430   7.656  0.00  0.00    +0.009 C 
BRANCH  12  15
ATOM     14  C   LIG    1       23.996 -24.944   6.337  0.00  0.00    +0.004 C 
ATOM     15  C   LIG    1       24.580 -23.823   5.486  0.00  0.00    +0.001 C 
ENDBRANCH  12  15
ENDBRANCH   1  12
BRANCH   1  16
ATOM     16  C   LIG    1       23.523 -21.261   6.506  0.00  0.00    +0.022 C 
ATOM     17  C   LIG    1       22.882 -19.968   5.998  0.00  0.00    +0.005 C 
ENDBRANCH   1  16
TORSDOF 3
ENDMDL
MODEL 4
REMARK VINA RESULT:      -6.7      1.540      3.184
REMARK  Name = *****
REMARK                            x       y       z     vdW  Elec       q    Type
REMARK                         _______ _______ _______ _____ _____    ______ ____
ROOT
ATOM      1  C   LIG    1       24.667 -21.679   6.685  0.00  0.00    +0.126 C 
ATOM      2  C   LIG    1       23.380 -22.302   7.230  0.00  0.00    +0.236 C 
ATOM      3  O   LIG    1       22.623 -21.742   8.019  0.00  0.00    -0.274 OA
ATOM      4  N   LIG    1       23.058 -23.537   6.739  0.00  0.00    -0.239 N 
ATOM      5  H   LIG    1       22.204 -23.933   7.109  0.00  0.00    +0.159 HD
ATOM      6  C   LIG    1       23.987 -24.454   6.367  0.00  0.00    +0.312 C 
ATOM      7  O   LIG    1       23.752 -25.658   6.417  0.00  0.00    -0.252 OA
ATOM      8  N   LIG    1       25.221 -23.986   6.047  0.00  0.00    -0.239 N 
ATOM      9  H   LIG    1       25.921 -24.707   5.918  0.00  0.00    +0.159 HD
ATOM     10  C   LIG    1       25.704 -22.787   6.487  0.00  0.00    +0.236 C 
ATOM     11  O   LIG    1       26.913 -22.634   6.647  0.00  0.00    -0.274 OA
ENDROOT
BRANCH   1  12
ATOM     12  C   LIG    1       24.338 -21.067   5.257  0.00  0.00    +0.010 C 
ATOM     13  C   LIG    1       23.037 -20.244   5.248  0.00  0.00    +0.009 C 
BRANCH  12  15
ATOM     14  C   LIG    1       25.089 -19.199   3.633  0.00  0.00    +0.004 C 
ATOM     15  C   LIG    1       25.509 -20.229   4.676  0.00  0.00    +0.001 C 
ENDBRANCH  12  15
ENDBRANCH   1  12
BRANCH   1  16
ATOM     16  C   LIG    1       25.206 -20.606   7.670  0.00  0.00    +0.022 C 
ATOM     17  C   LIG    1       25.838 -21.163   8.948  0.00  0.00    +0.005 C 
ENDBRANCH   1  16
TORSDOF 3
ENDMDL
MODEL 5
REMARK VINA RESULT:      -6.6      2.084      3.959
REMARK  Name = *****
REMARK                            x       y       z     vdW  Elec       q    Type
REMARK                         _______ _______ _______ _____ _____    ______ ____
ROOT
ATOM      1  C   LIG    1       25.072 -21.833   6.921  0.00  0.00    +0.126 C 
ATOM      2  C   LIG    1       25.807 -20.883   5.972  0.00  0.00    +0.236 C 
ATOM      3  O   LIG    1       26.990 -20.573   6.086  0.00  0.00    -0.274 OA
ATOM      4  N   LIG    1       25.082 -20.419   4.910  0.00  0.00    -0.239 N 
ATOM      5  H   LIG    1       25.583 -19.794   4.293  0.00  0.00    +0.159 HD
ATOM      6  C   LIG    1       23.743 -20.201   4.963  0.00  0.00    +0.312 C 
ATOM      7  O   LIG    1       23.204 -19.357   4.252  0.00  0.00    -0.252 OA
ATOM      8  N   LIG    1       23.046 -20.875   5.914  0.00  0.00    -0.239 N 
ATOM      9  H   LIG    1       22.084 -20.577   6.017  0.00  0.00    +0.159 HD
ATOM     10  C   LIG    1       23.619 -21.372   7.051  0.00  0.00    +0.236 C 
ATOM     11  O   LIG    1       22.952 -21.477   8.078  0.00  0.00    -0.274 OA
ENDROOT
BRANCH   1  12
ATOM     12  C   LIG    1       25.062 -23.272   6.249  0.00  0.00    +0.010 C 
ATOM     13  C   LIG    1       26.298 -24.111   6.622  0.00  0.00    +0.009 C 
BRANCH  12  15
ATOM     14  C   LIG    1       23.849 -25.556   6.233  0.00  0.00    +0.004 C 
ATOM     15  C   LIG    1       23.762 -24.068   6.548  0.00  0.00    +0.001 C 
ENDBRANCH  12  15
ENDBRANCH   1  12
BRANCH   1  16
ATOM     16  C   LIG    1       25.761 -21.843   8.314  0.00  0.00    +0.022 C 
ATOM     17  C   LIG    1       25.997 -20.461   8.926  0.00  0.00    +0.005 C 
ENDBRANCH   1  16
TORSDOF 3
ENDMDL
MODEL 6
REMARK VINA RESULT:      -6.5      2.021      3.443
REMARK  Name = *****
REMARK                            x       y       z     vdW  Elec       q    Type
REMARK                         _______ _______ _______ _____ _____    ______ ____
ROOT
ATOM      1  C   LIG    1       23.894 -21.586   6.165  0.00  0.00    +0.126 C 
ATOM      2  C   LIG    1       25.148 -22.412   5.868  0.00  0.00    +0.236 C 
ATOM      3  O   LIG    1       25.160 -23.419   5.164  0.00  0.00    -0.274 OA
ATOM      4  N   LIG    1       26.318 -21.932   6.387  0.00  0.00    -0.239 N 
ATOM      5  H   LIG    1       27.137 -22.489   6.180  0.00  0.00    +0.159 HD
ATOM      6  C   LIG    1       26.387 -21.250   7.559  0.00  0.00    +0.312 C 
ATOM      7  O   LIG    1       27.400 -21.268   8.251  0.00  0.00    -0.252 OA
ATOM      8  N   LIG    1       25.249 -20.642   7.985  0.00  0.00    -0.239 N 
ATOM      9  H   LIG    1       25.300 -20.271   8.925  0.00  0.00    +0.159 HD
ATOM     10  C   LIG    1       24.000 -21.026   7.585  0.00  0.00    +0.236 C 
ATOM     11  O   LIG    1       23.039 -20.861   8.333  0.00  0.00    -0.274 OA
ENDROOT
BRANCH   1  12
ATOM     12  C   LIG    1       23.880 -20.355   5.162  0.00  0.00    +0.010 C 
ATOM     13  C   LIG    1       24.174 -20.769   3.709  0.00  0.00    +0.009 C 
BRANCH  12  15
ATOM     14  C   LIG    1       22.476 -18.396   4.224  0.00  0.00    +0.004 C 
ATOM     15  C   LIG    1       22.562 -19.536   5.232  0.00  0.00    +0.001 C 
ENDBRANCH  12  15
ENDBRANCH   1  12
BRANCH   1  16
ATOM     16  C   LIG    1       22.623 -22.468   6.027  0.00  0.00    +0.022 C 
ATOM     17  C   LIG    1       22.662 -23.783   6.808  0.00  0.00    +0.005 C 
ENDBRANCH   1  16
TORSDOF 3
ENDMDL
MODEL 7
REMARK VINA RESULT:      -6.1      1.403      3.515
REMARK  Name = *****
REMARK                            x       y       z     vdW  Elec       q    Type
REMARK                         _______ _______ _______ _____ _____    ______ ____
ROOT
ATOM      1  C   LIG    1       24.927 -21.672   6.351  0.00  0.00    +0.126 C 
ATOM      2  C   LIG    1       25.454 -22.905   7.089  0.00  0.00    +0.236 C 
ATOM      3  O   LIG    1       26.098 -22.860   8.135  0.00  0.00    -0.274 OA
ATOM      4  N   LIG    1       25.116 -24.116   6.550  0.00  0.00    -0.239 N 
ATOM      5  H   LIG    1       25.472 -24.919   7.051  0.00  0.00    +0.159 HD
ATOM      6  C   LIG    1       24.947 -24.315   5.218  0.00  0.00    +0.312 C 
ATOM      7  O   LIG    1       25.147 -25.412   4.705  0.00  0.00    -0.252 OA
ATOM      8  N   LIG    1       24.660 -23.223   4.464  0.00  0.00    -0.239 N 
ATOM      9  H   LIG    1       24.686 -23.386   3.465  0.00  0.00    +0.159 HD
ATOM     10  C   LIG    1       24.964 -21.947   4.846  0.00  0.00    +0.236 C 
ATOM     11  O   LIG    1       25.192 -21.090   3.995  0.00  0.00    -0.274 OA
ENDROOT
BRANCH   1  12
ATOM     12  C   LIG    1       23.407 -21.477   6.766  0.00  0.00    +0.010 C 
ATOM     13  C   LIG    1       23.237 -20.532   7.970  0.00  0.00    +0.009 C 
BRANCH  12  15
ATOM     14  C   LIG    1       22.496 -19.499   5.370  0.00  0.00    +0.004 C 
ATOM     15  C   LIG    1       22.514 -21.008   5.585  0.00  0.00    +0.001 C 
ENDBRANCH  12  15
ENDBRANCH   1  12
BRANCH   1  16
ATOM     16  C   LIG    1       25.791 -20.428   6.693  0.00  0.00    +0.022 C 
ATOM     17  C   LIG    1       27.279 -20.566   6.363  0.00  0.00    +0.005 C 
ENDBRANCH   1  16
TORSDOF 3
ENDMDL
MODEL 8
REMARK VINA RESULT:      -6.0      1.824      3.754
REMARK  Name = *****
REMARK                            x       y       z     vdW  Elec       q    Type
REMARK                         _______ _______ _______ _____ _____    ______ ____
ROOT
ATOM      1  C   LIG    1       24.657 -21.649   6.585  0.00  0.00    +0.126 C 
ATOM      2  C   LIG    1       23.352 -21.122   7.186  0.00  0.00    +0.236 C 
ATOM      3  O   LIG    1       22.834 -21.567   8.207  0.00  0.00    -0.274 OA
ATOM      4  N   LIG    1       22.790 -20.049   6.550  0.00  0.00    -0.239 N 
ATOM      5  H   LIG    1       21.929 -19.713   6.961  0.00  0.00    +0.159 HD
ATOM      6  C   LIG    1       22.891 -19.842   5.212  0.00  0.00    +0.312 C 
ATOM      7  O   LIG    1       22.027 -19.228   4.593  0.00  0.00    -0.252 OA
ATOM      8  N   LIG    1       23.930 -20.439   4.573  0.00  0.00    -0.239 N 
ATOM      9  H   LIG    1       23.888 -20.382   3.563  0.00  0.00    +0.159 HD
ATOM     10  C   LIG    1       24.575 -21.541   5.060  0.00  0.00    +0.236 C 
ATOM     11  O   LIG    1       25.093 -22.341   4.285  0.00  0.00    -0.274 OA
ENDROOT
BRANCH   1  12
ATOM     12  C   LIG    1       25.831 -20.696   7.072  0.00  0.00    +0.010 C 
ATOM     13  C   LIG    1       25.945 -20.631   8.606  0.00  0.00    +0.009 C 
BRANCH  12  15
ATOM     14  C   LIG    1       27.906 -19.903   5.748  0.00  0.00    +0.004 C 
ATOM     15  C   LIG    1       27.204 -21.062   6.445  0.00  0.00    +0.001 C 
ENDBRANCH  12  15
ENDBRANCH   1  12
BRANCH   1  16
ATOM     16  C   LIG    1       24.888 -23.125   7.009  0.00  0.00    +0.022 C 
ATOM     17  C   LIG    1       23.757 -24.087   6.640  0.00  0.00    +0.005 C 
ENDBRANCH   1  16
TORSDOF 3
ENDMDL
MODEL 9
REMARK VINA RESULT:      -5.8      2.529      3.984
REMARK  Name = *****
REMARK                            x       y       z     vdW  Elec       q    Type
REMARK                         _______ _______ _______ _____ _____    ______ ____
ROOT
ATOM      1  C   LIG    1       25.165 -21.101   5.867  0.00  0.00    +0.126 C 
ATOM      2  C   LIG    1       24.141 -20.631   6.904  0.00  0.00    +0.236 C 
ATOM      3  O   LIG    1       23.018 -20.218   6.626  0.00  0.00    -0.274 OA
ATOM      4  N   LIG    1       24.517 -20.751   8.213  0.00  0.00    -0.239 N 
ATOM      5  H   LIG    1       23.828 -20.437   8.884  0.00  0.00    +0.159 HD
ATOM      6  C   LIG    1       25.803 -20.630   8.631  0.00  0.00    +0.312 C 
ATOM      7  O   LIG    1       26.073 -20.240   9.763  0.00  0.00    -0.252 OA
ATOM      8  N   LIG    1       26.774 -20.851   7.707  0.00  0.00    -0.239 N 
ATOM      9  H   LIG    1       27.708 -20.610   8.017  0.00  0.00    +0.159 HD
ATOM     10  C   LIG    1       26.567 -20.738   6.361  0.00  0.00    +0.236 C 
ATOM     11  O   LIG    1       27.495 -20.416   5.623  0.00  0.00    -0.274 OA
ENDROOT
BRANCH   1  12
ATOM     12  C   LIG    1       25.078 -22.685   5.788  0.00  0.00    +0.010 C 
ATOM     13  C   LIG    1       26.221 -23.381   6.550  0.00  0.00    +0.009 C 
BRANCH  12  15
ATOM     14  C   LIG    1       23.687 -24.739   6.519  0.00  0.00    +0.004 C 
ATOM     15  C   LIG    1       23.705 -23.238   6.258  0.00  0.00    +0.001 C 
ENDBRANCH  12  15
ENDBRANCH   1  12
BRANCH   1  16
ATOM     16  C   LIG    1       24.887 -20.431   4.494  0.00  0.00    +0.022 C 
ATOM     17  C   LIG    1       24.117 -21.299   3.496  0.00  0.00    +0.005 C 
ENDBRANCH   1  16
TORSDOF 3
ENDMDL
