MODEL 1
REMARK VINA RESULT:      -8.7      0.000      0.000
REMARK  Name = *****
REMARK                            x       y       z     vdW  Elec       q    Type
REMARK                         _______ _______ _______ _____ _____    ______ ____
ROOT
ATOM      1  O   LIG    1       24.206 -18.692   3.796  0.00  0.00    -0.274 OA
ATOM      2  C   LIG    1       24.591 -19.850   3.935  0.00  0.00    +0.231 C 
ATOM      3  N   LIG    1       25.919 -20.215   3.905  0.00  0.00    -0.284 N 
ATOM      4  H   LIG    1       26.007 -21.150   3.509  0.00  0.00    +0.155 HD
ATOM      5  C   LIG    1       26.593 -20.235   5.151  0.00  0.00    +0.041 A 
ATOM      6  C   LIG    1       26.140 -20.941   6.286  0.00  0.00    +0.026 A 
ATOM      7  C   LIG    1       27.059 -21.022   7.371  0.00  0.00    +0.030 A 
ATOM      8  C   LIG    1       28.311 -20.406   7.339  0.00  0.00    +0.042 A 
ATOM      9 CL   LIG    1       29.363 -20.533   8.695  0.00  0.00    -0.084 Cl
ATOM     10  C   LIG    1       28.713 -19.700   6.218  0.00  0.00    +0.022 A 
ATOM     11  C   LIG    1       24.780 -21.663   6.462  0.00  0.00    +0.179 C 
ATOM     12  N   LIG    1       23.597 -21.203   5.717  0.00  0.00    -0.256 NA
ATOM     13  C   LIG    1       23.084 -20.060   6.458  0.00  0.00    +0.116 C 
ATOM     14  C   LIG    1       23.261 -20.545   7.871  0.00  0.00    +0.178 C 
ATOM     15  O   LIG    1       24.463 -21.320   7.859  0.00  0.00    -0.349 OA
ATOM     16  C   LIG    1       27.861 -19.628   5.122  0.00  0.00    +0.025 A 
ATOM     17  C   LIG    1       23.662 -20.997   4.281  0.00  0.00    +0.184 C 
ENDROOT
BRANCH  11  18
ATOM     18  C   LIG    1       24.855 -23.214   6.425  0.00  0.00    +0.022 A 
ATOM     19  C   LIG    1       23.760 -24.098   6.503  0.00  0.00    +0.049 A 
ATOM     20 CL   LIG    1       22.114 -23.611   6.677  0.00  0.00    -0.083 Cl
ATOM     21  C   LIG    1       23.947 -25.493   6.469  0.00  0.00    +0.020 A 
ATOM     22  C   LIG    1       25.219 -26.048   6.379  0.00  0.00    +0.001 A 
ATOM     23  C   LIG    1       26.319 -25.210   6.330  0.00  0.00    +0.001 A 
ATOM     24  C   LIG    1       26.137 -23.824   6.359  0.00  0.00    +0.009 A 
ENDBRANCH  11  18
TORSDOF 1
ENDMDL
MODEL 2
REMARK VINA RESULT:      -6.4      7.447     10.755
REMARK  Name = *****
REMARK                            x       y       z     vdW  Elec       q    Type
REMARK                         _______ _______ _______ _____ _____    ______ ____
ROOT
ATOM      1  O   LIG    1       26.837 -33.805   9.704  0.00  0.00    -0.274 OA
ATOM      2  C   LIG    1       26.277 -33.113   8.859  0.00  0.00    +0.231 C 
ATOM      3  N   LIG    1       24.939 -33.228   8.551  0.00  0.00    -0.284 N 
ATOM      4  H   LIG    1       24.795 -33.016   7.565  0.00  0.00    +0.155 HD
ATOM      5  C   LIG    1       24.052 -32.398   9.280  0.00  0.00    +0.041 A 
ATOM      6  C   LIG    1       24.189 -30.998   9.390  0.00  0.00    +0.026 A 
ATOM      7  C   LIG    1       23.085 -30.313   9.974  0.00  0.00    +0.030 A 
ATOM      8  C   LIG    1       21.958 -30.982  10.453  0.00  0.00    +0.042 A 
ATOM      9 CL   LIG    1       20.669 -30.089  11.163  0.00  0.00    -0.084 Cl
ATOM     10  C   LIG    1       21.869 -32.360  10.352  0.00  0.00    +0.022 A 
ATOM     11  C   LIG    1       25.380 -30.129   8.911  0.00  0.00    +0.179 C 
ATOM     12  N   LIG    1       26.731 -30.707   8.832  0.00  0.00    -0.256 NA
ATOM     13  C   LIG    1       27.254 -30.674  10.192  0.00  0.00    +0.116 C 
ATOM     14  C   LIG    1       26.757 -29.328  10.645  0.00  0.00    +0.178 C 
ATOM     15  O   LIG    1       25.482 -29.164  10.020  0.00  0.00    -0.349 OA
ATOM     16  C   LIG    1       22.908 -33.063   9.753  0.00  0.00    +0.025 A 
ATOM     17  C   LIG    1       26.959 -31.964   8.142  0.00  0.00    +0.184 C 
ENDROOT
BRANCH  11  18
ATOM     18  C   LIG    1       25.099 -29.275   7.644  0.00  0.00    +0.022 A 
ATOM     19  C   LIG    1       24.466 -29.723   6.468  0.00  0.00    +0.049 A 
ATOM     20 CL   LIG    1       23.898 -31.333   6.208  0.00  0.00    -0.083 Cl
ATOM     21  C   LIG    1       24.271 -28.861   5.372  0.00  0.00    +0.020 A 
ATOM     22  C   LIG    1       24.714 -27.544   5.404  0.00  0.00    +0.001 A 
ATOM     23  C   LIG    1       25.366 -27.079   6.533  0.00  0.00    +0.001 A 
ATOM     24  C   LIG    1       25.558 -27.930   7.624  0.00  0.00    +0.009 A 
ENDBRANCH  11  18
TORSDOF 1
ENDMDL
MODEL 3
REMARK VINA RESULT:      -6.3      9.298     11.062
REMARK  Name = *****
REMARK                            x       y       z     vdW  Elec       q    Type
REMARK                         _______ _______ _______ _____ _____    ______ ____
ROOT
ATOM      1  O   LIG    1       27.685 -31.055  14.014  0.00  0.00    -0.274 OA
ATOM      2  C   LIG    1       26.953 -30.092  13.802  0.00  0.00    +0.231 C 
ATOM      3  N   LIG    1       27.124 -29.230  12.741  0.00  0.00    -0.284 N 
ATOM      4  H   LIG    1       26.829 -28.293  13.011  0.00  0.00    +0.155 HD
ATOM      5  C   LIG    1       26.425 -29.551  11.552  0.00  0.00    +0.041 A 
ATOM      6  C   LIG    1       25.035 -29.789  11.490  0.00  0.00    +0.026 A 
ATOM      7  C   LIG    1       24.481 -29.877  10.181  0.00  0.00    +0.030 A 
ATOM      8  C   LIG    1       25.262 -29.782   9.029  0.00  0.00    +0.042 A 
ATOM      9 CL   LIG    1       24.526 -29.915   7.480  0.00  0.00    -0.084 Cl
ATOM     10  C   LIG    1       26.628 -29.573   9.127  0.00  0.00    +0.022 A 
ATOM     11  C   LIG    1       24.051 -29.924  12.680  0.00  0.00    +0.179 C 
ATOM     12  N   LIG    1       24.532 -30.404  13.985  0.00  0.00    -0.256 NA
ATOM     13  C   LIG    1       24.593 -31.855  13.873  0.00  0.00    +0.116 C 
ATOM     14  C   LIG    1       23.331 -32.126  13.101  0.00  0.00    +0.178 C 
ATOM     15  O   LIG    1       23.190 -31.021  12.204  0.00  0.00    -0.349 OA
ATOM     16  C   LIG    1       27.203 -29.443  10.386  0.00  0.00    +0.025 A 
ATOM     17  C   LIG    1       25.700 -29.809  14.608  0.00  0.00    +0.184 C 
ENDROOT
BRANCH  11  18
ATOM     18  C   LIG    1       23.101 -28.712  12.882  0.00  0.00    +0.022 A 
ATOM     19  C   LIG    1       23.496 -27.388  13.160  0.00  0.00    +0.049 A 
ATOM     20 CL   LIG    1       25.131 -26.869  13.350  0.00  0.00    -0.083 Cl
ATOM     21  C   LIG    1       22.544 -26.366  13.335  0.00  0.00    +0.020 A 
ATOM     22  C   LIG    1       21.181 -26.630  13.261  0.00  0.00    +0.001 A 
ATOM     23  C   LIG    1       20.757 -27.925  13.018  0.00  0.00    +0.001 A 
ATOM     24  C   LIG    1       21.699 -28.942  12.840  0.00  0.00    +0.009 A 
ENDBRANCH  11  18
TORSDOF 1
ENDMDL
MODEL 4
REMARK VINA RESULT:      -6.0      7.970     10.352
REMARK  Name = *****
REMARK                            x       y       z     vdW  Elec       q    Type
REMARK                         _______ _______ _______ _____ _____    ______ ____
ROOT
ATOM      1  O   LIG    1       22.812 -33.323  10.721  0.00  0.00    -0.274 OA
ATOM      2  C   LIG    1       22.854 -32.369   9.951  0.00  0.00    +0.231 C 
ATOM      3  N   LIG    1       22.648 -31.065  10.348  0.00  0.00    -0.284 N 
ATOM      4  H   LIG    1       22.205 -30.544   9.593  0.00  0.00    +0.155 HD
ATOM      5  C   LIG    1       23.801 -30.334  10.726  0.00  0.00    +0.041 A 
ATOM      6  C   LIG    1       24.951 -30.197   9.920  0.00  0.00    +0.026 A 
ATOM      7  C   LIG    1       25.912 -29.248  10.371  0.00  0.00    +0.030 A 
ATOM      8  C   LIG    1       25.757 -28.531  11.558  0.00  0.00    +0.042 A 
ATOM      9 CL   LIG    1       26.968 -27.413  12.049  0.00  0.00    -0.084 Cl
ATOM     10  C   LIG    1       24.626 -28.710  12.338  0.00  0.00    +0.022 A 
ATOM     11  C   LIG    1       25.259 -30.930   8.589  0.00  0.00    +0.179 C 
ATOM     12  N   LIG    1       24.683 -32.258   8.327  0.00  0.00    -0.256 NA
ATOM     13  C   LIG    1       25.530 -33.203   9.042  0.00  0.00    +0.116 C 
ATOM     14  C   LIG    1       26.889 -32.620   8.765  0.00  0.00    +0.178 C 
ATOM     15  O   LIG    1       26.698 -31.203   8.751  0.00  0.00    -0.349 OA
ATOM     16  C   LIG    1       23.645 -29.599  11.913  0.00  0.00    +0.025 A 
ATOM     17  C   LIG    1       23.260 -32.494   8.495  0.00  0.00    +0.184 C 
ENDROOT
BRANCH  11  18
ATOM     18  C   LIG    1       25.147 -30.047   7.316  0.00  0.00    +0.022 A 
ATOM     19  C   LIG    1       25.514 -30.427   6.010  0.00  0.00    +0.049 A 
ATOM     20 CL   LIG    1       26.185 -31.959   5.584  0.00  0.00    -0.083 Cl
ATOM     21  C   LIG    1       25.377 -29.538   4.927  0.00  0.00    +0.020 A 
ATOM     22  C   LIG    1       24.895 -28.247   5.111  0.00  0.00    +0.001 A 
ATOM     23  C   LIG    1       24.552 -27.830   6.386  0.00  0.00    +0.001 A 
ATOM     24  C   LIG    1       24.683 -28.711   7.463  0.00  0.00    +0.009 A 
ENDBRANCH  11  18
TORSDOF 1
ENDMDL
MODEL 5
REMARK VINA RESULT:      -6.0      8.980     10.579
REMARK  Name = *****
REMARK                            x       y       z     vdW  Elec       q    Type
REMARK                         _______ _______ _______ _____ _____    ______ ____
ROOT
ATOM      1  O   LIG    1       28.458 -29.289  13.414  0.00  0.00    -0.274 OA
ATOM      2  C   LIG    1       27.450 -28.623  13.198  0.00  0.00    +0.231 C 
ATOM      3  N   LIG    1       27.194 -28.005  11.994  0.00  0.00    -0.284 N 
ATOM      4  H   LIG    1       26.677 -27.141  12.155  0.00  0.00    +0.155 HD
ATOM      5  C   LIG    1       26.451 -28.753  11.048  0.00  0.00    +0.041 A 
ATOM      6  C   LIG    1       25.202 -29.354  11.319  0.00  0.00    +0.026 A 
ATOM      7  C   LIG    1       24.508 -29.873  10.188  0.00  0.00    +0.030 A 
ATOM      8  C   LIG    1       25.043 -29.836   8.899  0.00  0.00    +0.042 A 
ATOM      9 CL   LIG    1       24.154 -30.498   7.583  0.00  0.00    -0.084 Cl
ATOM     10  C   LIG    1       26.283 -29.261   8.674  0.00  0.00    +0.022 A 
ATOM     11  C   LIG    1       24.495 -29.473  12.692  0.00  0.00    +0.179 C 
ATOM     12  N   LIG    1       25.287 -29.508  13.931  0.00  0.00    -0.256 NA
ATOM     13  C   LIG    1       25.761 -30.879  14.058  0.00  0.00    +0.116 C 
ATOM     14  C   LIG    1       24.535 -31.636  13.623  0.00  0.00    +0.178 C 
ATOM     15  O   LIG    1       23.938 -30.834  12.599  0.00  0.00    -0.349 OA
ATOM     16  C   LIG    1       26.977 -28.708   9.746  0.00  0.00    +0.025 A 
ATOM     17  C   LIG    1       26.305 -28.505  14.186  0.00  0.00    +0.184 C 
ENDROOT
BRANCH  11  18
ATOM     18  C   LIG    1       23.269 -28.537  12.878  0.00  0.00    +0.022 A 
ATOM     19  C   LIG    1       21.926 -28.868  12.607  0.00  0.00    +0.049 A 
ATOM     20 CL   LIG    1       21.394 -30.389  11.989  0.00  0.00    -0.083 Cl
ATOM     21  C   LIG    1       20.892 -27.934  12.804  0.00  0.00    +0.020 A 
ATOM     22  C   LIG    1       21.160 -26.646  13.253  0.00  0.00    +0.001 A 
ATOM     23  C   LIG    1       22.471 -26.277  13.502  0.00  0.00    +0.001 A 
ATOM     24  C   LIG    1       23.500 -27.203  13.311  0.00  0.00    +0.009 A 
ENDBRANCH  11  18
TORSDOF 1
ENDMDL
MODEL 6
REMARK VINA RESULT:      -6.0      7.657     10.166
REMARK  Name = *****
REMARK                            x       y       z     vdW  Elec       q    Type
REMARK                         _______ _______ _______ _____ _____    ______ ____
ROOT
ATOM      1  O   LIG    1       28.351 -30.064  10.953  0.00  0.00    -0.274 OA
ATOM      2  C   LIG    1       27.180 -29.728  11.104  0.00  0.00    +0.231 C 
ATOM      3  N   LIG    1       26.641 -28.590  10.544  0.00  0.00    -0.284 N 
ATOM      4  H   LIG    1       25.922 -28.213  11.161  0.00  0.00    +0.155 HD
ATOM      5  C   LIG    1       26.045 -28.739   9.268  0.00  0.00    +0.041 A 
ATOM      6  C   LIG    1       25.050 -29.692   8.964  0.00  0.00    +0.026 A 
ATOM      7  C   LIG    1       24.418 -29.544   7.697  0.00  0.00    +0.030 A 
ATOM      8  C   LIG    1       24.788 -28.552   6.787  0.00  0.00    +0.042 A 
ATOM      9 CL   LIG    1       23.992 -28.445   5.266  0.00  0.00    -0.084 Cl
ATOM     10  C   LIG    1       25.788 -27.649   7.108  0.00  0.00    +0.022 A 
ATOM     11  C   LIG    1       24.546 -30.845   9.869  0.00  0.00    +0.179 C 
ATOM     12  N   LIG    1       25.438 -31.434  10.881  0.00  0.00    -0.256 NA
ATOM     13  C   LIG    1       26.287 -32.372  10.159  0.00  0.00    +0.116 C 
ATOM     14  C   LIG    1       25.285 -32.985   9.219  0.00  0.00    +0.178 C 
ATOM     15  O   LIG    1       24.387 -31.924   8.879  0.00  0.00    -0.349 OA
ATOM     16  C   LIG    1       26.403 -27.735   8.352  0.00  0.00    +0.025 A 
ATOM     17  C   LIG    1       26.155 -30.588  11.818  0.00  0.00    +0.184 C 
ENDROOT
BRANCH  11  18
ATOM     18  C   LIG    1       23.132 -30.630  10.476  0.00  0.00    +0.022 A 
ATOM     19  C   LIG    1       22.794 -29.696  11.476  0.00  0.00    +0.049 A 
ATOM     20 CL   LIG    1       23.910 -28.620  12.235  0.00  0.00    -0.083 Cl
ATOM     21  C   LIG    1       21.476 -29.594  11.960  0.00  0.00    +0.020 A 
ATOM     22  C   LIG    1       20.467 -30.423  11.485  0.00  0.00    +0.001 A 
ATOM     23  C   LIG    1       20.770 -31.372  10.523  0.00  0.00    +0.001 A 
ATOM     24  C   LIG    1       22.077 -31.474  10.037  0.00  0.00    +0.009 A 
ENDBRANCH  11  18
TORSDOF 1
ENDMDL
MODEL 7
REMARK VINA RESULT:      -6.0      9.141     10.847
REMARK  Name = *****
REMARK                            x       y       z     vdW  Elec       q    Type
REMARK                         _______ _______ _______ _____ _____    ______ ____
ROOT
ATOM      1  O   LIG    1       19.931 -31.498  13.031  0.00  0.00    -0.274 OA
ATOM      2  C   LIG    1       20.559 -30.974  12.116  0.00  0.00    +0.231 C 
ATOM      3  N   LIG    1       20.478 -29.632  11.813  0.00  0.00    -0.284 N 
ATOM      4  H   LIG    1       20.596 -29.500  10.810  0.00  0.00    +0.155 HD
ATOM      5  C   LIG    1       21.419 -28.786  12.448  0.00  0.00    +0.041 A 
ATOM      6  C   LIG    1       22.815 -28.990  12.417  0.00  0.00    +0.026 A 
ATOM      7  C   LIG    1       23.608 -27.919  12.921  0.00  0.00    +0.030 A 
ATOM      8  C   LIG    1       23.046 -26.760  13.458  0.00  0.00    +0.042 A 
ATOM      9 CL   LIG    1       24.067 -25.515  14.066  0.00  0.00    -0.084 Cl
ATOM     10  C   LIG    1       21.671 -26.605  13.497  0.00  0.00    +0.022 A 
ATOM     11  C   LIG    1       23.573 -30.222  11.860  0.00  0.00    +0.179 C 
ATOM     12  N   LIG    1       22.925 -31.544  11.849  0.00  0.00    -0.256 NA
ATOM     13  C   LIG    1       23.072 -32.065  13.201  0.00  0.00    +0.116 C 
ATOM     14  C   LIG    1       24.479 -31.634  13.513  0.00  0.00    +0.178 C 
ATOM     15  O   LIG    1       24.639 -30.368  12.866  0.00  0.00    -0.349 OA
ATOM     16  C   LIG    1       20.861 -27.610  12.979  0.00  0.00    +0.025 A 
ATOM     17  C   LIG    1       21.596 -31.712  11.291  0.00  0.00    +0.184 C 
ENDROOT
BRANCH  11  18
ATOM     18  C   LIG    1       24.306 -29.984  10.511  0.00  0.00    +0.022 A 
ATOM     19  C   LIG    1       25.601 -29.452  10.356  0.00  0.00    +0.049 A 
ATOM     20 CL   LIG    1       26.616 -28.939  11.655  0.00  0.00    -0.083 Cl
ATOM     21  C   LIG    1       26.165 -29.269   9.080  0.00  0.00    +0.020 A 
ATOM     22  C   LIG    1       25.457 -29.589   7.926  0.00  0.00    +0.001 A 
ATOM     23  C   LIG    1       24.171 -30.087   8.041  0.00  0.00    +0.001 A 
ATOM     24  C   LIG    1       23.609 -30.273   9.307  0.00  0.00    +0.009 A 
ENDBRANCH  11  18
TORSDOF 1
ENDMDL
MODEL 8
REMARK VINA RESULT:      -5.8      2.192      5.312
REMARK  Name = *****
REMARK                            x       y       z     vdW  Elec       q    Type
REMARK                         _______ _______ _______ _____ _____    ______ ____
ROOT
ATOM      1  O   LIG    1       24.564 -24.837   6.533  0.00  0.00    -0.274 OA
ATOM      2  C   LIG    1       25.324 -24.014   6.030  0.00  0.00    +0.231 C 
ATOM      3  N   LIG    1       25.030 -23.316   4.878  0.00  0.00    -0.284 N 
ATOM      4  H   LIG    1       25.888 -23.137   4.359  0.00  0.00    +0.155 HD
ATOM      5  C   LIG    1       24.386 -22.066   5.048  0.00  0.00    +0.041 A 
ATOM      6  C   LIG    1       24.870 -21.033   5.878  0.00  0.00    +0.026 A 
ATOM      7  C   LIG    1       24.211 -19.777   5.749  0.00  0.00    +0.030 A 
ATOM      8  C   LIG    1       23.126 -19.585   4.893  0.00  0.00    +0.042 A 
ATOM      9 CL   LIG    1       22.368 -18.043   4.801  0.00  0.00    -0.084 Cl
ATOM     10  C   LIG    1       22.661 -20.629   4.110  0.00  0.00    +0.022 A 
ATOM     11  C   LIG    1       26.054 -21.105   6.876  0.00  0.00    +0.179 C 
ATOM     12  N   LIG    1       26.419 -22.388   7.497  0.00  0.00    -0.256 NA
ATOM     13  C   LIG    1       25.483 -22.575   8.596  0.00  0.00    +0.116 C 
ATOM     14  C   LIG    1       25.413 -21.174   9.141  0.00  0.00    +0.178 C 
ATOM     15  O   LIG    1       25.517 -20.318   8.000  0.00  0.00    -0.349 OA
ATOM     16  C   LIG    1       23.301 -21.862   4.178  0.00  0.00    +0.025 A 
ATOM     17  C   LIG    1       26.620 -23.573   6.682  0.00  0.00    +0.184 C 
ENDROOT
BRANCH  11  18
ATOM     18  C   LIG    1       27.337 -20.355   6.423  0.00  0.00    +0.022 A 
ATOM     19  C   LIG    1       28.607 -20.449   7.025  0.00  0.00    +0.049 A 
ATOM     20 CL   LIG    1       28.970 -21.413   8.410  0.00  0.00    -0.083 Cl
ATOM     21  C   LIG    1       29.702 -19.714   6.534  0.00  0.00    +0.020 A 
ATOM     22  C   LIG    1       29.564 -18.853   5.451  0.00  0.00    +0.001 A 
ATOM     23  C   LIG    1       28.323 -18.714   4.853  0.00  0.00    +0.001 A 
ATOM     24  C   LIG    1       27.235 -19.446   5.335  0.00  0.00    +0.009 A 
ENDBRANCH  11  18
TORSDOF 1
ENDMDL
