MODEL 1
REMARK VINA RESULT:      -6.9      0.000      0.000
REMARK  Name = *****
REMARK                            x       y       z     vdW  Elec       q    Type
REMARK                         _______ _______ _______ _____ _____    ______ ____
ROOT
ATOM      1  C   LIG    1       26.315 -22.635   7.931  0.00  0.00    +0.276 C 
ATOM      2  N   LIG    1       25.483 -23.348   6.964  0.00  0.00    -0.224 N 
ATOM      3  C   LIG    1       24.090 -23.265   6.988  0.00  0.00    +0.307 C 
ATOM      4  N   LIG    1       23.300 -24.227   6.613  0.00  0.00    -0.083 NA
ATOM      5  C   LIG    1       23.882 -25.479   6.144  0.00  0.00    +0.294 C 
ATOM      6  C   LIG    1       25.205 -25.247   5.451  0.00  0.00    +0.093 C 
ATOM      7  C   LIG    1       26.119 -24.553   6.435  0.00  0.00    +0.229 C 
ENDROOT
BRANCH   3   8
ATOM      8  C   LIG    1       23.316 -22.064   7.462  0.00  0.00    +0.100 C 
ATOM      9  C   LIG    1       23.160 -20.839   6.951  0.00  0.00    +0.023 C 
BRANCH   9  10
ATOM     10  C   LIG    1       23.693 -20.368   5.718  0.00  0.00    +0.012 A 
ATOM     11  S   LIG    1       22.682 -19.466   4.648  0.00  0.00    -0.097 S 
ATOM     12  C   LIG    1       23.956 -19.196   3.543  0.00  0.00    +0.045 A 
ATOM     13  C   LIG    1       25.122 -19.804   3.944  0.00  0.00    +0.008 A 
ATOM     14  C   LIG    1       24.959 -20.506   5.173  0.00  0.00    +0.015 A 
ENDBRANCH   9  10
ENDBRANCH   3   8
TORSDOF 2
ENDMDL
MODEL 2
REMARK VINA RESULT:      -6.8      2.524      4.832
REMARK  Name = *****
REMARK                            x       y       z     vdW  Elec       q    Type
REMARK                         _______ _______ _______ _____ _____    ______ ____
ROOT
ATOM      1  C   LIG    1       24.713 -21.047   4.743  0.00  0.00    +0.276 C 
ATOM      2  N   LIG    1       25.335 -21.283   6.044  0.00  0.00    -0.224 N 
ATOM      3  C   LIG    1       24.608 -21.774   7.129  0.00  0.00    +0.307 C 
ATOM      4  N   LIG    1       24.868 -21.480   8.369  0.00  0.00    -0.083 NA
ATOM      5  C   LIG    1       25.977 -20.580   8.665  0.00  0.00    +0.294 C 
ATOM      6  C   LIG    1       27.088 -20.721   7.650  0.00  0.00    +0.093 C 
ATOM      7  C   LIG    1       26.500 -20.435   6.288  0.00  0.00    +0.229 C 
ENDROOT
BRANCH   3   8
ATOM      8  C   LIG    1       23.420 -22.691   7.015  0.00  0.00    +0.100 C 
ATOM      9  C   LIG    1       23.315 -23.985   6.694  0.00  0.00    +0.023 C 
BRANCH   9  10
ATOM     10  C   LIG    1       24.391 -24.873   6.414  0.00  0.00    +0.012 A 
ATOM     11  S   LIG    1       24.113 -26.250   5.410  0.00  0.00    -0.097 S 
ATOM     12  C   LIG    1       25.756 -26.716   5.458  0.00  0.00    +0.045 A 
ATOM     13  C   LIG    1       26.506 -25.876   6.247  0.00  0.00    +0.008 A 
ATOM     14  C   LIG    1       25.714 -24.842   6.823  0.00  0.00    +0.015 A 
ENDBRANCH   9  10
ENDBRANCH   3   8
TORSDOF 2
ENDMDL
MODEL 3
REMARK VINA RESULT:      -6.6      2.686      4.862
REMARK  Name = *****
REMARK                            x       y       z     vdW  Elec       q    Type
REMARK                         _______ _______ _______ _____ _____    ______ ____
ROOT
ATOM      1  C   LIG    1       25.903 -19.947   4.849  0.00  0.00    +0.276 C 
ATOM      2  N   LIG    1       26.777 -20.392   5.932  0.00  0.00    -0.224 N 
ATOM      3  C   LIG    1       26.334 -20.462   7.253  0.00  0.00    +0.307 C 
ATOM      4  N   LIG    1       27.101 -20.274   8.286  0.00  0.00    -0.083 NA
ATOM      5  C   LIG    1       28.510 -19.963   8.074  0.00  0.00    +0.294 C 
ATOM      6  C   LIG    1       29.039 -20.627   6.824  0.00  0.00    +0.093 C 
ATOM      7  C   LIG    1       28.194 -20.155   5.664  0.00  0.00    +0.229 C 
ENDROOT
BRANCH   3   8
ATOM      8  C   LIG    1       24.913 -20.746   7.663  0.00  0.00    +0.100 C 
ATOM      9  C   LIG    1       24.170 -21.855   7.607  0.00  0.00    +0.023 C 
BRANCH   9  10
ATOM     10  C   LIG    1       24.601 -23.135   7.157  0.00  0.00    +0.012 A 
ATOM     11  S   LIG    1       23.438 -24.247   6.527  0.00  0.00    -0.097 S 
ATOM     12  C   LIG    1       24.635 -25.403   6.143  0.00  0.00    +0.045 A 
ATOM     13  C   LIG    1       25.891 -24.986   6.513  0.00  0.00    +0.008 A 
ATOM     14  C   LIG    1       25.864 -23.702   7.128  0.00  0.00    +0.015 A 
ENDBRANCH   9  10
ENDBRANCH   3   8
TORSDOF 2
ENDMDL
MODEL 4
REMARK VINA RESULT:      -6.3      2.296      4.665
REMARK  Name = *****
REMARK                            x       y       z     vdW  Elec       q    Type
REMARK                         _______ _______ _______ _____ _____    ______ ____
ROOT
ATOM      1  C   LIG    1       26.634 -20.499   6.655  0.00  0.00    +0.276 C 
ATOM      2  N   LIG    1       25.614 -20.115   5.681  0.00  0.00    -0.224 N 
ATOM      3  C   LIG    1       24.336 -20.674   5.694  0.00  0.00    +0.307 C 
ATOM      4  N   LIG    1       23.613 -20.855   4.628  0.00  0.00    -0.083 NA
ATOM      5  C   LIG    1       24.154 -20.464   3.331  0.00  0.00    +0.294 C 
ATOM      6  C   LIG    1       25.072 -19.269   3.454  0.00  0.00    +0.093 C 
ATOM      7  C   LIG    1       26.176 -19.640   4.418  0.00  0.00    +0.229 C 
ENDROOT
BRANCH   3   8
ATOM      8  C   LIG    1       23.629 -21.158   6.932  0.00  0.00    +0.100 C 
ATOM      9  C   LIG    1       23.482 -22.377   7.460  0.00  0.00    +0.023 C 
BRANCH   9  10
ATOM     10  C   LIG    1       24.048 -23.584   6.963  0.00  0.00    +0.012 A 
ATOM     11  S   LIG    1       25.757 -23.815   7.043  0.00  0.00    -0.097 S 
ATOM     12  C   LIG    1       25.654 -25.396   6.405  0.00  0.00    +0.045 A 
ATOM     13  C   LIG    1       24.360 -25.742   6.096  0.00  0.00    +0.008 A 
ATOM     14  C   LIG    1       23.446 -24.688   6.382  0.00  0.00    +0.015 A 
ENDBRANCH   9  10
ENDBRANCH   3   8
TORSDOF 2
ENDMDL
MODEL 5
REMARK VINA RESULT:      -6.3      1.026      1.933
REMARK  Name = *****
REMARK                            x       y       z     vdW  Elec       q    Type
REMARK                         _______ _______ _______ _____ _____    ______ ____
ROOT
ATOM      1  C   LIG    1       22.452 -23.488   6.592  0.00  0.00    +0.276 C 
ATOM      2  N   LIG    1       23.731 -24.148   6.846  0.00  0.00    -0.224 N 
ATOM      3  C   LIG    1       24.893 -23.424   7.114  0.00  0.00    +0.307 C 
ATOM      4  N   LIG    1       26.087 -23.822   6.786  0.00  0.00    -0.083 NA
ATOM      5  C   LIG    1       26.243 -25.094   6.089  0.00  0.00    +0.294 C 
ATOM      6  C   LIG    1       25.181 -26.085   6.507  0.00  0.00    +0.093 C 
ATOM      7  C   LIG    1       23.835 -25.462   6.215  0.00  0.00    +0.229 C 
ENDROOT
BRANCH   3   8
ATOM      8  C   LIG    1       24.925 -22.084   7.799  0.00  0.00    +0.100 C 
ATOM      9  C   LIG    1       24.865 -20.835   7.327  0.00  0.00    +0.023 C 
BRANCH   9  10
ATOM     10  C   LIG    1       24.695 -20.457   5.966  0.00  0.00    +0.012 A 
ATOM     11  S   LIG    1       23.113 -20.084   5.382  0.00  0.00    -0.097 S 
ATOM     12  C   LIG    1       23.697 -19.663   3.833  0.00  0.00    +0.045 A 
ATOM     13  C   LIG    1       25.057 -19.833   3.733  0.00  0.00    +0.008 A 
ATOM     14  C   LIG    1       25.621 -20.324   4.945  0.00  0.00    +0.015 A 
ENDBRANCH   9  10
ENDBRANCH   3   8
TORSDOF 2
ENDMDL
MODEL 6
REMARK VINA RESULT:      -6.2      2.729      4.666
REMARK  Name = *****
REMARK                            x       y       z     vdW  Elec       q    Type
REMARK                         _______ _______ _______ _____ _____    ______ ____
ROOT
ATOM      1  C   LIG    1       24.392 -22.434   4.371  0.00  0.00    +0.276 C 
ATOM      2  N   LIG    1       24.104 -21.020   4.603  0.00  0.00    -0.224 N 
ATOM      3  C   LIG    1       23.266 -20.599   5.635  0.00  0.00    +0.307 C 
ATOM      4  N   LIG    1       22.522 -19.534   5.576  0.00  0.00    -0.083 NA
ATOM      5  C   LIG    1       22.544 -18.721   4.365  0.00  0.00    +0.294 C 
ATOM      6  C   LIG    1       23.900 -18.759   3.700  0.00  0.00    +0.093 C 
ATOM      7  C   LIG    1       24.219 -20.204   3.395  0.00  0.00    +0.229 C 
ENDROOT
BRANCH   3   8
ATOM      8  C   LIG    1       23.096 -21.322   6.944  0.00  0.00    +0.100 C 
ATOM      9  C   LIG    1       23.974 -21.708   7.875  0.00  0.00    +0.023 C 
BRANCH   9  10
ATOM     10  C   LIG    1       25.375 -21.460   7.864  0.00  0.00    +0.012 A 
ATOM     11  S   LIG    1       26.442 -22.659   7.224  0.00  0.00    -0.097 S 
ATOM     12  C   LIG    1       27.816 -21.669   7.448  0.00  0.00    +0.045 A 
ATOM     13  C   LIG    1       27.495 -20.467   8.031  0.00  0.00    +0.008 A 
ATOM     14  C   LIG    1       26.100 -20.365   8.302  0.00  0.00    +0.015 A 
ENDBRANCH   9  10
ENDBRANCH   3   8
TORSDOF 2
ENDMDL
MODEL 7
REMARK VINA RESULT:      -6.0      2.402      5.050
REMARK  Name = *****
REMARK                            x       y       z     vdW  Elec       q    Type
REMARK                         _______ _______ _______ _____ _____    ______ ____
ROOT
ATOM      1  C   LIG    1       23.269 -20.694   7.208  0.00  0.00    +0.276 C 
ATOM      2  N   LIG    1       24.009 -20.724   5.948  0.00  0.00    -0.224 N 
ATOM      3  C   LIG    1       25.398 -20.848   5.913  0.00  0.00    +0.307 C 
ATOM      4  N   LIG    1       26.150 -20.328   4.989  0.00  0.00    -0.083 NA
ATOM      5  C   LIG    1       25.526 -19.559   3.918  0.00  0.00    +0.294 C 
ATOM      6  C   LIG    1       24.146 -20.084   3.594  0.00  0.00    +0.093 C 
ATOM      7  C   LIG    1       23.326 -20.025   4.862  0.00  0.00    +0.229 C 
ENDROOT
BRANCH   3   8
ATOM      8  C   LIG    1       26.215 -21.582   6.943  0.00  0.00    +0.100 C 
ATOM      9  C   LIG    1       26.208 -22.856   7.350  0.00  0.00    +0.023 C 
BRANCH   9  10
ATOM     10  C   LIG    1       25.398 -23.902   6.827  0.00  0.00    +0.012 A 
ATOM     11  S   LIG    1       26.151 -25.328   6.210  0.00  0.00    -0.097 S 
ATOM     12  C   LIG    1       24.650 -26.080   5.893  0.00  0.00    +0.045 A 
ATOM     13  C   LIG    1       23.590 -25.263   6.208  0.00  0.00    +0.008 A 
ATOM     14  C   LIG    1       24.022 -24.002   6.708  0.00  0.00    +0.015 A 
ENDBRANCH   9  10
ENDBRANCH   3   8
TORSDOF 2
ENDMDL
MODEL 8
REMARK VINA RESULT:      -5.9      2.693      3.465
REMARK  Name = *****
REMARK                            x       y       z     vdW  Elec       q    Type
REMARK                         _______ _______ _______ _____ _____    ______ ____
ROOT
ATOM      1  C   LIG    1       24.423 -22.017   4.787  0.00  0.00    +0.276 C 
ATOM      2  N   LIG    1       24.607 -23.260   5.533  0.00  0.00    -0.224 N 
ATOM      3  C   LIG    1       25.160 -23.275   6.813  0.00  0.00    +0.307 C 
ATOM      4  N   LIG    1       25.866 -24.259   7.287  0.00  0.00    -0.083 NA
ATOM      5  C   LIG    1       26.113 -25.423   6.443  0.00  0.00    +0.294 C 
ATOM      6  C   LIG    1       24.958 -25.678   5.503  0.00  0.00    +0.093 C 
ATOM      7  C   LIG    1       24.762 -24.430   4.672  0.00  0.00    +0.229 C 
ENDROOT
BRANCH   3   8
ATOM      8  C   LIG    1       25.031 -22.155   7.812  0.00  0.00    +0.100 C 
ATOM      9  C   LIG    1       25.793 -21.085   8.060  0.00  0.00    +0.023 C 
BRANCH   9  10
ATOM     10  C   LIG    1       26.964 -20.702   7.348  0.00  0.00    +0.012 A 
ATOM     11  S   LIG    1       28.515 -21.130   7.976  0.00  0.00    -0.097 S 
ATOM     12  C   LIG    1       29.331 -20.469   6.630  0.00  0.00    +0.045 A 
ATOM     13  C   LIG    1       28.462 -19.896   5.732  0.00  0.00    +0.008 A 
ATOM     14  C   LIG    1       27.109 -19.999   6.164  0.00  0.00    +0.015 A 
ENDBRANCH   9  10
ENDBRANCH   3   8
TORSDOF 2
ENDMDL
MODEL 9
REMARK VINA RESULT:      -5.9      3.063      4.365
REMARK  Name = *****
REMARK                            x       y       z     vdW  Elec       q    Type
REMARK                         _______ _______ _______ _____ _____    ______ ____
ROOT
ATOM      1  C   LIG    1       25.013 -23.696   5.470  0.00  0.00    +0.276 C 
ATOM      2  N   LIG    1       24.675 -22.277   5.545  0.00  0.00    -0.224 N 
ATOM      3  C   LIG    1       24.575 -21.607   6.765  0.00  0.00    +0.307 C 
ATOM      4  N   LIG    1       23.770 -20.608   6.980  0.00  0.00    -0.083 NA
ATOM      5  C   LIG    1       22.906 -20.150   5.897  0.00  0.00    +0.294 C 
ATOM      6  C   LIG    1       23.562 -20.343   4.549  0.00  0.00    +0.093 C 
ATOM      7  C   LIG    1       23.886 -21.812   4.406  0.00  0.00    +0.229 C 
ENDROOT
BRANCH   3   8
ATOM      8  C   LIG    1       25.366 -21.955   7.997  0.00  0.00    +0.100 C 
ATOM      9  C   LIG    1       26.634 -21.713   8.345  0.00  0.00    +0.023 C 
BRANCH   9  10
ATOM     10  C   LIG    1       27.586 -20.968   7.594  0.00  0.00    +0.012 A 
ATOM     11  S   LIG    1       29.263 -21.101   7.983  0.00  0.00    -0.097 S 
ATOM     12  C   LIG    1       29.725 -20.085   6.691  0.00  0.00    +0.045 A 
ATOM     13  C   LIG    1       28.638 -19.614   5.992  0.00  0.00    +0.008 A 
ATOM     14  C   LIG    1       27.412 -20.093   6.535  0.00  0.00    +0.015 A 
ENDBRANCH   9  10
ENDBRANCH   3   8
TORSDOF 2
ENDMDL
