MODEL 1
REMARK VINA RESULT:      -4.1      0.000      0.000
REMARK  Name = *****
REMARK                            x       y       z     vdW  Elec       q    Type
REMARK                         _______ _______ _______ _____ _____    ______ ____
ROOT
ATOM      1  C   LIG    1       27.025 -16.170   3.676  0.00  0.00    +0.243 C 
ATOM      2  N   LIG    1       27.138 -14.786   3.493  0.00  0.00    -0.268 N 
ATOM      3  O   LIG    1       27.955 -16.884   4.024  0.00  0.00    -0.270 OA
ENDROOT
BRANCH   2   4
ATOM      4  C   LIG    1       26.019 -13.908   3.369  0.00  0.00    +0.039 A 
ATOM      5  C   LIG    1       25.388 -13.355   4.501  0.00  0.00    -0.029 A 
ATOM      6  C   LIG    1       25.847 -13.610   5.910  0.00  0.00    +0.045 C 
ATOM      7  C   LIG    1       24.293 -12.489   4.317  0.00  0.00    +0.005 A 
ATOM      8  C   LIG    1       23.847 -12.153   3.040  0.00  0.00    +0.000 A 
ATOM      9  C   LIG    1       24.479 -12.689   1.925  0.00  0.00    +0.002 A 
ATOM     10  C   LIG    1       25.556 -13.564   2.087  0.00  0.00    +0.024 A 
ENDBRANCH   2   4
BRANCH   1  13
ATOM     11  C   LIG    1       24.201 -18.776   3.319  0.00  0.00    +0.035 C 
ATOM     12  C   LIG    1       25.498 -18.091   3.588  0.00  0.00    -0.025 C 
ATOM     13  C   LIG    1       25.699 -16.785   3.355  0.00  0.00    +0.063 C 
ENDBRANCH   1  13
BRANCH   2  14
ATOM     14  C   LIG    1       28.439 -14.180   3.799  0.00  0.00    +0.111 C 
ATOM     15  C   LIG    1       28.495 -12.675   3.545  0.00  0.00    +0.025 C 
ENDBRANCH   2  14
TORSDOF 3
ENDMDL
MODEL 2
REMARK VINA RESULT:      -3.0      4.090      7.262
REMARK  Name = *****
REMARK                            x       y       z     vdW  Elec       q    Type
REMARK                         _______ _______ _______ _____ _____    ______ ____
ROOT
ATOM      1  C   LIG    1       22.600 -18.749   4.132  0.00  0.00    +0.243 C 
ATOM      2  N   LIG    1       23.322 -19.943   4.248  0.00  0.00    -0.268 N 
ATOM      3  O   LIG    1       21.436 -18.697   3.757  0.00  0.00    -0.270 OA
ENDROOT
BRANCH   2   4
ATOM      4  C   LIG    1       24.564 -20.055   4.944  0.00  0.00    +0.039 A 
ATOM      5  C   LIG    1       24.622 -20.504   6.279  0.00  0.00    -0.029 A 
ATOM      6  C   LIG    1       23.410 -20.927   7.062  0.00  0.00    +0.045 C 
ATOM      7  C   LIG    1       25.875 -20.601   6.912  0.00  0.00    +0.005 A 
ATOM      8  C   LIG    1       27.051 -20.288   6.234  0.00  0.00    +0.000 A 
ATOM      9  C   LIG    1       26.993 -19.857   4.914  0.00  0.00    +0.002 A 
ATOM     10  C   LIG    1       25.758 -19.737   4.273  0.00  0.00    +0.024 A 
ENDBRANCH   2   4
BRANCH   1  13
ATOM     11  C   LIG    1       23.342 -15.009   4.727  0.00  0.00    +0.035 C 
ATOM     12  C   LIG    1       22.685 -16.312   4.422  0.00  0.00    -0.025 C 
ATOM     13  C   LIG    1       23.340 -17.483   4.427  0.00  0.00    +0.063 C 
ENDBRANCH   1  13
BRANCH   2  14
ATOM     14  C   LIG    1       22.602 -21.187   3.952  0.00  0.00    +0.111 C 
ATOM     15  C   LIG    1       21.346 -21.390   4.797  0.00  0.00    +0.025 C 
ENDBRANCH   2  14
TORSDOF 3
ENDMDL
MODEL 3
REMARK VINA RESULT:      -3.0      3.530      6.742
REMARK  Name = *****
REMARK                            x       y       z     vdW  Elec       q    Type
REMARK                         _______ _______ _______ _____ _____    ______ ____
ROOT
ATOM      1  C   LIG    1       25.186 -18.823   3.712  0.00  0.00    +0.243 C 
ATOM      2  N   LIG    1       25.728 -19.836   4.512  0.00  0.00    -0.268 N 
ATOM      3  O   LIG    1       24.041 -18.842   3.281  0.00  0.00    -0.270 OA
ENDROOT
BRANCH   2   4
ATOM      4  C   LIG    1       26.943 -19.699   5.250  0.00  0.00    +0.039 A 
ATOM      5  C   LIG    1       27.215 -20.500   6.378  0.00  0.00    -0.029 A 
ATOM      6  C   LIG    1       26.281 -21.570   6.875  0.00  0.00    +0.045 C 
ATOM      7  C   LIG    1       28.432 -20.326   7.062  0.00  0.00    +0.005 A 
ATOM      8  C   LIG    1       29.377 -19.399   6.625  0.00  0.00    +0.000 A 
ATOM      9  C   LIG    1       29.113 -18.619   5.506  0.00  0.00    +0.002 A 
ATOM     10  C   LIG    1       27.903 -18.764   4.824  0.00  0.00    +0.024 A 
ENDBRANCH   2   4
BRANCH   1  13
ATOM     11  C   LIG    1       26.580 -15.263   3.179  0.00  0.00    +0.035 C 
ATOM     12  C   LIG    1       25.718 -16.434   3.514  0.00  0.00    -0.025 C 
ATOM     13  C   LIG    1       26.103 -17.705   3.327  0.00  0.00    +0.063 C 
ENDBRANCH   1  13
BRANCH   2  14
ATOM     14  C   LIG    1       24.834 -20.938   4.886  0.00  0.00    +0.111 C 
ATOM     15  C   LIG    1       23.655 -20.510   5.756  0.00  0.00    +0.025 C 
ENDBRANCH   2  14
TORSDOF 3
ENDMDL
MODEL 4
REMARK VINA RESULT:      -2.9      3.983      7.372
REMARK  Name = *****
REMARK                            x       y       z     vdW  Elec       q    Type
REMARK                         _______ _______ _______ _____ _____    ______ ____
ROOT
ATOM      1  C   LIG    1       22.219 -18.439   4.291  0.00  0.00    +0.243 C 
ATOM      2  N   LIG    1       22.813 -19.706   4.340  0.00  0.00    -0.268 N 
ATOM      3  O   LIG    1       21.067 -18.247   3.925  0.00  0.00    -0.270 OA
ENDROOT
BRANCH   2   4
ATOM      4  C   LIG    1       24.036 -19.982   5.023  0.00  0.00    +0.039 A 
ATOM      5  C   LIG    1       25.287 -19.785   4.403  0.00  0.00    -0.029 A 
ATOM      6  C   LIG    1       25.441 -19.248   3.007  0.00  0.00    +0.045 C 
ATOM      7  C   LIG    1       26.460 -20.068   5.128  0.00  0.00    +0.005 A 
ATOM      8  C   LIG    1       26.402 -20.508   6.449  0.00  0.00    +0.000 A 
ATOM      9  C   LIG    1       25.168 -20.690   7.062  0.00  0.00    +0.002 A 
ATOM     10  C   LIG    1       23.992 -20.433   6.354  0.00  0.00    +0.024 A 
ENDBRANCH   2   4
BRANCH   1  13
ATOM     11  C   LIG    1       23.470 -14.812   4.707  0.00  0.00    +0.035 C 
ATOM     12  C   LIG    1       22.677 -16.028   4.366  0.00  0.00    -0.025 C 
ATOM     13  C   LIG    1       23.087 -17.274   4.646  0.00  0.00    +0.063 C 
ENDBRANCH   1  13
BRANCH   2  14
ATOM     14  C   LIG    1       21.967 -20.851   3.984  0.00  0.00    +0.111 C 
ATOM     15  C   LIG    1       21.364 -21.572   5.188  0.00  0.00    +0.025 C 
ENDBRANCH   2  14
TORSDOF 3
ENDMDL
MODEL 5
REMARK VINA RESULT:      -2.8      1.860      3.658
REMARK  Name = *****
REMARK                            x       y       z     vdW  Elec       q    Type
REMARK                         _______ _______ _______ _____ _____    ______ ____
ROOT
ATOM      1  C   LIG    1       24.185 -15.018   4.106  0.00  0.00    +0.243 C 
ATOM      2  N   LIG    1       24.766 -13.827   4.556  0.00  0.00    -0.268 N 
ATOM      3  O   LIG    1       22.976 -15.201   4.048  0.00  0.00    -0.270 OA
ENDROOT
BRANCH   2   4
ATOM      4  C   LIG    1       26.141 -13.493   4.365  0.00  0.00    +0.039 A 
ATOM      5  C   LIG    1       26.684 -13.318   3.076  0.00  0.00    -0.029 A 
ATOM      6  C   LIG    1       25.873 -13.434   1.815  0.00  0.00    +0.045 C 
ATOM      7  C   LIG    1       28.045 -12.983   2.948  0.00  0.00    +0.005 A 
ATOM      8  C   LIG    1       28.849 -12.795   4.071  0.00  0.00    +0.000 A 
ATOM      9  C   LIG    1       28.309 -12.956   5.341  0.00  0.00    +0.002 A 
ATOM     10  C   LIG    1       26.965 -13.306   5.489  0.00  0.00    +0.024 A 
ENDBRANCH   2   4
BRANCH   1  13
ATOM     11  C   LIG    1       25.526 -18.555   3.340  0.00  0.00    +0.035 C 
ATOM     12  C   LIG    1       24.667 -17.393   3.709  0.00  0.00    -0.025 C 
ATOM     13  C   LIG    1       25.119 -16.130   3.748  0.00  0.00    +0.063 C 
ENDBRANCH   1  13
BRANCH   2  14
ATOM     14  C   LIG    1       23.853 -12.736   4.916  0.00  0.00    +0.111 C 
ATOM     15  C   LIG    1       23.820 -11.596   3.900  0.00  0.00    +0.025 C 
ENDBRANCH   2  14
TORSDOF 3
ENDMDL
MODEL 6
REMARK VINA RESULT:      -2.6      1.125      3.528
REMARK  Name = *****
REMARK                            x       y       z     vdW  Elec       q    Type
REMARK                         _______ _______ _______ _____ _____    ______ ____
ROOT
ATOM      1  C   LIG    1       27.336 -15.213   4.106  0.00  0.00    +0.243 C 
ATOM      2  N   LIG    1       26.063 -15.205   3.522  0.00  0.00    -0.268 N 
ATOM      3  O   LIG    1       28.051 -16.205   4.154  0.00  0.00    -0.270 OA
ENDROOT
BRANCH   2   4
ATOM      4  C   LIG    1       25.345 -14.013   3.205  0.00  0.00    +0.039 A 
ATOM      5  C   LIG    1       24.222 -13.607   3.955  0.00  0.00    -0.029 A 
ATOM      6  C   LIG    1       23.712 -14.363   5.151  0.00  0.00    +0.045 C 
ATOM      7  C   LIG    1       23.557 -12.419   3.600  0.00  0.00    +0.005 A 
ATOM      8  C   LIG    1       24.007 -11.630   2.543  0.00  0.00    +0.000 A 
ATOM      9  C   LIG    1       25.121 -12.025   1.813  0.00  0.00    +0.002 A 
ATOM     10  C   LIG    1       25.785 -13.210   2.138  0.00  0.00    +0.024 A 
ENDBRANCH   2   4
BRANCH   1  13
ATOM     11  C   LIG    1       29.167 -11.869   4.702  0.00  0.00    +0.035 C 
ATOM     12  C   LIG    1       28.682 -13.160   4.135  0.00  0.00    -0.025 C 
ATOM     13  C   LIG    1       27.788 -13.944   4.755  0.00  0.00    +0.063 C 
ENDBRANCH   1  13
BRANCH   2  14
ATOM     14  C   LIG    1       25.614 -16.451   2.891  0.00  0.00    +0.111 C 
ATOM     15  C   LIG    1       24.750 -17.326   3.795  0.00  0.00    +0.025 C 
ENDBRANCH   2  14
TORSDOF 3
ENDMDL
MODEL 7
REMARK VINA RESULT:      -2.4      3.009      6.101
REMARK  Name = *****
REMARK                            x       y       z     vdW  Elec       q    Type
REMARK                         _______ _______ _______ _____ _____    ______ ____
ROOT
ATOM      1  C   LIG    1       27.931 -18.147   4.700  0.00  0.00    +0.243 C 
ATOM      2  N   LIG    1       27.384 -19.317   5.243  0.00  0.00    -0.268 N 
ATOM      3  O   LIG    1       29.110 -17.837   4.813  0.00  0.00    -0.270 OA
ENDROOT
BRANCH   2   4
ATOM      4  C   LIG    1       26.102 -19.832   4.885  0.00  0.00    +0.039 A 
ATOM      5  C   LIG    1       25.406 -20.724   5.726  0.00  0.00    -0.029 A 
ATOM      6  C   LIG    1       25.928 -21.178   7.062  0.00  0.00    +0.045 C 
ATOM      7  C   LIG    1       24.141 -21.195   5.324  0.00  0.00    +0.005 A 
ATOM      8  C   LIG    1       23.562 -20.771   4.130  0.00  0.00    +0.000 A 
ATOM      9  C   LIG    1       24.244 -19.882   3.309  0.00  0.00    +0.002 A 
ATOM     10  C   LIG    1       25.508 -19.418   3.681  0.00  0.00    +0.024 A 
ENDBRANCH   2   4
BRANCH   1  13
ATOM     11  C   LIG    1       26.366 -14.914   3.291  0.00  0.00    +0.035 C 
ATOM     12  C   LIG    1       27.246 -15.903   3.977  0.00  0.00    -0.025 C 
ATOM     13  C   LIG    1       26.984 -17.219   4.009  0.00  0.00    +0.063 C 
ENDBRANCH   1  13
BRANCH   2  14
ATOM     14  C   LIG    1       28.309 -20.227   5.928  0.00  0.00    +0.111 C 
ATOM     15  C   LIG    1       29.095 -19.572   7.062  0.00  0.00    +0.025 C 
ENDBRANCH   2  14
TORSDOF 3
ENDMDL
MODEL 8
REMARK VINA RESULT:      -2.2      2.781      4.812
REMARK  Name = *****
REMARK                            x       y       z     vdW  Elec       q    Type
REMARK                         _______ _______ _______ _____ _____    ______ ____
ROOT
ATOM      1  C   LIG    1       25.006 -19.727   4.135  0.00  0.00    +0.243 C 
ATOM      2  N   LIG    1       24.173 -18.615   3.960  0.00  0.00    -0.268 N 
ATOM      3  O   LIG    1       24.624 -20.883   4.013  0.00  0.00    -0.270 OA
ENDROOT
BRANCH   2   4
ATOM      4  C   LIG    1       24.654 -17.279   3.817  0.00  0.00    +0.039 A 
ATOM      5  C   LIG    1       23.865 -16.168   4.180  0.00  0.00    -0.029 A 
ATOM      6  C   LIG    1       22.486 -16.292   4.769  0.00  0.00    +0.045 C 
ATOM      7  C   LIG    1       24.395 -14.874   4.023  0.00  0.00    +0.005 A 
ATOM      8  C   LIG    1       25.688 -14.679   3.544  0.00  0.00    +0.000 A 
ATOM      9  C   LIG    1       26.469 -15.775   3.199  0.00  0.00    +0.002 A 
ATOM     10  C   LIG    1       25.955 -17.067   3.330  0.00  0.00    +0.024 A 
ENDBRANCH   2   4
BRANCH   1  13
ATOM     11  C   LIG    1       28.338 -19.917   6.073  0.00  0.00    +0.035 C 
ATOM     12  C   LIG    1       26.937 -20.114   5.602  0.00  0.00    -0.025 C 
ATOM     13  C   LIG    1       26.415 -19.453   4.558  0.00  0.00    +0.063 C 
ENDBRANCH   1  13
BRANCH   2  14
ATOM     14  C   LIG    1       22.788 -18.880   3.553  0.00  0.00    +0.111 C 
ATOM     15  C   LIG    1       21.957 -19.596   4.615  0.00  0.00    +0.025 C 
ENDBRANCH   2  14
TORSDOF 3
ENDMDL
MODEL 9
REMARK VINA RESULT:      -2.0      1.798      3.391
REMARK  Name = *****
REMARK                            x       y       z     vdW  Elec       q    Type
REMARK                         _______ _______ _______ _____ _____    ______ ____
ROOT
ATOM      1  C   LIG    1       26.617 -16.414   3.624  0.00  0.00    +0.243 C 
ATOM      2  N   LIG    1       26.296 -15.053   3.692  0.00  0.00    -0.268 N 
ATOM      3  O   LIG    1       25.886 -17.256   3.120  0.00  0.00    -0.270 OA
ENDROOT
BRANCH   2   4
ATOM      4  C   LIG    1       27.240 -14.031   4.010  0.00  0.00    +0.039 A 
ATOM      5  C   LIG    1       27.263 -13.417   5.279  0.00  0.00    -0.029 A 
ATOM      6  C   LIG    1       26.332 -13.798   6.398  0.00  0.00    +0.045 C 
ATOM      7  C   LIG    1       28.222 -12.420   5.538  0.00  0.00    +0.005 A 
ATOM      8  C   LIG    1       29.160 -12.055   4.575  0.00  0.00    +0.000 A 
ATOM      9  C   LIG    1       29.144 -12.670   3.329  0.00  0.00    +0.002 A 
ATOM     10  C   LIG    1       28.189 -13.649   3.046  0.00  0.00    +0.024 A 
ENDBRANCH   2   4
BRANCH   1  13
ATOM     11  C   LIG    1       29.263 -18.588   5.402  0.00  0.00    +0.035 C 
ATOM     12  C   LIG    1       28.016 -18.080   4.764  0.00  0.00    -0.025 C 
ATOM     13  C   LIG    1       27.897 -16.837   4.271  0.00  0.00    +0.063 C 
ENDBRANCH   1  13
BRANCH   2  14
ATOM     14  C   LIG    1       25.037 -14.634   3.065  0.00  0.00    +0.111 C 
ATOM     15  C   LIG    1       23.879 -14.478   4.048  0.00  0.00    +0.025 C 
ENDBRANCH   2  14
TORSDOF 3
ENDMDL
