MODEL 1
REMARK VINA RESULT:      -6.3      0.000      0.000
REMARK  Name = *****
REMARK                            x       y       z     vdW  Elec       q    Type
REMARK                         _______ _______ _______ _____ _____    ______ ____
ROOT
ATOM      1  C   LIG    1       23.290 -28.738  13.786  0.00  0.00    +0.001 C 
ATOM      2  C   LIG    1       23.583 -30.180  13.217  0.00  0.00    +0.000 C 
ATOM      3  C   LIG    1       23.810 -31.089  14.493  0.00  0.00    +0.014 C 
ATOM      4  C   LIG    1       24.956 -30.068  12.521  0.00  0.00    +0.001 C 
ATOM      5  C   LIG    1       25.036 -29.785  11.000  0.00  0.00    -0.004 C 
ATOM      6  C   LIG    1       23.449 -30.198  10.034  0.00  0.00    +0.001 C 
ATOM      7  C   LIG    1       22.231 -30.457  10.947  0.00  0.00    +0.036 C 
ATOM      8  C   LIG    1       23.717 -31.363   8.646  0.00  0.00    -0.026 C 
ATOM      9  C   LIG    1       22.836 -32.598   8.699  0.00  0.00    +0.012 C 
ATOM     10  C   LIG    1       25.274 -31.726   7.712  0.00  0.00    -0.002 C 
ATOM     11  C   LIG    1       25.286 -30.866   6.481  0.00  0.00    +0.035 C 
ATOM     12  C   LIG    1       25.073 -29.517   7.077  0.00  0.00    +0.115 C 
ATOM     13  C   LIG    1       25.282 -29.645   8.614  0.00  0.00    +0.032 C 
ATOM     14  C   LIG    1       26.859 -31.375   8.719  0.00  0.00    +0.004 C 
ATOM     15  C   LIG    1       24.825 -31.371   9.472  0.00  0.00    +0.009 C 
ATOM     16  C   LIG    1       26.651 -30.577  10.406  0.00  0.00    +0.004 C 
ATOM     17  C   LIG    1       25.718 -28.982  13.305  0.00  0.00    +0.005 C 
ATOM     18  C   LIG    1       22.489 -30.895  12.383  0.00  0.00    +0.121 C 
ATOM     19  C   LIG    1       24.695 -28.191  14.118  0.00  0.00    +0.005 C 
ENDROOT
BRANCH   1  21
ATOM     20  C   LIG    1       22.736 -26.240  13.288  0.00  0.00    +0.008 C 
ATOM     21  C   LIG    1       22.366 -27.703  13.068  0.00  0.00    -0.010 C 
BRANCH  21  22
ATOM     22  C   LIG    1       20.876 -27.909  13.498  0.00  0.00    +0.015 C 
BRANCH  22  23
ATOM     23  C   LIG    1       19.983 -26.689  13.249  0.00  0.00    +0.121 C 
BRANCH  23  24
ATOM     24  C   LIG    1       18.894 -26.563  14.274  0.00  0.00    +0.305 C 
ATOM     25  O   LIG    1       18.765 -27.255  15.277  0.00  0.00    -0.251 OA
BRANCH  24  26
ATOM     26  O   LIG    1       18.023 -25.577  14.007  0.00  0.00    -0.481 OA
ATOM     27  H   LIG    1       17.705 -25.781  13.102  0.00  0.00    +0.295 HD
ENDBRANCH  24  26
ENDBRANCH  23  24
ENDBRANCH  22  23
ENDBRANCH  21  22
ENDBRANCH   1  21
BRANCH  12  28
ATOM     28  O   LIG    1       23.752 -29.058   6.808  0.00  0.00    -0.392 OA
ATOM     29  H   LIG    1       23.404 -29.594   6.074  0.00  0.00    +0.210 HD
ENDBRANCH  12  28
BRANCH  18  30
ATOM     30  O   LIG    1       22.716 -32.312  12.335  0.00  0.00    -0.391 OA
ATOM     31  H   LIG    1       23.621 -32.470  12.025  0.00  0.00    +0.210 HD
ENDBRANCH  18  30
TORSDOF 7
ENDMDL
MODEL 2
REMARK VINA RESULT:      -6.0      2.595      7.184
REMARK  Name = *****
REMARK                            x       y       z     vdW  Elec       q    Type
REMARK                         _______ _______ _______ _____ _____    ______ ____
ROOT
ATOM      1  C   LIG    1       25.366 -30.218   8.103  0.00  0.00    +0.001 C 
ATOM      2  C   LIG    1       26.166 -30.524   9.428  0.00  0.00    +0.000 C 
ATOM      3  C   LIG    1       27.030 -31.809   9.102  0.00  0.00    +0.014 C 
ATOM      4  C   LIG    1       25.098 -30.974  10.448  0.00  0.00    +0.001 C 
ATOM      5  C   LIG    1       24.474 -29.945  11.425  0.00  0.00    -0.004 C 
ATOM      6  C   LIG    1       25.507 -28.367  11.679  0.00  0.00    +0.001 C 
ATOM      7  C   LIG    1       26.647 -28.214  10.648  0.00  0.00    +0.036 C 
ATOM      8  C   LIG    1       25.915 -28.032  13.433  0.00  0.00    -0.026 C 
ATOM      9  C   LIG    1       27.401 -27.871  13.700  0.00  0.00    +0.012 C 
ATOM     10  C   LIG    1       25.048 -28.610  14.963  0.00  0.00    -0.002 C 
ATOM     11  C   LIG    1       24.089 -27.534  15.386  0.00  0.00    +0.035 C 
ATOM     12  C   LIG    1       23.319 -27.331  14.126  0.00  0.00    +0.115 C 
ATOM     13  C   LIG    1       23.657 -28.516  13.174  0.00  0.00    +0.032 C 
ATOM     14  C   LIG    1       24.073 -30.234  14.713  0.00  0.00    +0.004 C 
ATOM     15  C   LIG    1       25.458 -29.330  13.309  0.00  0.00    +0.009 C 
ATOM     16  C   LIG    1       23.982 -30.925  12.969  0.00  0.00    +0.004 C 
ATOM     17  C   LIG    1       23.996 -31.646   9.608  0.00  0.00    +0.005 C 
ATOM     18  C   LIG    1       27.169 -29.468   9.961  0.00  0.00    +0.121 C 
ATOM     19  C   LIG    1       24.189 -31.215   8.155  0.00  0.00    +0.005 C 
ENDROOT
BRANCH   1  21
ATOM     20  C   LIG    1       24.024 -28.709   6.455  0.00  0.00    +0.008 C 
ATOM     21  C   LIG    1       24.951 -28.777   7.663  0.00  0.00    -0.010 C 
BRANCH  21  22
ATOM     22  C   LIG    1       26.218 -27.908   7.368  0.00  0.00    +0.015 C 
BRANCH  22  23
ATOM     23  C   LIG    1       25.900 -26.494   6.873  0.00  0.00    +0.121 C 
BRANCH  23  24
ATOM     24  C   LIG    1       26.155 -26.335   5.403  0.00  0.00    +0.305 C 
ATOM     25  O   LIG    1       25.528 -25.613   4.636  0.00  0.00    -0.251 OA
BRANCH  24  26
ATOM     26  O   LIG    1       27.183 -27.075   4.957  0.00  0.00    -0.481 OA
ATOM     27  H   LIG    1       27.145 -26.970   3.983  0.00  0.00    +0.295 HD
ENDBRANCH  24  26
ENDBRANCH  23  24
ENDBRANCH  22  23
ENDBRANCH  21  22
ENDBRANCH   1  21
BRANCH  12  28
ATOM     28  O   LIG    1       23.690 -26.101  13.511  0.00  0.00    -0.392 OA
ATOM     29  H   LIG    1       22.983 -25.459  13.699  0.00  0.00    +0.210 HD
ENDBRANCH  12  28
BRANCH  18  30
ATOM     30  O   LIG    1       28.111 -30.060  10.869  0.00  0.00    -0.391 OA
ATOM     31  H   LIG    1       29.007 -29.881  10.546  0.00  0.00    +0.210 HD
ENDBRANCH  18  30
TORSDOF 7
ENDMDL
MODEL 3
REMARK VINA RESULT:      -5.9      2.864      6.846
REMARK  Name = *****
REMARK                            x       y       z     vdW  Elec       q    Type
REMARK                         _______ _______ _______ _____ _____    ______ ____
ROOT
ATOM      1  C   LIG    1       25.372 -30.283   6.895  0.00  0.00    +0.001 C 
ATOM      2  C   LIG    1       25.576 -31.122   8.215  0.00  0.00    +0.000 C 
ATOM      3  C   LIG    1       26.907 -31.945   7.979  0.00  0.00    +0.014 C 
ATOM      4  C   LIG    1       24.428 -32.155   8.216  0.00  0.00    +0.001 C 
ATOM      5  C   LIG    1       23.112 -31.852   8.976  0.00  0.00    -0.004 C 
ATOM      6  C   LIG    1       23.263 -30.514  10.321  0.00  0.00    +0.001 C 
ATOM      7  C   LIG    1       24.585 -29.719  10.241  0.00  0.00    +0.036 C 
ATOM      8  C   LIG    1       22.721 -31.074  11.978  0.00  0.00    -0.026 C 
ATOM      9  C   LIG    1       23.769 -30.893  13.062  0.00  0.00    +0.012 C 
ATOM     10  C   LIG    1       21.568 -32.452  12.425  0.00  0.00    -0.002 C 
ATOM     11  C   LIG    1       20.196 -31.867  12.603  0.00  0.00    +0.035 C 
ATOM     12  C   LIG    1       20.027 -31.144  11.310  0.00  0.00    +0.115 C 
ATOM     13  C   LIG    1       21.156 -31.626  10.352  0.00  0.00    +0.032 C 
ATOM     14  C   LIG    1       21.481 -33.824  11.099  0.00  0.00    +0.004 C 
ATOM     15  C   LIG    1       22.884 -32.171  11.154  0.00  0.00    +0.009 C 
ATOM     16  C   LIG    1       22.412 -33.535   9.494  0.00  0.00    +0.004 C 
ATOM     17  C   LIG    1       24.133 -32.433   6.730  0.00  0.00    +0.005 C 
ATOM     18  C   LIG    1       25.778 -30.373   9.558  0.00  0.00    +0.121 C 
ATOM     19  C   LIG    1       24.753 -31.300   5.913  0.00  0.00    +0.005 C 
ENDROOT
BRANCH   1  21
ATOM     20  C   LIG    1       23.882 -28.577   5.603  0.00  0.00    +0.008 C 
ATOM     21  C   LIG    1       24.680 -28.882   6.866  0.00  0.00    -0.010 C 
BRANCH  21  22
ATOM     22  C   LIG    1       25.736 -27.745   7.073  0.00  0.00    +0.015 C 
BRANCH  22  23
ATOM     23  C   LIG    1       26.052 -26.952   5.802  0.00  0.00    +0.121 C 
BRANCH  23  24
ATOM     24  C   LIG    1       25.640 -25.513   5.912  0.00  0.00    +0.305 C 
ATOM     25  O   LIG    1       25.910 -24.754   6.835  0.00  0.00    -0.251 OA
BRANCH  24  26
ATOM     26  O   LIG    1       24.918 -25.084   4.863  0.00  0.00    -0.481 OA
ATOM     27  H   LIG    1       24.751 -24.139   5.062  0.00  0.00    +0.295 HD
ENDBRANCH  24  26
ENDBRANCH  23  24
ENDBRANCH  22  23
ENDBRANCH  21  22
ENDBRANCH   1  21
BRANCH  12  28
ATOM     28  O   LIG    1       20.136 -29.738  11.510  0.00  0.00    -0.392 OA
ATOM     29  H   LIG    1       20.886 -29.588  12.110  0.00  0.00    +0.210 HD
ENDBRANCH  12  28
BRANCH  18  30
ATOM     30  O   LIG    1       26.385 -31.227  10.540  0.00  0.00    -0.391 OA
ATOM     31  H   LIG    1       27.307 -30.953  10.662  0.00  0.00    +0.210 HD
ENDBRANCH  18  30
TORSDOF 7
ENDMDL
MODEL 4
REMARK VINA RESULT:      -5.9      3.100      6.943
REMARK  Name = *****
REMARK                            x       y       z     vdW  Elec       q    Type
REMARK                         _______ _______ _______ _____ _____    ______ ____
ROOT
ATOM      1  C   LIG    1       24.782 -30.948  10.128  0.00  0.00    +0.001 C 
ATOM      2  C   LIG    1       24.873 -30.994  11.702  0.00  0.00    +0.000 C 
ATOM      3  C   LIG    1       24.141 -32.332  12.120  0.00  0.00    +0.014 C 
ATOM      4  C   LIG    1       23.972 -29.840  12.191  0.00  0.00    +0.001 C 
ATOM      5  C   LIG    1       24.586 -28.452  12.501  0.00  0.00    -0.004 C 
ATOM      6  C   LIG    1       26.461 -28.469  12.823  0.00  0.00    +0.001 C 
ATOM      7  C   LIG    1       27.134 -29.801  12.427  0.00  0.00    +0.036 C 
ATOM      8  C   LIG    1       26.936 -27.739  14.435  0.00  0.00    -0.026 C 
ATOM      9  C   LIG    1       27.767 -28.662  15.308  0.00  0.00    +0.012 C 
ATOM     10  C   LIG    1       26.010 -26.526  15.484  0.00  0.00    -0.002 C 
ATOM     11  C   LIG    1       26.514 -25.150  15.154  0.00  0.00    +0.035 C 
ATOM     12  C   LIG    1       26.344 -25.135  13.673  0.00  0.00    +0.115 C 
ATOM     13  C   LIG    1       25.459 -26.357  13.290  0.00  0.00    +0.032 C 
ATOM     14  C   LIG    1       24.121 -26.570  15.202  0.00  0.00    +0.004 C 
ATOM     15  C   LIG    1       25.574 -27.979  14.423  0.00  0.00    +0.009 C 
ATOM     16  C   LIG    1       23.479 -27.677  13.829  0.00  0.00    +0.004 C 
ATOM     17  C   LIG    1       22.869 -29.709  11.124  0.00  0.00    +0.005 C 
ATOM     18  C   LIG    1       26.272 -31.054  12.371  0.00  0.00    +0.121 C 
ATOM     19  C   LIG    1       23.351 -30.431   9.866  0.00  0.00    +0.005 C 
ENDROOT
BRANCH   1  21
ATOM     20  C   LIG    1       25.791 -28.762   9.128  0.00  0.00    +0.008 C 
ATOM     21  C   LIG    1       25.867 -30.282   9.222  0.00  0.00    -0.010 C 
BRANCH  21  22
ATOM     22  C   LIG    1       25.811 -30.873   7.775  0.00  0.00    +0.015 C 
BRANCH  22  23
ATOM     23  C   LIG    1       25.198 -29.925   6.740  0.00  0.00    +0.121 C 
BRANCH  23  24
ATOM     24  C   LIG    1       23.914 -30.457   6.172  0.00  0.00    +0.305 C 
ATOM     25  O   LIG    1       23.475 -31.591   6.321  0.00  0.00    -0.251 OA
BRANCH  24  26
ATOM     26  O   LIG    1       23.233 -29.548   5.454  0.00  0.00    -0.481 OA
ATOM     27  H   LIG    1       23.621 -28.691   5.729  0.00  0.00    +0.295 HD
ENDBRANCH  24  26
ENDBRANCH  23  24
ENDBRANCH  22  23
ENDBRANCH  21  22
ENDBRANCH   1  21
BRANCH  12  28
ATOM     28  O   LIG    1       27.610 -25.238  13.027  0.00  0.00    -0.392 OA
ATOM     29  H   LIG    1       27.708 -24.456  12.457  0.00  0.00    +0.210 HD
ENDBRANCH  12  28
BRANCH  18  30
ATOM     30  O   LIG    1       26.179 -31.537  13.720  0.00  0.00    -0.391 OA
ATOM     31  H   LIG    1       27.072 -31.737  14.040  0.00  0.00    +0.210 HD
ENDBRANCH  18  30
TORSDOF 7
ENDMDL
MODEL 5
REMARK VINA RESULT:      -5.8      3.117      4.595
REMARK  Name = *****
REMARK                            x       y       z     vdW  Elec       q    Type
REMARK                         _______ _______ _______ _____ _____    ______ ____
ROOT
ATOM      1  C   LIG    1       26.605 -27.651  13.682  0.00  0.00    +0.001 C 
ATOM      2  C   LIG    1       26.745 -29.144  13.195  0.00  0.00    +0.000 C 
ATOM      3  C   LIG    1       28.302 -29.427  13.171  0.00  0.00    +0.014 C 
ATOM      4  C   LIG    1       26.288 -29.132  11.721  0.00  0.00    +0.001 C 
ATOM      5  C   LIG    1       24.821 -29.473  11.359  0.00  0.00    -0.004 C 
ATOM      6  C   LIG    1       23.883 -30.452  12.694  0.00  0.00    +0.001 C 
ATOM      7  C   LIG    1       24.620 -30.489  14.050  0.00  0.00    +0.036 C 
ATOM      8  C   LIG    1       23.170 -32.025  12.085  0.00  0.00    -0.026 C 
ATOM      9  C   LIG    1       23.597 -33.244  12.883  0.00  0.00    +0.012 C 
ATOM     10  C   LIG    1       22.729 -32.514  10.355  0.00  0.00    -0.002 C 
ATOM     11  C   LIG    1       21.268 -32.226  10.151  0.00  0.00    +0.035 C 
ATOM     12  C   LIG    1       21.204 -30.794  10.560  0.00  0.00    +0.115 C 
ATOM     13  C   LIG    1       22.666 -30.266  10.653  0.00  0.00    +0.032 C 
ATOM     14  C   LIG    1       23.729 -31.575   9.026  0.00  0.00    +0.004 C 
ATOM     15  C   LIG    1       24.085 -31.550  11.165  0.00  0.00    +0.009 C 
ATOM     16  C   LIG    1       24.872 -30.206   9.613  0.00  0.00    +0.004 C 
ATOM     17  C   LIG    1       26.654 -27.730  11.197  0.00  0.00    +0.005 C 
ATOM     18  C   LIG    1       26.127 -30.276  14.057  0.00  0.00    +0.121 C 
ATOM     19  C   LIG    1       26.892 -26.829  12.408  0.00  0.00    +0.005 C 
ENDROOT
BRANCH   1  21
ATOM     20  C   LIG    1       24.193 -26.661  13.680  0.00  0.00    +0.008 C 
ATOM     21  C   LIG    1       25.386 -27.126  14.507  0.00  0.00    -0.010 C 
BRANCH  21  22
ATOM     22  C   LIG    1       25.824 -25.956  15.449  0.00  0.00    +0.015 C 
BRANCH  22  23
ATOM     23  C   LIG    1       25.018 -24.668  15.256  0.00  0.00    +0.121 C 
BRANCH  23  24
ATOM     24  C   LIG    1       25.871 -23.531  14.773  0.00  0.00    +0.305 C 
ATOM     25  O   LIG    1       25.500 -22.377  14.594  0.00  0.00    -0.251 OA
BRANCH  24  26
ATOM     26  O   LIG    1       27.147 -23.883  14.544  0.00  0.00    -0.481 OA
ATOM     27  H   LIG    1       27.400 -24.388  15.345  0.00  0.00    +0.295 HD
ENDBRANCH  24  26
ENDBRANCH  23  24
ENDBRANCH  22  23
ENDBRANCH  21  22
ENDBRANCH   1  21
BRANCH  12  28
ATOM     28  O   LIG    1       20.566 -30.667  11.827  0.00  0.00    -0.392 OA
ATOM     29  H   LIG    1       20.474 -31.563  12.195  0.00  0.00    +0.210 HD
ENDBRANCH  12  28
BRANCH  18  30
ATOM     30  O   LIG    1       26.712 -31.548  13.738  0.00  0.00    -0.391 OA
ATOM     31  H   LIG    1       26.350 -32.216  14.341  0.00  0.00    +0.210 HD
ENDBRANCH  18  30
TORSDOF 7
ENDMDL
MODEL 6
REMARK VINA RESULT:      -5.5      1.427      1.886
REMARK  Name = *****
REMARK                            x       y       z     vdW  Elec       q    Type
REMARK                         _______ _______ _______ _____ _____    ______ ____
ROOT
ATOM      1  C   LIG    1       22.304 -27.951  14.012  0.00  0.00    +0.001 C 
ATOM      2  C   LIG    1       23.344 -29.136  14.000  0.00  0.00    +0.000 C 
ATOM      3  C   LIG    1       23.873 -29.238  15.488  0.00  0.00    +0.014 C 
ATOM      4  C   LIG    1       24.531 -28.623  13.156  0.00  0.00    +0.001 C 
ATOM      5  C   LIG    1       24.606 -28.947  11.643  0.00  0.00    -0.004 C 
ATOM      6  C   LIG    1       23.555 -30.436  11.098  0.00  0.00    +0.001 C 
ATOM      7  C   LIG    1       22.554 -30.902  12.178  0.00  0.00    +0.036 C 
ATOM      8  C   LIG    1       24.515 -31.734  10.232  0.00  0.00    -0.026 C 
ATOM      9  C   LIG    1       24.383 -33.114  10.851  0.00  0.00    +0.012 C 
ATOM     10  C   LIG    1       26.124 -31.587   9.329  0.00  0.00    -0.002 C 
ATOM     11  C   LIG    1       25.820 -31.387   7.871  0.00  0.00    +0.035 C 
ATOM     12  C   LIG    1       24.893 -30.222   7.934  0.00  0.00    +0.115 C 
ATOM     13  C   LIG    1       24.983 -29.627   9.370  0.00  0.00    +0.032 C 
ATOM     14  C   LIG    1       27.201 -30.131   9.935  0.00  0.00    +0.004 C 
ATOM     15  C   LIG    1       25.384 -30.866  10.864  0.00  0.00    +0.009 C 
ATOM     16  C   LIG    1       26.450 -28.972  11.207  0.00  0.00    +0.004 C 
ATOM     17  C   LIG    1       24.552 -27.099  13.377  0.00  0.00    +0.005 C 
ATOM     18  C   LIG    1       22.854 -30.561  13.632  0.00  0.00    +0.121 C 
ATOM     19  C   LIG    1       23.194 -26.691  13.946  0.00  0.00    +0.005 C 
ENDROOT
BRANCH   1  21
ATOM     20  C   LIG    1       20.476 -26.498  12.852  0.00  0.00    +0.008 C 
ATOM     21  C   LIG    1       21.059 -27.890  13.070  0.00  0.00    -0.010 C 
BRANCH  21  22
ATOM     22  C   LIG    1       19.923 -28.826  13.603  0.00  0.00    +0.015 C 
BRANCH  22  23
ATOM     23  C   LIG    1       19.129 -28.236  14.772  0.00  0.00    +0.121 C 
BRANCH  23  24
ATOM     24  C   LIG    1       17.646 -28.370  14.576  0.00  0.00    +0.305 C 
ATOM     25  O   LIG    1       16.785 -27.673  15.099  0.00  0.00    -0.251 OA
BRANCH  24  26
ATOM     26  O   LIG    1       17.308 -29.358  13.733  0.00  0.00    -0.481 OA
ATOM     27  H   LIG    1       16.948 -28.888  12.951  0.00  0.00    +0.295 HD
ENDBRANCH  24  26
ENDBRANCH  23  24
ENDBRANCH  22  23
ENDBRANCH  21  22
ENDBRANCH   1  21
BRANCH  12  28
ATOM     28  O   LIG    1       23.556 -30.636   7.669  0.00  0.00    -0.392 OA
ATOM     29  H   LIG    1       23.003 -30.309   8.400  0.00  0.00    +0.210 HD
ENDBRANCH  12  28
BRANCH  18  30
ATOM     30  O   LIG    1       23.774 -31.561  14.096  0.00  0.00    -0.391 OA
ATOM     31  H   LIG    1       23.270 -32.343  14.371  0.00  0.00    +0.210 HD
ENDBRANCH  18  30
TORSDOF 7
ENDMDL
MODEL 7
REMARK VINA RESULT:      -5.3      1.944      2.922
REMARK  Name = *****
REMARK                            x       y       z     vdW  Elec       q    Type
REMARK                         _______ _______ _______ _____ _____    ______ ____
ROOT
ATOM      1  C   LIG    1       25.826 -27.381  14.357  0.00  0.00    +0.001 C 
ATOM      2  C   LIG    1       26.574 -28.662  13.822  0.00  0.00    +0.000 C 
ATOM      3  C   LIG    1       28.022 -28.591  14.455  0.00  0.00    +0.014 C 
ATOM      4  C   LIG    1       26.756 -28.419  12.308  0.00  0.00    +0.001 C 
ATOM      5  C   LIG    1       25.720 -28.979  11.301  0.00  0.00    -0.004 C 
ATOM      6  C   LIG    1       24.658 -30.410  11.970  0.00  0.00    +0.001 C 
ATOM      7  C   LIG    1       24.774 -30.589  13.499  0.00  0.00    +0.036 C 
ATOM      8  C   LIG    1       24.734 -31.923  10.941  0.00  0.00    -0.026 C 
ATOM      9  C   LIG    1       25.145 -33.168  11.707  0.00  0.00    +0.012 C 
ATOM     10  C   LIG    1       25.176 -32.096   9.152  0.00  0.00    -0.002 C 
ATOM     11  C   LIG    1       23.901 -32.091   8.358  0.00  0.00    +0.035 C 
ATOM     12  C   LIG    1       23.267 -30.834   8.850  0.00  0.00    +0.115 C 
ATOM     13  C   LIG    1       24.351 -30.039   9.636  0.00  0.00    +0.032 C 
ATOM     14  C   LIG    1       26.302 -30.691   8.511  0.00  0.00    +0.004 C 
ATOM     15  C   LIG    1       25.758 -31.069  10.577  0.00  0.00    +0.009 C 
ATOM     16  C   LIG    1       26.668 -29.275   9.688  0.00  0.00    +0.004 C 
ATOM     17  C   LIG    1       26.875 -26.891  12.157  0.00  0.00    +0.005 C 
ATOM     18  C   LIG    1       26.023 -30.064  14.193  0.00  0.00    +0.121 C 
ATOM     19  C   LIG    1       26.341 -26.253  13.438  0.00  0.00    +0.005 C 
ENDROOT
BRANCH   1  21
ATOM     20  C   LIG    1       23.735 -28.441  15.500  0.00  0.00    +0.008 C 
ATOM     21  C   LIG    1       24.285 -27.329  14.612  0.00  0.00    -0.010 C 
BRANCH  21  22
ATOM     22  C   LIG    1       23.505 -27.345  13.256  0.00  0.00    +0.015 C 
BRANCH  22  23
ATOM     23  C   LIG    1       22.226 -26.502  13.266  0.00  0.00    +0.121 C 
BRANCH  23  24
ATOM     24  C   LIG    1       21.010 -27.309  12.917  0.00  0.00    +0.305 C 
ATOM     25  O   LIG    1       20.949 -28.532  12.855  0.00  0.00    -0.251 OA
BRANCH  24  26
ATOM     26  O   LIG    1       19.924 -26.558  12.671  0.00  0.00    -0.481 OA
ATOM     27  H   LIG    1       19.930 -25.892  13.391  0.00  0.00    +0.295 HD
ENDBRANCH  24  26
ENDBRANCH  23  24
ENDBRANCH  22  23
ENDBRANCH  21  22
ENDBRANCH   1  21
BRANCH  12  28
ATOM     28  O   LIG    1       22.174 -31.134   9.712  0.00  0.00    -0.392 OA
ATOM     29  H   LIG    1       22.192 -32.092   9.880  0.00  0.00    +0.210 HD
ENDBRANCH  12  28
BRANCH  18  30
ATOM     30  O   LIG    1       27.028 -31.076  14.028  0.00  0.00    -0.391 OA
ATOM     31  H   LIG    1       27.071 -31.606  14.839  0.00  0.00    +0.210 HD
ENDBRANCH  18  30
TORSDOF 7
ENDMDL
MODEL 8
REMARK VINA RESULT:      -5.1      1.764      2.083
REMARK  Name = *****
REMARK                            x       y       z     vdW  Elec       q    Type
REMARK                         _______ _______ _______ _____ _____    ______ ____
ROOT
ATOM      1  C   LIG    1       23.497 -29.659  13.127  0.00  0.00    +0.001 C 
ATOM      2  C   LIG    1       23.788 -31.047  12.437  0.00  0.00    +0.000 C 
ATOM      3  C   LIG    1       24.109 -32.040  13.627  0.00  0.00    +0.014 C 
ATOM      4  C   LIG    1       25.116 -30.848  11.675  0.00  0.00    +0.001 C 
ATOM      5  C   LIG    1       25.100 -30.454  10.177  0.00  0.00    -0.004 C 
ATOM      6  C   LIG    1       23.470 -30.838   9.274  0.00  0.00    +0.001 C 
ATOM      7  C   LIG    1       22.314 -31.195  10.233  0.00  0.00    +0.036 C 
ATOM      8  C   LIG    1       23.683 -31.891   7.791  0.00  0.00    -0.026 C 
ATOM      9  C   LIG    1       22.834 -33.149   7.802  0.00  0.00    +0.012 C 
ATOM     10  C   LIG    1       25.191 -32.144   6.747  0.00  0.00    -0.002 C 
ATOM     11  C   LIG    1       25.113 -31.197   5.583  0.00  0.00    +0.035 C 
ATOM     12  C   LIG    1       24.905 -29.901   6.288  0.00  0.00    +0.115 C 
ATOM     13  C   LIG    1       25.205 -30.134   7.798  0.00  0.00    +0.032 C 
ATOM     14  C   LIG    1       26.823 -31.825   7.686  0.00  0.00    +0.004 C 
ATOM     15  C   LIG    1       24.837 -31.930   8.551  0.00  0.00    +0.009 C 
ATOM     16  C   LIG    1       26.695 -31.158   9.437  0.00  0.00    +0.004 C 
ATOM     17  C   LIG    1       25.897 -29.802  12.493  0.00  0.00    +0.005 C 
ATOM     18  C   LIG    1       22.663 -31.728  11.615  0.00  0.00    +0.121 C 
ATOM     19  C   LIG    1       24.905 -29.100  13.419  0.00  0.00    +0.005 C 
ENDROOT
BRANCH   1  21
ATOM     20  C   LIG    1       22.719 -27.171  13.035  0.00  0.00    +0.008 C 
ATOM     21  C   LIG    1       22.510 -28.599  12.541  0.00  0.00    -0.010 C 
BRANCH  21  22
ATOM     22  C   LIG    1       21.028 -29.012  12.829  0.00  0.00    +0.015 C 
BRANCH  22  23
ATOM     23  C   LIG    1       20.820 -29.664  14.199  0.00  0.00    +0.121 C 
BRANCH  23  24
ATOM     24  C   LIG    1       19.918 -30.861  14.128  0.00  0.00    +0.305 C 
ATOM     25  O   LIG    1       18.726 -30.849  13.845  0.00  0.00    -0.251 OA
BRANCH  24  26
ATOM     26  O   LIG    1       20.544 -32.017  14.403  0.00  0.00    -0.481 OA
ATOM     27  H   LIG    1       20.932 -32.285  13.543  0.00  0.00    +0.295 HD
ENDBRANCH  24  26
ENDBRANCH  23  24
ENDBRANCH  22  23
ENDBRANCH  21  22
ENDBRANCH   1  21
BRANCH  12  28
ATOM     28  O   LIG    1       23.560 -29.459   6.129  0.00  0.00    -0.392 OA
ATOM     29  H   LIG    1       23.474 -28.616   6.608  0.00  0.00    +0.210 HD
ENDBRANCH  12  28
BRANCH  18  30
ATOM     30  O   LIG    1       22.920 -33.131  11.450  0.00  0.00    -0.391 OA
ATOM     31  H   LIG    1       23.293 -33.478  12.275  0.00  0.00    +0.210 HD
ENDBRANCH  18  30
TORSDOF 7
ENDMDL
MODEL 9
REMARK VINA RESULT:      -5.1      2.034      6.995
REMARK  Name = *****
REMARK                            x       y       z     vdW  Elec       q    Type
REMARK                         _______ _______ _______ _____ _____    ______ ____
ROOT
ATOM      1  C   LIG    1       24.890 -30.805   8.177  0.00  0.00    +0.001 C 
ATOM      2  C   LIG    1       25.298 -31.158   9.659  0.00  0.00    +0.000 C 
ATOM      3  C   LIG    1       26.186 -32.463   9.544  0.00  0.00    +0.014 C 
ATOM      4  C   LIG    1       23.986 -31.592  10.346  0.00  0.00    +0.001 C 
ATOM      5  C   LIG    1       23.150 -30.562  11.146  0.00  0.00    -0.004 C 
ATOM      6  C   LIG    1       24.116 -29.021  11.706  0.00  0.00    +0.001 C 
ATOM      7  C   LIG    1       25.493 -28.885  11.020  0.00  0.00    +0.036 C 
ATOM      8  C   LIG    1       24.049 -28.728  13.512  0.00  0.00    -0.026 C 
ATOM      9  C   LIG    1       25.413 -28.617  14.169  0.00  0.00    +0.012 C 
ATOM     10  C   LIG    1       22.790 -29.305  14.741  0.00  0.00    -0.002 C 
ATOM     11  C   LIG    1       21.780 -28.207  14.919  0.00  0.00    +0.035 C 
ATOM     12  C   LIG    1       21.380 -27.959  13.505  0.00  0.00    +0.115 C 
ATOM     13  C   LIG    1       21.930 -29.138  12.649  0.00  0.00    +0.032 C 
ATOM     14  C   LIG    1       21.877 -30.894  14.200  0.00  0.00    +0.004 C 
ATOM     15  C   LIG    1       23.609 -30.009  13.239  0.00  0.00    +0.009 C 
ATOM     16  C   LIG    1       22.239 -31.552  12.479  0.00  0.00    +0.004 C 
ATOM     17  C   LIG    1       23.132 -32.217   9.226  0.00  0.00    +0.005 C 
ATOM     18  C   LIG    1       26.149 -30.142  10.466  0.00  0.00    +0.121 C 
ATOM     19  C   LIG    1       23.717 -31.766   7.889  0.00  0.00    +0.005 C 
ENDROOT
BRANCH   1  21
ATOM     20  C   LIG    1       23.877 -29.228   6.364  0.00  0.00    +0.008 C 
ATOM     21  C   LIG    1       24.643 -29.345   7.678  0.00  0.00    -0.010 C 
BRANCH  21  22
ATOM     22  C   LIG    1       26.000 -28.580   7.531  0.00  0.00    +0.015 C 
BRANCH  22  23
ATOM     23  C   LIG    1       25.842 -27.070   7.329  0.00  0.00    +0.121 C 
BRANCH  23  24
ATOM     24  C   LIG    1       26.338 -26.622   5.985  0.00  0.00    +0.305 C 
ATOM     25  O   LIG    1       26.369 -25.467   5.575  0.00  0.00    -0.251 OA
BRANCH  24  26
ATOM     26  O   LIG    1       26.781 -27.631   5.217  0.00  0.00    -0.481 OA
ATOM     27  H   LIG    1       26.456 -28.435   5.674  0.00  0.00    +0.295 HD
ENDBRANCH  24  26
ENDBRANCH  23  24
ENDBRANCH  22  23
ENDBRANCH  21  22
ENDBRANCH   1  21
BRANCH  12  28
ATOM     28  O   LIG    1       21.932 -26.731  13.041  0.00  0.00    -0.392 OA
ATOM     29  H   LIG    1       22.747 -26.571  13.547  0.00  0.00    +0.210 HD
ENDBRANCH  12  28
BRANCH  18  30
ATOM     30  O   LIG    1       26.798 -30.778  11.577  0.00  0.00    -0.391 OA
ATOM     31  H   LIG    1       26.807 -30.162  12.325  0.00  0.00    +0.210 HD
ENDBRANCH  18  30
TORSDOF 7
ENDMDL
