MODEL 1
REMARK VINA RESULT:      -7.6      0.000      0.000
REMARK  Name = *****
REMARK                            x       y       z     vdW  Elec       q    Type
REMARK                         _______ _______ _______ _____ _____    ______ ____
ROOT
ATOM      1  C   LIG    1       28.835 -20.528   7.427  0.00  0.00    +0.001 A 
ATOM      2  C   LIG    1       28.306 -20.233   6.173  0.00  0.00    +0.017 A 
ATOM      3  C   LIG    1       26.925 -20.323   5.936  0.00  0.00    +0.034 A 
ATOM      4  S   LIG    1       26.371 -19.947   4.283  0.00  0.00    -0.086 S 
ATOM      5  C   LIG    1       24.619 -19.747   4.532  0.00  0.00    +0.034 A 
ATOM      6  C   LIG    1       23.955 -20.191   5.690  0.00  0.00    +0.048 A 
ATOM      7  N   LIG    1       24.646 -20.840   6.752  0.00  0.00    -0.298 N 
ATOM      8  C   LIG    1       22.572 -19.939   5.789  0.00  0.00    +0.024 A 
ATOM      9  C   LIG    1       21.865 -19.319   4.752  0.00  0.00    +0.002 A 
ATOM     10  C   LIG    1       22.526 -18.934   3.597  0.00  0.00    +0.001 A 
ATOM     11  C   LIG    1       23.899 -19.143   3.485  0.00  0.00    +0.017 A 
ATOM     12  C   LIG    1       26.049 -20.744   6.957  0.00  0.00    +0.048 A 
ATOM     13  C   LIG    1       26.609 -21.011   8.222  0.00  0.00    +0.024 A 
ATOM     14  C   LIG    1       27.985 -20.912   8.453  0.00  0.00    +0.002 A 
ENDROOT
BRANCH   7  15
ATOM     15  C   LIG    1       24.002 -22.085   7.256  0.00  0.00    +0.116 C 
BRANCH  15  16
ATOM     16  C   LIG    1       23.975 -23.229   6.215  0.00  0.00    +0.024 C 
ATOM     17  C   LIG    1       25.360 -23.661   5.677  0.00  0.00    -0.003 C 
ATOM     18  C   LIG    1       26.096 -24.481   6.748  0.00  0.00    +0.019 C 
ATOM     19  C   LIG    1       25.303 -25.765   7.037  0.00  0.00    +0.085 C 
ATOM     20  N   LIG    1       23.972 -25.737   6.389  0.00  0.00    -0.302 NA
ATOM     21  C   LIG    1       24.167 -25.729   4.921  0.00  0.00    +0.085 C 
ATOM     22  C   LIG    1       25.103 -24.593   4.480  0.00  0.00    +0.019 C 
ATOM     23  C   LIG    1       23.282 -24.489   6.795  0.00  0.00    +0.089 C 
ENDBRANCH  15  16
ENDBRANCH   7  15
TORSDOF 2
ENDMDL
MODEL 2
REMARK VINA RESULT:      -7.5      1.180      1.624
REMARK  Name = *****
REMARK                            x       y       z     vdW  Elec       q    Type
REMARK                         _______ _______ _______ _____ _____    ______ ____
ROOT
ATOM      1  C   LIG    1       29.450 -19.928   6.894  0.00  0.00    +0.001 A 
ATOM      2  C   LIG    1       28.503 -19.750   5.889  0.00  0.00    +0.017 A 
ATOM      3  C   LIG    1       27.269 -20.421   5.937  0.00  0.00    +0.034 A 
ATOM      4  S   LIG    1       26.150 -20.135   4.579  0.00  0.00    -0.086 S 
ATOM      5  C   LIG    1       24.623 -20.774   5.236  0.00  0.00    +0.034 A 
ATOM      6  C   LIG    1       24.566 -21.606   6.369  0.00  0.00    +0.048 A 
ATOM      7  N   LIG    1       25.739 -22.001   7.072  0.00  0.00    -0.298 N 
ATOM      8  C   LIG    1       23.294 -22.016   6.817  0.00  0.00    +0.024 A 
ATOM      9  C   LIG    1       22.127 -21.657   6.133  0.00  0.00    +0.002 A 
ATOM     10  C   LIG    1       22.206 -20.878   4.990  0.00  0.00    +0.001 A 
ATOM     11  C   LIG    1       23.447 -20.433   4.542  0.00  0.00    +0.017 A 
ATOM     12  C   LIG    1       26.980 -21.312   6.990  0.00  0.00    +0.048 A 
ATOM     13  C   LIG    1       27.946 -21.451   8.006  0.00  0.00    +0.024 A 
ATOM     14  C   LIG    1       29.169 -20.775   7.956  0.00  0.00    +0.002 A 
ENDROOT
BRANCH   7  15
ATOM     15  C   LIG    1       25.826 -23.454   7.389  0.00  0.00    +0.116 C 
BRANCH  15  16
ATOM     16  C   LIG    1       25.369 -24.366   6.227  0.00  0.00    +0.024 C 
ATOM     17  C   LIG    1       26.323 -25.540   5.898  0.00  0.00    -0.003 C 
ATOM     18  C   LIG    1       26.190 -26.629   6.974  0.00  0.00    +0.019 C 
ATOM     19  C   LIG    1       24.760 -27.190   6.952  0.00  0.00    +0.085 C 
ATOM     20  N   LIG    1       23.874 -26.382   6.084  0.00  0.00    -0.302 NA
ATOM     21  C   LIG    1       24.353 -26.501   4.687  0.00  0.00    +0.085 C 
ATOM     22  C   LIG    1       25.842 -26.146   4.567  0.00  0.00    +0.019 C 
ATOM     23  C   LIG    1       23.968 -24.965   6.511  0.00  0.00    +0.089 C 
ENDBRANCH  15  16
ENDBRANCH   7  15
TORSDOF 2
ENDMDL
MODEL 3
REMARK VINA RESULT:      -6.6      2.159      5.396
REMARK  Name = *****
REMARK                            x       y       z     vdW  Elec       q    Type
REMARK                         _______ _______ _______ _____ _____    ______ ____
ROOT
ATOM      1  C   LIG    1       24.368 -24.676   6.824  0.00  0.00    +0.001 A 
ATOM      2  C   LIG    1       23.715 -23.636   6.166  0.00  0.00    +0.017 A 
ATOM      3  C   LIG    1       24.367 -22.416   5.925  0.00  0.00    +0.034 A 
ATOM      4  S   LIG    1       23.419 -21.152   5.099  0.00  0.00    -0.086 S 
ATOM      5  C   LIG    1       24.696 -20.011   4.611  0.00  0.00    +0.034 A 
ATOM      6  C   LIG    1       25.994 -20.038   5.152  0.00  0.00    +0.048 A 
ATOM      7  N   LIG    1       26.378 -20.989   6.139  0.00  0.00    -0.298 N 
ATOM      8  C   LIG    1       26.929 -19.108   4.655  0.00  0.00    +0.024 A 
ATOM      9  C   LIG    1       26.573 -18.152   3.698  0.00  0.00    +0.002 A 
ATOM     10  C   LIG    1       25.276 -18.106   3.214  0.00  0.00    +0.001 A 
ATOM     11  C   LIG    1       24.339 -19.034   3.663  0.00  0.00    +0.017 A 
ATOM     12  C   LIG    1       25.687 -22.209   6.372  0.00  0.00    +0.048 A 
ATOM     13  C   LIG    1       26.332 -23.287   7.011  0.00  0.00    +0.024 A 
ATOM     14  C   LIG    1       25.679 -24.502   7.242  0.00  0.00    +0.002 A 
ENDROOT
BRANCH   7  15
ATOM     15  C   LIG    1       27.108 -20.424   7.309  0.00  0.00    +0.116 C 
BRANCH  15  16
ATOM     16  C   LIG    1       28.644 -20.422   7.133  0.00  0.00    +0.024 C 
ATOM     17  C   LIG    1       29.293 -19.020   7.029  0.00  0.00    -0.003 C 
ATOM     18  C   LIG    1       29.323 -18.362   8.417  0.00  0.00    +0.019 C 
ATOM     19  C   LIG    1       30.205 -19.200   9.355  0.00  0.00    +0.085 C 
ATOM     20  N   LIG    1       30.577 -20.493   8.739  0.00  0.00    -0.302 NA
ATOM     21  C   LIG    1       31.427 -20.220   7.556  0.00  0.00    +0.085 C 
ATOM     22  C   LIG    1       30.752 -19.236   6.590  0.00  0.00    +0.019 C 
ATOM     23  C   LIG    1       29.335 -21.175   8.298  0.00  0.00    +0.089 C 
ENDBRANCH  15  16
ENDBRANCH   7  15
TORSDOF 2
ENDMDL
MODEL 4
REMARK VINA RESULT:      -6.0      5.794     10.005
REMARK  Name = *****
REMARK                            x       y       z     vdW  Elec       q    Type
REMARK                         _______ _______ _______ _____ _____    ______ ____
ROOT
ATOM      1  C   LIG    1       27.152 -33.334   4.961  0.00  0.00    +0.001 A 
ATOM      2  C   LIG    1       27.456 -33.065   6.293  0.00  0.00    +0.017 A 
ATOM      3  C   LIG    1       26.606 -32.267   7.077  0.00  0.00    +0.034 A 
ATOM      4  S   LIG    1       27.116 -31.971   8.759  0.00  0.00    -0.086 S 
ATOM      5  C   LIG    1       25.614 -31.342   9.481  0.00  0.00    +0.034 A 
ATOM      6  C   LIG    1       24.529 -30.885   8.711  0.00  0.00    +0.048 A 
ATOM      7  N   LIG    1       24.559 -30.892   7.289  0.00  0.00    -0.298 N 
ATOM      8  C   LIG    1       23.378 -30.447   9.398  0.00  0.00    +0.024 A 
ATOM      9  C   LIG    1       23.329 -30.412  10.796  0.00  0.00    +0.002 A 
ATOM     10  C   LIG    1       24.427 -30.818  11.538  0.00  0.00    +0.001 A 
ATOM     11  C   LIG    1       25.565 -31.285  10.886  0.00  0.00    +0.017 A 
ATOM     12  C   LIG    1       25.443 -31.698   6.521  0.00  0.00    +0.048 A 
ATOM     13  C   LIG    1       25.147 -32.009   5.179  0.00  0.00    +0.024 A 
ATOM     14  C   LIG    1       25.994 -32.810   4.405  0.00  0.00    +0.002 A 
ENDROOT
BRANCH   7  15
ATOM     15  C   LIG    1       24.109 -29.628   6.641  0.00  0.00    +0.116 C 
BRANCH  15  16
ATOM     16  C   LIG    1       25.273 -28.683   6.260  0.00  0.00    +0.024 C 
ATOM     17  C   LIG    1       25.017 -27.789   5.023  0.00  0.00    -0.003 C 
ATOM     18  C   LIG    1       24.050 -26.656   5.397  0.00  0.00    +0.019 C 
ATOM     19  C   LIG    1       24.701 -25.768   6.469  0.00  0.00    +0.085 C 
ATOM     20  N   LIG    1       25.946 -26.374   6.992  0.00  0.00    -0.302 NA
ATOM     21  C   LIG    1       26.936 -26.433   5.890  0.00  0.00    +0.085 C 
ATOM     22  C   LIG    1       26.364 -27.143   4.654  0.00  0.00    +0.019 C 
ATOM     23  C   LIG    1       25.640 -27.753   7.445  0.00  0.00    +0.089 C 
ENDBRANCH  15  16
ENDBRANCH   7  15
TORSDOF 2
ENDMDL
MODEL 5
REMARK VINA RESULT:      -6.0      7.974      9.737
REMARK  Name = *****
REMARK                            x       y       z     vdW  Elec       q    Type
REMARK                         _______ _______ _______ _____ _____    ______ ____
ROOT
ATOM      1  C   LIG    1       28.384 -28.795  14.567  0.00  0.00    +0.001 A 
ATOM      2  C   LIG    1       27.507 -27.734  14.359  0.00  0.00    +0.017 A 
ATOM      3  C   LIG    1       26.241 -27.949  13.789  0.00  0.00    +0.034 A 
ATOM      4  S   LIG    1       25.218 -26.508  13.548  0.00  0.00    -0.086 S 
ATOM      5  C   LIG    1       23.626 -27.248  13.252  0.00  0.00    +0.034 A 
ATOM      6  C   LIG    1       23.462 -28.608  12.930  0.00  0.00    +0.048 A 
ATOM      7  N   LIG    1       24.570 -29.493  12.815  0.00  0.00    -0.298 N 
ATOM      8  C   LIG    1       22.147 -29.085  12.758  0.00  0.00    +0.024 A 
ATOM      9  C   LIG    1       21.041 -28.232  12.847  0.00  0.00    +0.002 A 
ATOM     10  C   LIG    1       21.225 -26.886  13.115  0.00  0.00    +0.001 A 
ATOM     11  C   LIG    1       22.511 -26.392  13.321  0.00  0.00    +0.017 A 
ATOM     12  C   LIG    1       25.846 -29.240  13.389  0.00  0.00    +0.048 A 
ATOM     13  C   LIG    1       26.743 -30.299  13.635  0.00  0.00    +0.024 A 
ATOM     14  C   LIG    1       28.000 -30.079  14.210  0.00  0.00    +0.002 A 
ENDROOT
BRANCH   7  15
ATOM     15  C   LIG    1       24.566 -30.356  11.600  0.00  0.00    +0.116 C 
BRANCH  15  16
ATOM     16  C   LIG    1       24.794 -29.570  10.288  0.00  0.00    +0.024 C 
ATOM     17  C   LIG    1       26.271 -29.452   9.840  0.00  0.00    -0.003 C 
ATOM     18  C   LIG    1       26.745 -30.797   9.268  0.00  0.00    +0.019 C 
ATOM     19  C   LIG    1       25.921 -31.134   8.017  0.00  0.00    +0.085 C 
ATOM     20  N   LIG    1       24.777 -30.209   7.856  0.00  0.00    -0.302 NA
ATOM     21  C   LIG    1       25.308 -28.848   7.608  0.00  0.00    +0.085 C 
ATOM     22  C   LIG    1       26.309 -28.425   8.695  0.00  0.00    +0.019 C 
ATOM     23  C   LIG    1       23.998 -30.204   9.118  0.00  0.00    +0.089 C 
ENDBRANCH  15  16
ENDBRANCH   7  15
TORSDOF 2
ENDMDL
MODEL 6
REMARK VINA RESULT:      -6.0      1.844      5.686
REMARK  Name = *****
REMARK                            x       y       z     vdW  Elec       q    Type
REMARK                         _______ _______ _______ _____ _____    ______ ____
ROOT
ATOM      1  C   LIG    1       22.766 -19.997   5.752  0.00  0.00    +0.001 A 
ATOM      2  C   LIG    1       23.156 -21.017   4.888  0.00  0.00    +0.017 A 
ATOM      3  C   LIG    1       23.999 -22.050   5.329  0.00  0.00    +0.034 A 
ATOM      4  S   LIG    1       24.451 -23.283   4.123  0.00  0.00    -0.086 S 
ATOM      5  C   LIG    1       25.107 -24.573   5.161  0.00  0.00    +0.034 A 
ATOM      6  C   LIG    1       25.472 -24.363   6.503  0.00  0.00    +0.048 A 
ATOM      7  N   LIG    1       25.343 -23.091   7.128  0.00  0.00    -0.298 N 
ATOM      8  C   LIG    1       25.942 -25.472   7.235  0.00  0.00    +0.024 A 
ATOM      9  C   LIG    1       26.096 -26.729   6.639  0.00  0.00    +0.002 A 
ATOM     10  C   LIG    1       25.780 -26.906   5.302  0.00  0.00    +0.001 A 
ATOM     11  C   LIG    1       25.283 -25.834   4.563  0.00  0.00    +0.017 A 
ATOM     12  C   LIG    1       24.493 -22.057   6.649  0.00  0.00    +0.048 A 
ATOM     13  C   LIG    1       24.061 -21.028   7.508  0.00  0.00    +0.024 A 
ATOM     14  C   LIG    1       23.215 -20.005   7.065  0.00  0.00    +0.002 A 
ENDROOT
BRANCH   7  15
ATOM     15  C   LIG    1       26.536 -22.642   7.900  0.00  0.00    +0.116 C 
BRANCH  15  16
ATOM     16  C   LIG    1       27.551 -21.842   7.051  0.00  0.00    +0.024 C 
ATOM     17  C   LIG    1       27.219 -20.341   6.869  0.00  0.00    -0.003 C 
ATOM     18  C   LIG    1       27.519 -19.586   8.172  0.00  0.00    +0.019 C 
ATOM     19  C   LIG    1       29.022 -19.681   8.479  0.00  0.00    +0.085 C 
ATOM     20  N   LIG    1       29.698 -20.645   7.581  0.00  0.00    -0.302 NA
ATOM     21  C   LIG    1       29.621 -20.125   6.195  0.00  0.00    +0.085 C 
ATOM     22  C   LIG    1       28.175 -19.800   5.792  0.00  0.00    +0.019 C 
ATOM     23  C   LIG    1       28.976 -21.938   7.655  0.00  0.00    +0.089 C 
ENDBRANCH  15  16
ENDBRANCH   7  15
TORSDOF 2
ENDMDL
MODEL 7
REMARK VINA RESULT:      -5.9      1.732      4.725
REMARK  Name = *****
REMARK                            x       y       z     vdW  Elec       q    Type
REMARK                         _______ _______ _______ _____ _____    ______ ____
ROOT
ATOM      1  C   LIG    1       23.964 -25.159   6.472  0.00  0.00    +0.001 A 
ATOM      2  C   LIG    1       23.222 -24.022   6.782  0.00  0.00    +0.017 A 
ATOM      3  C   LIG    1       23.542 -22.778   6.214  0.00  0.00    +0.034 A 
ATOM      4  S   LIG    1       22.537 -21.391   6.710  0.00  0.00    -0.086 S 
ATOM      5  C   LIG    1       22.965 -20.181   5.475  0.00  0.00    +0.034 A 
ATOM      6  C   LIG    1       24.096 -20.301   4.647  0.00  0.00    +0.048 A 
ATOM      7  N   LIG    1       24.986 -21.408   4.744  0.00  0.00    -0.298 N 
ATOM      8  C   LIG    1       24.308 -19.299   3.679  0.00  0.00    +0.024 A 
ATOM      9  C   LIG    1       23.459 -18.191   3.576  0.00  0.00    +0.002 A 
ATOM     10  C   LIG    1       22.379 -18.064   4.433  0.00  0.00    +0.001 A 
ATOM     11  C   LIG    1       22.127 -19.055   5.378  0.00  0.00    +0.017 A 
ATOM     12  C   LIG    1       24.640 -22.651   5.341  0.00  0.00    +0.048 A 
ATOM     13  C   LIG    1       25.356 -23.822   5.024  0.00  0.00    +0.024 A 
ATOM     14  C   LIG    1       25.028 -25.060   5.588  0.00  0.00    +0.002 A 
ENDROOT
BRANCH   7  15
ATOM     15  C   LIG    1       26.433 -21.053   4.780  0.00  0.00    +0.116 C 
BRANCH  15  16
ATOM     16  C   LIG    1       26.858 -20.332   6.080  0.00  0.00    +0.024 C 
ATOM     17  C   LIG    1       26.660 -21.149   7.380  0.00  0.00    -0.003 C 
ATOM     18  C   LIG    1       27.743 -22.234   7.476  0.00  0.00    +0.019 C 
ATOM     19  C   LIG    1       29.123 -21.566   7.570  0.00  0.00    +0.085 C 
ATOM     20  N   LIG    1       29.039 -20.110   7.311  0.00  0.00    -0.302 NA
ATOM     21  C   LIG    1       28.238 -19.489   8.392  0.00  0.00    +0.085 C 
ATOM     22  C   LIG    1       26.874 -20.178   8.554  0.00  0.00    +0.019 C 
ATOM     23  C   LIG    1       28.347 -19.906   6.016  0.00  0.00    +0.089 C 
ENDBRANCH  15  16
ENDBRANCH   7  15
TORSDOF 2
ENDMDL
MODEL 8
REMARK VINA RESULT:      -5.8      5.447      9.343
REMARK  Name = *****
REMARK                            x       y       z     vdW  Elec       q    Type
REMARK                         _______ _______ _______ _____ _____    ______ ____
ROOT
ATOM      1  C   LIG    1       26.083 -28.093  12.096  0.00  0.00    +0.001 A 
ATOM      2  C   LIG    1       24.906 -28.805  11.877  0.00  0.00    +0.017 A 
ATOM      3  C   LIG    1       24.714 -29.527  10.687  0.00  0.00    +0.034 A 
ATOM      4  S   LIG    1       23.156 -30.375  10.509  0.00  0.00    -0.086 S 
ATOM      5  C   LIG    1       23.501 -31.471   9.149  0.00  0.00    +0.034 A 
ATOM      6  C   LIG    1       24.609 -31.309   8.297  0.00  0.00    +0.048 A 
ATOM      7  N   LIG    1       25.537 -30.244   8.466  0.00  0.00    -0.298 N 
ATOM      8  C   LIG    1       24.797 -32.265   7.279  0.00  0.00    +0.024 A 
ATOM      9  C   LIG    1       23.889 -33.311   7.081  0.00  0.00    +0.002 A 
ATOM     10  C   LIG    1       22.776 -33.426   7.897  0.00  0.00    +0.001 A 
ATOM     11  C   LIG    1       22.581 -32.513   8.931  0.00  0.00    +0.017 A 
ATOM     12  C   LIG    1       25.698 -29.519   9.678  0.00  0.00    +0.048 A 
ATOM     13  C   LIG    1       26.889 -28.812   9.939  0.00  0.00    +0.024 A 
ATOM     14  C   LIG    1       27.077 -28.101  11.129  0.00  0.00    +0.002 A 
ENDROOT
BRANCH   7  15
ATOM     15  C   LIG    1       25.883 -29.504   7.219  0.00  0.00    +0.116 C 
BRANCH  15  16
ATOM     16  C   LIG    1       25.250 -28.095   7.145  0.00  0.00    +0.024 C 
ATOM     17  C   LIG    1       26.248 -26.937   6.900  0.00  0.00    -0.003 C 
ATOM     18  C   LIG    1       26.703 -26.951   5.432  0.00  0.00    +0.019 C 
ATOM     19  C   LIG    1       25.490 -26.700   4.524  0.00  0.00    +0.085 C 
ATOM     20  N   LIG    1       24.222 -26.748   5.287  0.00  0.00    -0.302 NA
ATOM     21  C   LIG    1       24.215 -25.625   6.253  0.00  0.00    +0.085 C 
ATOM     22  C   LIG    1       25.476 -25.627   7.131  0.00  0.00    +0.019 C 
ATOM     23  C   LIG    1       24.173 -28.030   6.031  0.00  0.00    +0.089 C 
ENDBRANCH  15  16
ENDBRANCH   7  15
TORSDOF 2
ENDMDL
MODEL 9
REMARK VINA RESULT:      -5.7      2.073      5.258
REMARK  Name = *****
REMARK                            x       y       z     vdW  Elec       q    Type
REMARK                         _______ _______ _______ _____ _____    ______ ____
ROOT
ATOM      1  C   LIG    1       25.060 -26.899   6.477  0.00  0.00    +0.001 A 
ATOM      2  C   LIG    1       23.974 -26.029   6.436  0.00  0.00    +0.017 A 
ATOM      3  C   LIG    1       24.168 -24.638   6.403  0.00  0.00    +0.034 A 
ATOM      4  S   LIG    1       22.700 -23.626   6.380  0.00  0.00    -0.086 S 
ATOM      5  C   LIG    1       23.365 -22.045   5.900  0.00  0.00    +0.034 A 
ATOM      6  C   LIG    1       24.738 -21.745   5.954  0.00  0.00    +0.048 A 
ATOM      7  N   LIG    1       25.699 -22.693   6.404  0.00  0.00    -0.298 N 
ATOM      8  C   LIG    1       25.147 -20.471   5.509  0.00  0.00    +0.024 A 
ATOM      9  C   LIG    1       24.221 -19.514   5.080  0.00  0.00    +0.002 A 
ATOM     10  C   LIG    1       22.867 -19.810   5.081  0.00  0.00    +0.001 A 
ATOM     11  C   LIG    1       22.437 -21.071   5.486  0.00  0.00    +0.017 A 
ATOM     12  C   LIG    1       25.468 -24.095   6.442  0.00  0.00    +0.048 A 
ATOM     13  C   LIG    1       26.548 -25.000   6.457  0.00  0.00    +0.024 A 
ATOM     14  C   LIG    1       26.348 -26.384   6.482  0.00  0.00    +0.002 A 
ENDROOT
BRANCH   7  15
ATOM     15  C   LIG    1       26.685 -22.172   7.392  0.00  0.00    +0.116 C 
BRANCH  15  16
ATOM     16  C   LIG    1       27.840 -21.373   6.744  0.00  0.00    +0.024 C 
ATOM     17  C   LIG    1       27.735 -19.835   6.884  0.00  0.00    -0.003 C 
ATOM     18  C   LIG    1       28.084 -19.423   8.322  0.00  0.00    +0.019 C 
ATOM     19  C   LIG    1       29.543 -19.803   8.617  0.00  0.00    +0.085 C 
ATOM     20  N   LIG    1       30.112 -20.647   7.542  0.00  0.00    -0.302 NA
ATOM     21  C   LIG    1       30.169 -19.844   6.298  0.00  0.00    +0.085 C 
ATOM     22  C   LIG    1       28.804 -19.229   5.958  0.00  0.00    +0.019 C 
ATOM     23  C   LIG    1       29.209 -21.805   7.331  0.00  0.00    +0.089 C 
ENDBRANCH  15  16
ENDBRANCH   7  15
TORSDOF 2
ENDMDL
