MODEL 1
REMARK VINA RESULT:      -4.5      0.000      0.000
REMARK  Name = *****
REMARK                            x       y       z     vdW  Elec       q    Type
REMARK                         _______ _______ _______ _____ _____    ______ ____
ROOT
ATOM      1  C   LIG    1       25.527 -15.503   3.356  0.00  0.00    +0.139 C 
ENDROOT
BRANCH   1   2
ATOM      2  C   LIG    1       24.913 -14.085   3.317  0.00  0.00    -0.028 A 
ATOM      3  C   LIG    1       24.861 -13.363   2.103  0.00  0.00    +0.005 A 
ATOM      4  C   LIG    1       24.337 -12.061   2.040  0.00  0.00    +0.000 A 
ATOM      5  C   LIG    1       23.851 -11.447   3.189  0.00  0.00    +0.000 A 
ATOM      6  C   LIG    1       23.864 -12.149   4.393  0.00  0.00    +0.000 A 
ATOM      7  C   LIG    1       24.376 -13.457   4.454  0.00  0.00    +0.005 A 
ENDBRANCH   1   2
BRANCH   1   8
ATOM      8  C   LIG    1       24.528 -16.611   3.702  0.00  0.00    -0.028 A 
ATOM      9  C   LIG    1       24.886 -17.957   3.488  0.00  0.00    +0.005 A 
ATOM     10  C   LIG    1       23.998 -19.000   3.780  0.00  0.00    +0.000 A 
ATOM     11  C   LIG    1       22.731 -18.722   4.283  0.00  0.00    +0.000 A 
ATOM     12  C   LIG    1       22.361 -17.404   4.516  0.00  0.00    +0.000 A 
ATOM     13  C   LIG    1       23.248 -16.363   4.226  0.00  0.00    +0.005 A 
ENDBRANCH   1   8
BRANCH   1  14
ATOM     14  S   LIG    1       27.157 -15.540   4.279  0.00  0.00    +0.043 S 
ATOM     15  O   LIG    1       27.921 -16.794   3.952  0.00  0.00    -0.256 OA
BRANCH  14  16
ATOM     16  C   LIG    1       27.974 -14.148   3.439  0.00  0.00    +0.200 C 
BRANCH  16  20
ATOM     17  N   LIG    1       27.637 -12.886   5.550  0.00  0.00    -0.329 N 
ATOM     18  H   LIG    1       26.919 -13.534   5.828  0.00  0.00    +0.145 HD
ATOM     19  H   LIG    1       27.862 -12.111   6.169  0.00  0.00    +0.145 HD
ATOM     20  C   LIG    1       28.298 -12.949   4.344  0.00  0.00    +0.223 C 
ATOM     21  O   LIG    1       29.159 -12.127   4.060  0.00  0.00    -0.275 OA
ENDBRANCH  16  20
ENDBRANCH  14  16
ENDBRANCH   1  14
TORSDOF 5
ENDMDL
MODEL 2
REMARK VINA RESULT:      -4.0      4.311      7.212
REMARK  Name = *****
REMARK                            x       y       z     vdW  Elec       q    Type
REMARK                         _______ _______ _______ _____ _____    ______ ____
ROOT
ATOM      1  C   LIG    1       25.514 -18.979   3.621  0.00  0.00    +0.139 C 
ENDROOT
BRANCH   1   2
ATOM      2  C   LIG    1       26.397 -19.569   4.743  0.00  0.00    -0.028 A 
ATOM      3  C   LIG    1       25.865 -20.517   5.646  0.00  0.00    +0.005 A 
ATOM      4  C   LIG    1       26.632 -21.050   6.695  0.00  0.00    +0.000 A 
ATOM      5  C   LIG    1       27.952 -20.650   6.869  0.00  0.00    +0.000 A 
ATOM      6  C   LIG    1       28.509 -19.738   5.975  0.00  0.00    +0.000 A 
ATOM      7  C   LIG    1       27.746 -19.214   4.916  0.00  0.00    +0.005 A 
ENDBRANCH   1   2
BRANCH   1   8
ATOM      8  C   LIG    1       25.408 -17.451   3.643  0.00  0.00    -0.028 A 
ATOM      9  C   LIG    1       26.546 -16.674   3.348  0.00  0.00    +0.005 A 
ATOM     10  C   LIG    1       26.495 -15.274   3.368  0.00  0.00    +0.000 A 
ATOM     11  C   LIG    1       25.310 -14.621   3.693  0.00  0.00    +0.000 A 
ATOM     12  C   LIG    1       24.172 -15.366   3.974  0.00  0.00    +0.000 A 
ATOM     13  C   LIG    1       24.223 -16.763   3.952  0.00  0.00    +0.005 A 
ENDBRANCH   1   8
BRANCH   1  14
ATOM     14  S   LIG    1       23.905 -19.918   3.422  0.00  0.00    +0.043 S 
ATOM     15  O   LIG    1       24.172 -21.376   3.160  0.00  0.00    -0.256 OA
BRANCH  14  16
ATOM     16  C   LIG    1       23.287 -19.757   5.126  0.00  0.00    +0.200 C 
BRANCH  16  20
ATOM     17  N   LIG    1       21.615 -21.571   4.850  0.00  0.00    -0.329 N 
ATOM     18  H   LIG    1       21.334 -21.183   3.965  0.00  0.00    +0.145 HD
ATOM     19  H   LIG    1       21.147 -22.408   5.187  0.00  0.00    +0.145 HD
ATOM     20  C   LIG    1       22.562 -20.998   5.669  0.00  0.00    +0.223 C 
ATOM     21  O   LIG    1       22.858 -21.515   6.738  0.00  0.00    -0.275 OA
ENDBRANCH  16  20
ENDBRANCH  14  16
ENDBRANCH   1  14
TORSDOF 5
ENDMDL
MODEL 3
REMARK VINA RESULT:      -3.7      3.540      6.299
REMARK  Name = *****
REMARK                            x       y       z     vdW  Elec       q    Type
REMARK                         _______ _______ _______ _____ _____    ______ ____
ROOT
ATOM      1  C   LIG    1       25.937 -19.674   4.262  0.00  0.00    +0.139 C 
ENDROOT
BRANCH   1   2
ATOM      2  C   LIG    1       24.770 -20.360   5.007  0.00  0.00    -0.028 A 
ATOM      3  C   LIG    1       23.592 -20.716   4.313  0.00  0.00    +0.005 A 
ATOM      4  C   LIG    1       22.501 -21.314   4.967  0.00  0.00    +0.000 A 
ATOM      5  C   LIG    1       22.560 -21.572   6.332  0.00  0.00    +0.000 A 
ATOM      6  C   LIG    1       23.722 -21.257   7.034  0.00  0.00    +0.000 A 
ATOM      7  C   LIG    1       24.820 -20.670   6.378  0.00  0.00    +0.005 A 
ENDBRANCH   1   2
BRANCH   1   8
ATOM      8  C   LIG    1       27.195 -19.474   5.113  0.00  0.00    -0.028 A 
ATOM      9  C   LIG    1       27.399 -20.287   6.247  0.00  0.00    +0.005 A 
ATOM     10  C   LIG    1       28.530 -20.130   7.059  0.00  0.00    +0.000 A 
ATOM     11  C   LIG    1       29.475 -19.153   6.762  0.00  0.00    +0.000 A 
ATOM     12  C   LIG    1       29.302 -18.350   5.643  0.00  0.00    +0.000 A 
ATOM     13  C   LIG    1       28.174 -18.508   4.831  0.00  0.00    +0.005 A 
ENDBRANCH   1   8
BRANCH   1  14
ATOM     14  S   LIG    1       25.365 -18.190   3.271  0.00  0.00    +0.043 S 
ATOM     15  O   LIG    1       24.089 -17.633   3.842  0.00  0.00    -0.256 OA
BRANCH  14  16
ATOM     16  C   LIG    1       26.716 -17.047   3.692  0.00  0.00    +0.200 C 
BRANCH  16  20
ATOM     17  N   LIG    1       25.229 -15.058   3.693  0.00  0.00    -0.329 N 
ATOM     18  H   LIG    1       24.493 -15.604   4.110  0.00  0.00    +0.145 HD
ATOM     19  H   LIG    1       25.053 -14.080   3.483  0.00  0.00    +0.145 HD
ATOM     20  C   LIG    1       26.452 -15.577   3.331  0.00  0.00    +0.223 C 
ATOM     21  O   LIG    1       27.306 -14.863   2.822  0.00  0.00    -0.275 OA
ENDBRANCH  16  20
ENDBRANCH  14  16
ENDBRANCH   1  14
TORSDOF 5
ENDMDL
MODEL 4
REMARK VINA RESULT:      -3.4      1.163      4.486
REMARK  Name = *****
REMARK                            x       y       z     vdW  Elec       q    Type
REMARK                         _______ _______ _______ _____ _____    ______ ____
ROOT
ATOM      1  C   LIG    1       25.244 -15.320   4.120  0.00  0.00    +0.139 C 
ENDROOT
BRANCH   1   2
ATOM      2  C   LIG    1       24.252 -16.505   4.080  0.00  0.00    -0.028 A 
ATOM      3  C   LIG    1       22.904 -16.321   4.462  0.00  0.00    +0.005 A 
ATOM      4  C   LIG    1       21.986 -17.384   4.467  0.00  0.00    +0.000 A 
ATOM      5  C   LIG    1       22.391 -18.659   4.089  0.00  0.00    +0.000 A 
ATOM      6  C   LIG    1       23.708 -18.861   3.680  0.00  0.00    +0.000 A 
ATOM      7  C   LIG    1       24.625 -17.795   3.663  0.00  0.00    +0.005 A 
ENDBRANCH   1   2
BRANCH   1   8
ATOM      8  C   LIG    1       24.608 -13.959   3.822  0.00  0.00    -0.028 A 
ATOM      9  C   LIG    1       24.408 -13.566   2.483  0.00  0.00    +0.005 A 
ATOM     10  C   LIG    1       23.841 -12.326   2.166  0.00  0.00    +0.000 A 
ATOM     11  C   LIG    1       23.469 -11.447   3.179  0.00  0.00    +0.000 A 
ATOM     12  C   LIG    1       23.643 -11.817   4.506  0.00  0.00    +0.000 A 
ATOM     13  C   LIG    1       24.208 -13.057   4.822  0.00  0.00    +0.005 A 
ENDBRANCH   1   8
BRANCH   1  14
ATOM     14  S   LIG    1       26.838 -15.704   3.214  0.00  0.00    +0.043 S 
ATOM     15  O   LIG    1       26.948 -14.876   1.962  0.00  0.00    -0.256 OA
BRANCH  14  16
ATOM     16  C   LIG    1       28.010 -15.037   4.435  0.00  0.00    +0.200 C 
BRANCH  16  20
ATOM     17  N   LIG    1       28.700 -12.939   3.301  0.00  0.00    -0.329 N 
ATOM     18  H   LIG    1       29.072 -13.473   2.533  0.00  0.00    +0.145 HD
ATOM     19  H   LIG    1       28.773 -11.926   3.274  0.00  0.00    +0.145 HD
ATOM     20  C   LIG    1       28.148 -13.507   4.427  0.00  0.00    +0.223 C 
ATOM     21  O   LIG    1       27.717 -12.805   5.333  0.00  0.00    -0.275 OA
ENDBRANCH  16  20
ENDBRANCH  14  16
ENDBRANCH   1  14
TORSDOF 5
ENDMDL
MODEL 5
REMARK VINA RESULT:      -3.0      3.831      6.847
REMARK  Name = *****
REMARK                            x       y       z     vdW  Elec       q    Type
REMARK                         _______ _______ _______ _____ _____    ______ ____
ROOT
ATOM      1  C   LIG    1       25.878 -18.904   3.601  0.00  0.00    +0.139 C 
ENDROOT
BRANCH   1   2
ATOM      2  C   LIG    1       26.478 -19.613   4.836  0.00  0.00    -0.028 A 
ATOM      3  C   LIG    1       27.846 -19.458   5.154  0.00  0.00    +0.005 A 
ATOM      4  C   LIG    1       28.429 -20.112   6.251  0.00  0.00    +0.000 A 
ATOM      5  C   LIG    1       27.659 -20.939   7.061  0.00  0.00    +0.000 A 
ATOM      6  C   LIG    1       26.301 -21.086   6.788  0.00  0.00    +0.000 A 
ATOM      7  C   LIG    1       25.713 -20.421   5.696  0.00  0.00    +0.005 A 
ENDBRANCH   1   2
BRANCH   1   8
ATOM      8  C   LIG    1       26.027 -17.380   3.617  0.00  0.00    -0.028 A 
ATOM      9  C   LIG    1       24.872 -16.571   3.606  0.00  0.00    +0.005 A 
ATOM     10  C   LIG    1       24.964 -15.174   3.608  0.00  0.00    +0.000 A 
ATOM     11  C   LIG    1       26.209 -14.554   3.613  0.00  0.00    +0.000 A 
ATOM     12  C   LIG    1       27.361 -15.329   3.638  0.00  0.00    +0.000 A 
ATOM     13  C   LIG    1       27.269 -16.725   3.637  0.00  0.00    +0.005 A 
ENDBRANCH   1   8
BRANCH   1  14
ATOM     14  S   LIG    1       24.179 -19.565   3.166  0.00  0.00    +0.043 S 
ATOM     15  O   LIG    1       24.193 -21.069   3.119  0.00  0.00    -0.256 OA
BRANCH  14  16
ATOM     16  C   LIG    1       23.297 -19.057   4.675  0.00  0.00    +0.200 C 
BRANCH  16  20
ATOM     17  N   LIG    1       22.036 -16.935   4.939  0.00  0.00    -0.329 N 
ATOM     18  H   LIG    1       22.777 -16.561   5.507  0.00  0.00    +0.145 HD
ATOM     19  H   LIG    1       21.217 -16.360   4.762  0.00  0.00    +0.145 HD
ATOM     20  C   LIG    1       22.036 -18.215   4.431  0.00  0.00    +0.223 C 
ATOM     21  O   LIG    1       21.101 -18.616   3.750  0.00  0.00    -0.275 OA
ENDBRANCH  16  20
ENDBRANCH  14  16
ENDBRANCH   1  14
TORSDOF 5
ENDMDL
MODEL 6
REMARK VINA RESULT:      -2.8      2.542      3.854
REMARK  Name = *****
REMARK                            x       y       z     vdW  Elec       q    Type
REMARK                         _______ _______ _______ _____ _____    ______ ____
ROOT
ATOM      1  C   LIG    1       25.767 -17.703   3.331  0.00  0.00    +0.139 C 
ENDROOT
BRANCH   1   2
ATOM      2  C   LIG    1       25.470 -16.194   3.474  0.00  0.00    -0.028 A 
ATOM      3  C   LIG    1       26.410 -15.236   3.032  0.00  0.00    +0.005 A 
ATOM      4  C   LIG    1       26.184 -13.857   3.175  0.00  0.00    +0.000 A 
ATOM      5  C   LIG    1       25.012 -13.399   3.765  0.00  0.00    +0.000 A 
ATOM      6  C   LIG    1       24.055 -14.321   4.183  0.00  0.00    +0.000 A 
ATOM      7  C   LIG    1       24.275 -15.702   4.028  0.00  0.00    +0.005 A 
ENDBRANCH   1   2
BRANCH   1   8
ATOM      8  C   LIG    1       24.617 -18.614   3.772  0.00  0.00    -0.028 A 
ATOM      9  C   LIG    1       24.760 -20.012   3.658  0.00  0.00    +0.005 A 
ATOM     10  C   LIG    1       23.729 -20.880   4.038  0.00  0.00    +0.000 A 
ATOM     11  C   LIG    1       22.531 -20.372   4.531  0.00  0.00    +0.000 A 
ATOM     12  C   LIG    1       22.373 -18.999   4.665  0.00  0.00    +0.000 A 
ATOM     13  C   LIG    1       23.403 -18.132   4.287  0.00  0.00    +0.005 A 
ENDBRANCH   1   8
BRANCH   1  14
ATOM     14  S   LIG    1       27.470 -18.150   3.972  0.00  0.00    +0.043 S 
ATOM     15  O   LIG    1       28.081 -16.987   4.705  0.00  0.00    -0.256 OA
BRANCH  14  16
ATOM     16  C   LIG    1       26.976 -19.394   5.205  0.00  0.00    +0.200 C 
BRANCH  16  20
ATOM     17  N   LIG    1       29.275 -19.215   6.124  0.00  0.00    -0.329 N 
ATOM     18  H   LIG    1       29.409 -18.348   5.630  0.00  0.00    +0.145 HD
ATOM     19  H   LIG    1       30.037 -19.578   6.689  0.00  0.00    +0.145 HD
ATOM     20  C   LIG    1       28.132 -19.977   6.032  0.00  0.00    +0.223 C 
ATOM     21  O   LIG    1       28.030 -21.026   6.654  0.00  0.00    -0.275 OA
ENDBRANCH  16  20
ENDBRANCH  14  16
ENDBRANCH   1  14
TORSDOF 5
ENDMDL
MODEL 7
REMARK VINA RESULT:      -2.6      2.572      4.137
REMARK  Name = *****
REMARK                            x       y       z     vdW  Elec       q    Type
REMARK                         _______ _______ _______ _____ _____    ______ ____
ROOT
ATOM      1  C   LIG    1       25.787 -17.771   3.332  0.00  0.00    +0.139 C 
ENDROOT
BRANCH   1   2
ATOM      2  C   LIG    1       25.512 -16.256   3.460  0.00  0.00    -0.028 A 
ATOM      3  C   LIG    1       24.293 -15.795   4.006  0.00  0.00    +0.005 A 
ATOM      4  C   LIG    1       24.000 -14.425   4.108  0.00  0.00    +0.000 A 
ATOM      5  C   LIG    1       24.918 -13.479   3.668  0.00  0.00    +0.000 A 
ATOM      6  C   LIG    1       26.141 -13.906   3.153  0.00  0.00    +0.000 A 
ATOM      7  C   LIG    1       26.441 -15.277   3.062  0.00  0.00    +0.005 A 
ENDBRANCH   1   2
BRANCH   1   8
ATOM      8  C   LIG    1       24.616 -18.660   3.759  0.00  0.00    -0.028 A 
ATOM      9  C   LIG    1       23.425 -18.062   4.218  0.00  0.00    +0.005 A 
ATOM     10  C   LIG    1       22.334 -18.839   4.629  0.00  0.00    +0.000 A 
ATOM     11  C   LIG    1       22.413 -20.228   4.600  0.00  0.00    +0.000 A 
ATOM     12  C   LIG    1       23.571 -20.839   4.139  0.00  0.00    +0.000 A 
ATOM     13  C   LIG    1       24.659 -20.064   3.727  0.00  0.00    +0.005 A 
ENDBRANCH   1   8
BRANCH   1  14
ATOM     14  S   LIG    1       27.472 -18.240   4.004  0.00  0.00    +0.043 S 
ATOM     15  O   LIG    1       28.095 -17.077   4.728  0.00  0.00    -0.256 OA
BRANCH  14  16
ATOM     16  C   LIG    1       26.937 -19.456   5.248  0.00  0.00    +0.200 C 
BRANCH  16  20
ATOM     17  N   LIG    1       29.234 -19.331   6.182  0.00  0.00    -0.329 N 
ATOM     18  H   LIG    1       29.393 -18.470   5.686  0.00  0.00    +0.145 HD
ATOM     19  H   LIG    1       29.983 -19.712   6.754  0.00  0.00    +0.145 HD
ATOM     20  C   LIG    1       28.073 -20.064   6.085  0.00  0.00    +0.223 C 
ATOM     21  O   LIG    1       27.940 -21.109   6.710  0.00  0.00    -0.275 OA
ENDBRANCH  16  20
ENDBRANCH  14  16
ENDBRANCH   1  14
TORSDOF 5
ENDMDL
MODEL 8
REMARK VINA RESULT:      -2.5      2.896      5.423
REMARK  Name = *****
REMARK                            x       y       z     vdW  Elec       q    Type
REMARK                         _______ _______ _______ _____ _____    ______ ____
ROOT
ATOM      1  C   LIG    1       26.079 -18.593   3.708  0.00  0.00    +0.139 C 
ENDROOT
BRANCH   1   2
ATOM      2  C   LIG    1       24.705 -19.196   4.077  0.00  0.00    -0.028 A 
ATOM      3  C   LIG    1       24.582 -20.577   4.352  0.00  0.00    +0.005 A 
ATOM      4  C   LIG    1       23.342 -21.161   4.661  0.00  0.00    +0.000 A 
ATOM      5  C   LIG    1       22.193 -20.381   4.702  0.00  0.00    +0.000 A 
ATOM      6  C   LIG    1       22.291 -19.012   4.463  0.00  0.00    +0.000 A 
ATOM      7  C   LIG    1       23.534 -18.423   4.167  0.00  0.00    +0.005 A 
ENDBRANCH   1   2
BRANCH   1   8
ATOM      8  C   LIG    1       27.194 -18.911   4.710  0.00  0.00    -0.028 A 
ATOM      9  C   LIG    1       28.396 -18.177   4.662  0.00  0.00    +0.005 A 
ATOM     10  C   LIG    1       29.445 -18.443   5.552  0.00  0.00    +0.000 A 
ATOM     11  C   LIG    1       29.320 -19.453   6.500  0.00  0.00    +0.000 A 
ATOM     12  C   LIG    1       28.139 -20.181   6.575  0.00  0.00    +0.000 A 
ATOM     13  C   LIG    1       27.091 -19.914   5.688  0.00  0.00    +0.005 A 
ENDBRANCH   1   8
BRANCH   1  14
ATOM     14  S   LIG    1       25.941 -16.806   3.164  0.00  0.00    +0.043 S 
ATOM     15  O   LIG    1       24.718 -16.164   3.761  0.00  0.00    -0.256 OA
BRANCH  14  16
ATOM     16  C   LIG    1       27.401 -16.147   4.027  0.00  0.00    +0.200 C 
BRANCH  16  20
ATOM     17  N   LIG    1       26.496 -13.999   4.883  0.00  0.00    -0.329 N 
ATOM     18  H   LIG    1       25.733 -14.490   5.319  0.00  0.00    +0.145 HD
ATOM     19  H   LIG    1       26.540 -12.988   4.970  0.00  0.00    +0.145 HD
ATOM     20  C   LIG    1       27.459 -14.614   4.115  0.00  0.00    +0.223 C 
ATOM     21  O   LIG    1       28.361 -13.962   3.605  0.00  0.00    -0.275 OA
ENDBRANCH  16  20
ENDBRANCH  14  16
ENDBRANCH   1  14
TORSDOF 5
ENDMDL
MODEL 9
REMARK VINA RESULT:      -2.0      1.933      5.010
REMARK  Name = *****
REMARK                            x       y       z     vdW  Elec       q    Type
REMARK                         _______ _______ _______ _____ _____    ______ ____
ROOT
ATOM      1  C   LIG    1       25.279 -15.400   4.068  0.00  0.00    +0.139 C 
ENDROOT
BRANCH   1   2
ATOM      2  C   LIG    1       24.217 -16.522   4.096  0.00  0.00    -0.028 A 
ATOM      3  C   LIG    1       22.902 -16.250   4.537  0.00  0.00    +0.005 A 
ATOM      4  C   LIG    1       21.922 -17.254   4.603  0.00  0.00    +0.000 A 
ATOM      5  C   LIG    1       22.230 -18.557   4.229  0.00  0.00    +0.000 A 
ATOM      6  C   LIG    1       23.511 -18.846   3.763  0.00  0.00    +0.000 A 
ATOM      7  C   LIG    1       24.490 -17.838   3.684  0.00  0.00    +0.005 A 
ENDBRANCH   1   2
BRANCH   1   8
ATOM      8  C   LIG    1       24.717 -14.011   3.751  0.00  0.00    -0.028 A 
ATOM      9  C   LIG    1       24.609 -13.598   2.407  0.00  0.00    +0.005 A 
ATOM     10  C   LIG    1       24.111 -12.332   2.073  0.00  0.00    +0.000 A 
ATOM     11  C   LIG    1       23.720 -11.448   3.074  0.00  0.00    +0.000 A 
ATOM     12  C   LIG    1       23.804 -11.837   4.404  0.00  0.00    +0.000 A 
ATOM     13  C   LIG    1       24.299 -13.102   4.737  0.00  0.00    +0.005 A 
ENDBRANCH   1   8
BRANCH   1  14
ATOM     14  S   LIG    1       26.815 -15.907   3.122  0.00  0.00    +0.043 S 
ATOM     15  O   LIG    1       27.436 -14.715   2.445  0.00  0.00    -0.256 OA
BRANCH  14  16
ATOM     16  C   LIG    1       27.865 -16.362   4.537  0.00  0.00    +0.200 C 
BRANCH  16  20
ATOM     17  N   LIG    1       29.471 -18.192   5.019  0.00  0.00    -0.329 N 
ATOM     18  H   LIG    1       30.205 -17.517   5.156  0.00  0.00    +0.145 HD
ATOM     19  H   LIG    1       29.690 -19.179   5.118  0.00  0.00    +0.145 HD
ATOM     20  C   LIG    1       28.189 -17.859   4.643  0.00  0.00    +0.223 C 
ATOM     21  O   LIG    1       27.340 -18.727   4.488  0.00  0.00    -0.275 OA
ENDBRANCH  16  20
ENDBRANCH  14  16
ENDBRANCH   1  14
TORSDOF 5
ENDMDL
