MODEL 1
REMARK VINA RESULT:      -6.3      0.000      0.000
REMARK  Name = *****
REMARK                            x       y       z     vdW  Elec       q    Type
REMARK                         _______ _______ _______ _____ _____    ______ ____
ROOT
ATOM      1  C   LIG    1       25.176 -30.997   8.500  0.00  0.00    +0.169 C 
ATOM      2  C   LIG    1       26.352 -30.876   9.539  0.00  0.00    +0.175 C 
ATOM      3  C   LIG    1       25.922 -30.807  11.039  0.00  0.00    +0.169 C 
ATOM      4  C   LIG    1       24.975 -32.000  11.324  0.00  0.00    +0.084 C 
ATOM      5  C   LIG    1       23.735 -31.893  10.431  0.00  0.00    +0.042 C 
ATOM      6  C   LIG    1       24.177 -32.113   8.976  0.00  0.00    +0.084 C 
ENDROOT
BRANCH   4   7
ATOM      7  N   LIG    1       24.608 -32.241  12.718  0.00  0.00    -0.325 NA
ATOM      8  H   LIG    1       24.961 -31.524  13.341  0.00  0.00    +0.118 HD
ATOM      9  H   LIG    1       23.610 -32.381  12.844  0.00  0.00    +0.118 HD
ENDBRANCH   4   7
BRANCH   6  10
ATOM     10  N   LIG    1       22.991 -32.353   8.144  0.00  0.00    -0.325 NA
ATOM     11  H   LIG    1       22.167 -32.495   8.726  0.00  0.00    +0.118 HD
ATOM     12  H   LIG    1       22.800 -31.557   7.542  0.00  0.00    +0.118 HD
ENDBRANCH   6  10
BRANCH   2  13
ATOM     13  O   LIG    1       27.303 -31.933   9.340  0.00  0.00    -0.387 OA
ATOM     14  H   LIG    1       27.487 -32.385  10.198  0.00  0.00    +0.210 HD
ENDBRANCH   2  13
BRANCH   1  15
ATOM     15  O   LIG    1       24.472 -29.759   8.259  0.00  0.00    -0.342 OA
BRANCH  15  18
ATOM     16  C   LIG    1       25.417 -26.701   6.505  0.00  0.00    +0.138 C 
ATOM     17  O   LIG    1       24.661 -27.597   7.319  0.00  0.00    -0.345 OA
ATOM     18  C   LIG    1       25.088 -28.946   7.226  0.00  0.00    +0.268 C 
ATOM     19  C   LIG    1       24.721 -29.480   5.797  0.00  0.00    +0.107 C 
ATOM     20  C   LIG    1       24.373 -28.320   4.843  0.00  0.00    +0.026 C 
ATOM     21  C   LIG    1       25.313 -27.129   5.031  0.00  0.00    +0.035 C 
BRANCH  19  22
ATOM     22  N   LIG    1       23.619 -30.462   5.776  0.00  0.00    -0.323 NA
ATOM     23  H   LIG    1       23.790 -31.112   6.549  0.00  0.00    +0.119 HD
ATOM     24  H   LIG    1       22.774 -29.972   6.086  0.00  0.00    +0.119 HD
ENDBRANCH  19  22
BRANCH  16  25
ATOM     25  C   LIG    1       24.938 -25.232   6.760  0.00  0.00    +0.079 C 
ATOM     26  C   LIG    1       25.905 -24.200   6.162  0.00  0.00    +0.026 C 
BRANCH  25  28
ATOM     27  C   LIG    1       23.000 -23.727   6.793  0.00  0.00    +0.101 C 
ATOM     28  N   LIG    1       23.598 -24.919   6.213  0.00  0.00    -0.314 NA
ATOM     29  H   LIG    1       23.663 -24.800   5.202  0.00  0.00    +0.122 HD
ENDBRANCH  25  28
ENDBRANCH  16  25
ENDBRANCH  15  18
ENDBRANCH   1  15
BRANCH   3  30
ATOM     30  O   LIG    1       25.364 -29.509  11.317  0.00  0.00    -0.341 OA
BRANCH  30  31
ATOM     31  C   LIG    1       25.698 -28.873  12.557  0.00  0.00    +0.281 C 
ATOM     32  C   LIG    1       27.223 -28.859  12.836  0.00  0.00    +0.190 C 
ATOM     33  C   LIG    1       27.545 -28.105  14.154  0.00  0.00    +0.121 C 
ATOM     34  C   LIG    1       26.859 -26.700  14.145  0.00  0.00    +0.104 C 
ATOM     35  C   LIG    1       26.981 -25.990  15.499  0.00  0.00    +0.045 C 
ATOM     36  C   LIG    1       25.376 -26.849  13.761  0.00  0.00    +0.199 C 
ATOM     37  O   LIG    1       25.222 -27.522  12.503  0.00  0.00    -0.346 OA
BRANCH  33  38
ATOM     38  N   LIG    1       28.997 -27.928  14.405  0.00  0.00    -0.311 NA
ATOM     39  H   LIG    1       29.393 -27.491  13.564  0.00  0.00    +0.122 HD
ATOM     40  C   LIG    1       29.725 -29.148  14.700  0.00  0.00    +0.101 C 
ENDBRANCH  33  38
BRANCH  32  41
ATOM     41  O   LIG    1       27.907 -28.224  11.733  0.00  0.00    -0.385 OA
ATOM     42  H   LIG    1       28.188 -27.351  12.063  0.00  0.00    +0.210 HD
ENDBRANCH  32  41
BRANCH  34  43
ATOM     43  O   LIG    1       27.494 -25.852  13.170  0.00  0.00    -0.385 OA
ATOM     44  H   LIG    1       27.878 -25.099  13.668  0.00  0.00    +0.210 HD
ENDBRANCH  34  43
ENDBRANCH  30  31
ENDBRANCH   3  30
TORSDOF 13
ENDMDL
MODEL 2
REMARK VINA RESULT:      -6.1      3.014      7.465
REMARK  Name = *****
REMARK                            x       y       z     vdW  Elec       q    Type
REMARK                         _______ _______ _______ _____ _____    ______ ____
ROOT
ATOM      1  C   LIG    1       25.515 -28.977  13.016  0.00  0.00    +0.169 C 
ATOM      2  C   LIG    1       25.356 -30.450  12.484  0.00  0.00    +0.175 C 
ATOM      3  C   LIG    1       25.718 -30.667  10.981  0.00  0.00    +0.169 C 
ATOM      4  C   LIG    1       27.131 -30.079  10.736  0.00  0.00    +0.084 C 
ATOM      5  C   LIG    1       27.120 -28.579  11.049  0.00  0.00    +0.042 C 
ATOM      6  C   LIG    1       26.909 -28.410  12.561  0.00  0.00    +0.084 C 
ENDROOT
BRANCH   4   7
ATOM      7  N   LIG    1       27.750 -30.348   9.440  0.00  0.00    -0.325 NA
ATOM      8  H   LIG    1       28.388 -31.135   9.472  0.00  0.00    +0.118 HD
ATOM      9  H   LIG    1       27.070 -30.453   8.693  0.00  0.00    +0.118 HD
ENDBRANCH   4   7
BRANCH   6  10
ATOM     10  N   LIG    1       27.229 -27.028  12.939  0.00  0.00    -0.325 NA
ATOM     11  H   LIG    1       26.613 -26.709  13.685  0.00  0.00    +0.118 HD
ATOM     12  H   LIG    1       28.182 -26.955  13.285  0.00  0.00    +0.118 HD
ENDBRANCH   6  10
BRANCH   2  13
ATOM     13  O   LIG    1       26.093 -31.361  13.313  0.00  0.00    -0.387 OA
ATOM     14  H   LIG    1       25.632 -31.477  14.178  0.00  0.00    +0.210 HD
ENDBRANCH   2  13
BRANCH   1  15
ATOM     15  O   LIG    1       24.452 -28.086  12.613  0.00  0.00    -0.342 OA
BRANCH  15  18
ATOM     16  C   LIG    1       21.208 -29.738  12.352  0.00  0.00    +0.138 C 
ATOM     17  O   LIG    1       22.395 -29.051  11.957  0.00  0.00    -0.345 OA
ATOM     18  C   LIG    1       23.140 -28.533  13.046  0.00  0.00    +0.268 C 
ATOM     19  C   LIG    1       22.326 -27.354  13.682  0.00  0.00    +0.107 C 
ATOM     20  C   LIG    1       20.862 -27.364  13.197  0.00  0.00    +0.026 C 
ATOM     21  C   LIG    1       20.294 -28.783  13.138  0.00  0.00    +0.035 C 
BRANCH  19  22
ATOM     22  N   LIG    1       22.899 -26.014  13.440  0.00  0.00    -0.323 NA
ATOM     23  H   LIG    1       22.238 -25.516  12.838  0.00  0.00    +0.119 HD
ATOM     24  H   LIG    1       22.828 -25.494  14.321  0.00  0.00    +0.119 HD
ENDBRANCH  19  22
BRANCH  16  25
ATOM     25  C   LIG    1       20.519 -30.360  11.090  0.00  0.00    +0.079 C 
ATOM     26  C   LIG    1       21.244 -31.623  10.603  0.00  0.00    +0.026 C 
BRANCH  25  28
ATOM     27  C   LIG    1       18.511 -31.397  10.135  0.00  0.00    +0.101 C 
ATOM     28  N   LIG    1       19.101 -30.738  11.289  0.00  0.00    -0.314 NA
ATOM     29  H   LIG    1       19.024 -31.354  12.099  0.00  0.00    +0.122 HD
ENDBRANCH  25  28
ENDBRANCH  16  25
ENDBRANCH  15  18
ENDBRANCH   1  15
BRANCH   3  30
ATOM     30  O   LIG    1       24.678 -30.113  10.154  0.00  0.00    -0.341 OA
BRANCH  30  31
ATOM     31  C   LIG    1       24.389 -30.749   8.902  0.00  0.00    +0.281 C 
ATOM     32  C   LIG    1       24.542 -29.794   7.690  0.00  0.00    +0.190 C 
ATOM     33  C   LIG    1       24.284 -30.538   6.353  0.00  0.00    +0.121 C 
ATOM     34  C   LIG    1       25.155 -31.836   6.290  0.00  0.00    +0.104 C 
ATOM     35  C   LIG    1       24.798 -32.711   5.082  0.00  0.00    +0.045 C 
ATOM     36  C   LIG    1       24.983 -32.640   7.591  0.00  0.00    +0.199 C 
ATOM     37  O   LIG    1       25.296 -31.848   8.746  0.00  0.00    -0.346 OA
BRANCH  33  38
ATOM     38  N   LIG    1       24.558 -29.718   5.147  0.00  0.00    -0.311 NA
ATOM     39  H   LIG    1       25.564 -29.795   4.957  0.00  0.00    +0.122 HD
ATOM     40  C   LIG    1       24.196 -28.317   5.259  0.00  0.00    +0.101 C 
ENDBRANCH  33  38
BRANCH  32  41
ATOM     41  O   LIG    1       25.875 -29.233   7.686  0.00  0.00    -0.385 OA
ATOM     42  H   LIG    1       26.124 -29.153   6.748  0.00  0.00    +0.210 HD
ENDBRANCH  32  41
BRANCH  34  43
ATOM     43  O   LIG    1       26.545 -31.487   6.157  0.00  0.00    -0.385 OA
ATOM     44  H   LIG    1       27.032 -32.331   6.045  0.00  0.00    +0.210 HD
ENDBRANCH  34  43
ENDBRANCH  30  31
ENDBRANCH   3  30
TORSDOF 13
ENDMDL
MODEL 3
REMARK VINA RESULT:      -6.0      2.064      6.874
REMARK  Name = *****
REMARK                            x       y       z     vdW  Elec       q    Type
REMARK                         _______ _______ _______ _____ _____    ______ ____
ROOT
ATOM      1  C   LIG    1       25.356 -30.092   9.572  0.00  0.00    +0.169 C 
ATOM      2  C   LIG    1       24.288 -29.500   8.579  0.00  0.00    +0.175 C 
ATOM      3  C   LIG    1       24.739 -29.392   7.088  0.00  0.00    +0.169 C 
ATOM      4  C   LIG    1       25.282 -30.776   6.648  0.00  0.00    +0.084 C 
ATOM      5  C   LIG    1       26.483 -31.155   7.521  0.00  0.00    +0.042 C 
ATOM      6  C   LIG    1       25.974 -31.397   8.950  0.00  0.00    +0.084 C 
ENDROOT
BRANCH   4   7
ATOM      7  N   LIG    1       25.578 -30.955   5.228  0.00  0.00    -0.325 NA
ATOM      8  H   LIG    1       26.570 -31.060   5.050  0.00  0.00    +0.118 HD
ATOM      9  H   LIG    1       25.045 -31.708   4.806  0.00  0.00    +0.118 HD
ENDBRANCH   4   7
BRANCH   6  10
ATOM     10  N   LIG    1       27.019 -32.081   9.723  0.00  0.00    -0.325 NA
ATOM     11  H   LIG    1       27.922 -31.636   9.576  0.00  0.00    +0.118 HD
ATOM     12  H   LIG    1       26.821 -32.042  10.719  0.00  0.00    +0.118 HD
ENDBRANCH   6  10
BRANCH   2  13
ATOM     13  O   LIG    1       23.057 -30.232   8.677  0.00  0.00    -0.387 OA
ATOM     14  H   LIG    1       22.406 -29.885   8.021  0.00  0.00    +0.210 HD
ENDBRANCH   2  13
BRANCH   1  15
ATOM     15  O   LIG    1       26.401 -29.164   9.938  0.00  0.00    -0.342 OA
BRANCH  15  18
ATOM     16  C   LIG    1       26.306 -27.070  12.925  0.00  0.00    +0.138 C 
ATOM     17  O   LIG    1       26.540 -27.462  11.573  0.00  0.00    -0.345 OA
ATOM     18  C   LIG    1       26.418 -28.857  11.356  0.00  0.00    +0.268 C 
ATOM     19  C   LIG    1       27.616 -29.572  12.073  0.00  0.00    +0.107 C 
ATOM     20  C   LIG    1       28.315 -28.623  13.067  0.00  0.00    +0.026 C 
ATOM     21  C   LIG    1       27.308 -27.781  13.851  0.00  0.00    +0.035 C 
BRANCH  19  22
ATOM     22  N   LIG    1       28.629 -30.133  11.156  0.00  0.00    -0.323 NA
ATOM     23  H   LIG    1       29.361 -29.425  11.059  0.00  0.00    +0.119 HD
ATOM     24  H   LIG    1       29.113 -30.880  11.665  0.00  0.00    +0.119 HD
ENDBRANCH  19  22
BRANCH  16  25
ATOM     25  C   LIG    1       26.359 -25.509  13.034  0.00  0.00    +0.079 C 
ATOM     26  C   LIG    1       25.341 -24.967  14.048  0.00  0.00    +0.026 C 
BRANCH  25  28
ATOM     27  C   LIG    1       27.658 -24.274  14.711  0.00  0.00    +0.101 C 
ATOM     28  N   LIG    1       27.679 -24.966  13.432  0.00  0.00    -0.314 NA
ATOM     29  H   LIG    1       28.359 -25.725  13.477  0.00  0.00    +0.122 HD
ENDBRANCH  25  28
ENDBRANCH  16  25
ENDBRANCH  15  18
ENDBRANCH   1  15
BRANCH   3  30
ATOM     30  O   LIG    1       25.671 -28.303   6.949  0.00  0.00    -0.341 OA
BRANCH  30  31
ATOM     31  C   LIG    1       25.181 -26.963   7.088  0.00  0.00    +0.281 C 
ATOM     32  C   LIG    1       26.280 -25.893   6.862  0.00  0.00    +0.190 C 
ATOM     33  C   LIG    1       25.694 -24.459   6.957  0.00  0.00    +0.121 C 
ATOM     34  C   LIG    1       24.442 -24.332   6.028  0.00  0.00    +0.104 C 
ATOM     35  C   LIG    1       23.709 -23.001   6.228  0.00  0.00    +0.045 C 
ATOM     36  C   LIG    1       23.482 -25.507   6.288  0.00  0.00    +0.199 C 
ATOM     37  O   LIG    1       24.139 -26.772   6.123  0.00  0.00    -0.346 OA
BRANCH  33  38
ATOM     38  N   LIG    1       26.662 -23.390   6.605  0.00  0.00    -0.311 NA
ATOM     39  H   LIG    1       27.580 -23.840   6.507  0.00  0.00    +0.122 HD
ATOM     40  C   LIG    1       26.760 -22.307   7.565  0.00  0.00    +0.101 C 
ENDBRANCH  33  38
BRANCH  32  41
ATOM     41  O   LIG    1       26.880 -26.088   5.561  0.00  0.00    -0.385 OA
ATOM     42  H   LIG    1       27.741 -26.513   5.729  0.00  0.00    +0.210 HD
ENDBRANCH  32  41
BRANCH  34  43
ATOM     43  O   LIG    1       24.851 -24.381   4.648  0.00  0.00    -0.385 OA
ATOM     44  H   LIG    1       25.822 -24.243   4.643  0.00  0.00    +0.210 HD
ENDBRANCH  34  43
ENDBRANCH  30  31
ENDBRANCH   3  30
TORSDOF 13
ENDMDL
MODEL 4
REMARK VINA RESULT:      -6.0      2.976      5.188
REMARK  Name = *****
REMARK                            x       y       z     vdW  Elec       q    Type
REMARK                         _______ _______ _______ _____ _____    ______ ____
ROOT
ATOM      1  C   LIG    1       25.922 -29.599   8.835  0.00  0.00    +0.169 C 
ATOM      2  C   LIG    1       25.558 -29.438  10.358  0.00  0.00    +0.175 C 
ATOM      3  C   LIG    1       24.468 -30.416  10.898  0.00  0.00    +0.169 C 
ATOM      4  C   LIG    1       24.886 -31.860  10.519  0.00  0.00    +0.084 C 
ATOM      5  C   LIG    1       24.973 -31.983   8.994  0.00  0.00    +0.042 C 
ATOM      6  C   LIG    1       26.152 -31.121   8.515  0.00  0.00    +0.084 C 
ENDROOT
BRANCH   4   7
ATOM      7  N   LIG    1       24.106 -32.953  11.097  0.00  0.00    -0.325 NA
ATOM      8  H   LIG    1       23.132 -32.923  10.818  0.00  0.00    +0.118 HD
ATOM      9  H   LIG    1       24.514 -33.866  10.918  0.00  0.00    +0.118 HD
ENDBRANCH   4   7
BRANCH   6  10
ATOM     10  N   LIG    1       26.473 -31.476   7.127  0.00  0.00    -0.325 NA
ATOM     11  H   LIG    1       27.180 -30.846   6.751  0.00  0.00    +0.118 HD
ATOM     12  H   LIG    1       26.849 -32.419   7.068  0.00  0.00    +0.118 HD
ENDBRANCH   6  10
BRANCH   2  13
ATOM     13  O   LIG    1       26.744 -29.516  11.164  0.00  0.00    -0.387 OA
ATOM     14  H   LIG    1       27.067 -30.448  11.196  0.00  0.00    +0.210 HD
ENDBRANCH   2  13
BRANCH   1  15
ATOM     15  O   LIG    1       24.944 -29.036   7.932  0.00  0.00    -0.342 OA
BRANCH  15  18
ATOM     16  C   LIG    1       25.666 -25.925   6.165  0.00  0.00    +0.138 C 
ATOM     17  O   LIG    1       24.961 -26.884   6.953  0.00  0.00    -0.345 OA
ATOM     18  C   LIG    1       25.534 -28.180   6.919  0.00  0.00    +0.268 C 
ATOM     19  C   LIG    1       25.317 -28.775   5.484  0.00  0.00    +0.107 C 
ATOM     20  C   LIG    1       24.907 -27.676   4.483  0.00  0.00    +0.026 C 
ATOM     21  C   LIG    1       25.702 -26.388   4.698  0.00  0.00    +0.035 C 
BRANCH  19  22
ATOM     22  N   LIG    1       24.330 -29.871   5.420  0.00  0.00    -0.323 NA
ATOM     23  H   LIG    1       24.651 -30.594   6.070  0.00  0.00    +0.119 HD
ATOM     24  H   LIG    1       23.475 -29.532   5.874  0.00  0.00    +0.119 HD
ENDBRANCH  19  22
BRANCH  16  25
ATOM     25  C   LIG    1       25.018 -24.513   6.355  0.00  0.00    +0.079 C 
ATOM     26  C   LIG    1       25.847 -23.621   7.291  0.00  0.00    +0.026 C 
BRANCH  25  28
ATOM     27  C   LIG    1       24.737 -22.312   5.307  0.00  0.00    +0.101 C 
ATOM     28  N   LIG    1       24.832 -23.748   5.100  0.00  0.00    -0.314 NA
ATOM     29  H   LIG    1       25.608 -23.942   4.466  0.00  0.00    +0.122 HD
ENDBRANCH  25  28
ENDBRANCH  16  25
ENDBRANCH  15  18
ENDBRANCH   1  15
BRANCH   3  30
ATOM     30  O   LIG    1       23.176 -30.010  10.408  0.00  0.00    -0.341 OA
BRANCH  30  31
ATOM     31  C   LIG    1       22.050 -30.108  11.290  0.00  0.00    +0.281 C 
ATOM     32  C   LIG    1       20.853 -30.865  10.657  0.00  0.00    +0.190 C 
ATOM     33  C   LIG    1       19.682 -31.005  11.666  0.00  0.00    +0.121 C 
ATOM     34  C   LIG    1       20.208 -31.602  13.013  0.00  0.00    +0.104 C 
ATOM     35  C   LIG    1       19.136 -31.581  14.109  0.00  0.00    +0.045 C 
ATOM     36  C   LIG    1       21.450 -30.820  13.476  0.00  0.00    +0.199 C 
ATOM     37  O   LIG    1       22.471 -30.806  12.468  0.00  0.00    -0.346 OA
BRANCH  33  38
ATOM     38  N   LIG    1       18.563 -31.847  11.173  0.00  0.00    -0.311 NA
ATOM     39  H   LIG    1       18.937 -32.795  11.048  0.00  0.00    +0.122 HD
ATOM     40  C   LIG    1       17.958 -31.402   9.931  0.00  0.00    +0.101 C 
ENDBRANCH  33  38
BRANCH  32  41
ATOM     41  O   LIG    1       21.287 -32.176  10.229  0.00  0.00    -0.385 OA
ATOM     42  H   LIG    1       22.130 -32.339  10.690  0.00  0.00    +0.210 HD
ENDBRANCH  32  41
BRANCH  34  43
ATOM     43  O   LIG    1       20.586 -32.978  12.823  0.00  0.00    -0.385 OA
ATOM     44  H   LIG    1       21.402 -33.114  13.351  0.00  0.00    +0.210 HD
ENDBRANCH  34  43
ENDBRANCH  30  31
ENDBRANCH   3  30
TORSDOF 13
ENDMDL
MODEL 5
REMARK VINA RESULT:      -5.9      3.288      5.672
REMARK  Name = *****
REMARK                            x       y       z     vdW  Elec       q    Type
REMARK                         _______ _______ _______ _____ _____    ______ ____
ROOT
ATOM      1  C   LIG    1       25.289 -29.940   9.382  0.00  0.00    +0.169 C 
ATOM      2  C   LIG    1       24.453 -29.807  10.710  0.00  0.00    +0.175 C 
ATOM      3  C   LIG    1       23.656 -31.080  11.136  0.00  0.00    +0.169 C 
ATOM      4  C   LIG    1       24.637 -32.280  11.150  0.00  0.00    +0.084 C 
ATOM      5  C   LIG    1       25.215 -32.484   9.745  0.00  0.00    +0.042 C 
ATOM      6  C   LIG    1       26.112 -31.280   9.421  0.00  0.00    +0.084 C 
ENDROOT
BRANCH   4   7
ATOM      7  N   LIG    1       24.145 -33.537  11.710  0.00  0.00    -0.325 NA
ATOM      8  H   LIG    1       23.503 -34.013  11.087  0.00  0.00    +0.118 HD
ATOM      9  H   LIG    1       24.893 -34.154  12.012  0.00  0.00    +0.118 HD
ENDBRANCH   4   7
BRANCH   6  10
ATOM     10  N   LIG    1       26.937 -31.596   8.249  0.00  0.00    -0.325 NA
ATOM     11  H   LIG    1       27.729 -30.960   8.185  0.00  0.00    +0.118 HD
ATOM     12  H   LIG    1       27.312 -32.539   8.310  0.00  0.00    +0.118 HD
ENDBRANCH   6  10
BRANCH   2  13
ATOM     13  O   LIG    1       25.293 -29.360  11.784  0.00  0.00    -0.387 OA
ATOM     14  H   LIG    1       24.848 -28.629  12.277  0.00  0.00    +0.210 HD
ENDBRANCH   2  13
BRANCH   1  15
ATOM     15  O   LIG    1       24.497 -29.870   8.176  0.00  0.00    -0.342 OA
BRANCH  15  18
ATOM     16  C   LIG    1       25.389 -26.765   6.478  0.00  0.00    +0.138 C 
ATOM     17  O   LIG    1       24.653 -27.687   7.280  0.00  0.00    -0.345 OA
ATOM     18  C   LIG    1       25.093 -29.028   7.154  0.00  0.00    +0.268 C 
ATOM     19  C   LIG    1       24.718 -29.536   5.719  0.00  0.00    +0.107 C 
ATOM     20  C   LIG    1       24.346 -28.360   4.793  0.00  0.00    +0.026 C 
ATOM     21  C   LIG    1       25.275 -27.163   4.996  0.00  0.00    +0.035 C 
BRANCH  19  22
ATOM     22  N   LIG    1       23.627 -30.530   5.688  0.00  0.00    -0.323 NA
ATOM     23  H   LIG    1       23.099 -30.414   6.557  0.00  0.00    +0.119 HD
ATOM     24  H   LIG    1       22.954 -30.217   4.980  0.00  0.00    +0.119 HD
ENDBRANCH  19  22
BRANCH  16  25
ATOM     25  C   LIG    1       24.897 -25.308   6.770  0.00  0.00    +0.079 C 
ATOM     26  C   LIG    1       25.902 -24.253   6.285  0.00  0.00    +0.026 C 
BRANCH  25  28
ATOM     27  C   LIG    1       22.979 -23.777   6.722  0.00  0.00    +0.101 C 
ATOM     28  N   LIG    1       23.595 -24.964   6.151  0.00  0.00    -0.314 NA
ATOM     29  H   LIG    1       23.723 -24.822   5.148  0.00  0.00    +0.122 HD
ENDBRANCH  25  28
ENDBRANCH  16  25
ENDBRANCH  15  18
ENDBRANCH   1  15
BRANCH   3  30
ATOM     30  O   LIG    1       22.515 -31.240  10.273  0.00  0.00    -0.341 OA
BRANCH  30  31
ATOM     31  C   LIG    1       21.310 -31.785  10.828  0.00  0.00    +0.281 C 
ATOM     32  C   LIG    1       20.550 -30.775  11.727  0.00  0.00    +0.190 C 
ATOM     33  C   LIG    1       19.222 -31.381  12.254  0.00  0.00    +0.121 C 
ATOM     34  C   LIG    1       18.394 -31.964  11.062  0.00  0.00    +0.104 C 
ATOM     35  C   LIG    1       17.166 -32.747  11.542  0.00  0.00    +0.045 C 
ATOM     36  C   LIG    1       19.291 -32.869  10.199  0.00  0.00    +0.199 C 
ATOM     37  O   LIG    1       20.459 -32.172   9.742  0.00  0.00    -0.346 OA
BRANCH  33  38
ATOM     38  N   LIG    1       18.376 -30.417  12.999  0.00  0.00    -0.311 NA
ATOM     39  H   LIG    1       18.183 -29.635  12.362  0.00  0.00    +0.122 HD
ATOM     40  C   LIG    1       18.960 -29.904  14.225  0.00  0.00    +0.101 C 
ENDBRANCH  33  38
BRANCH  32  41
ATOM     41  O   LIG    1       20.271 -29.575  10.971  0.00  0.00    -0.385 OA
ATOM     42  H   LIG    1       20.885 -28.899  11.313  0.00  0.00    +0.210 HD
ENDBRANCH  32  41
BRANCH  34  43
ATOM     43  O   LIG    1       17.908 -30.891  10.233  0.00  0.00    -0.385 OA
ATOM     44  H   LIG    1       17.566 -31.309   9.414  0.00  0.00    +0.210 HD
ENDBRANCH  34  43
ENDBRANCH  30  31
ENDBRANCH   3  30
TORSDOF 13
ENDMDL
MODEL 6
REMARK VINA RESULT:      -5.9      2.131      3.043
REMARK  Name = *****
REMARK                            x       y       z     vdW  Elec       q    Type
REMARK                         _______ _______ _______ _____ _____    ______ ____
ROOT
ATOM      1  C   LIG    1       25.978 -30.731   8.742  0.00  0.00    +0.169 C 
ATOM      2  C   LIG    1       26.349 -30.373  10.230  0.00  0.00    +0.175 C 
ATOM      3  C   LIG    1       25.395 -30.953  11.321  0.00  0.00    +0.169 C 
ATOM      4  C   LIG    1       25.255 -32.478  11.077  0.00  0.00    +0.084 C 
ATOM      5  C   LIG    1       24.652 -32.719   9.689  0.00  0.00    +0.042 C 
ATOM      6  C   LIG    1       25.680 -32.272   8.639  0.00  0.00    +0.084 C 
ENDROOT
BRANCH   4   7
ATOM      7  N   LIG    1       24.561 -33.256  12.101  0.00  0.00    -0.325 NA
ATOM      8  H   LIG    1       25.187 -33.867  12.613  0.00  0.00    +0.118 HD
ATOM      9  H   LIG    1       24.013 -32.678  12.731  0.00  0.00    +0.118 HD
ENDBRANCH   4   7
BRANCH   6  10
ATOM     10  N   LIG    1       25.285 -32.794   7.326  0.00  0.00    -0.325 NA
ATOM     11  H   LIG    1       24.282 -32.689   7.185  0.00  0.00    +0.118 HD
ATOM     12  H   LIG    1       25.748 -32.287   6.576  0.00  0.00    +0.118 HD
ENDBRANCH   6  10
BRANCH   2  13
ATOM     13  O   LIG    1       27.709 -30.741  10.506  0.00  0.00    -0.387 OA
ATOM     14  H   LIG    1       28.011 -31.420   9.857  0.00  0.00    +0.210 HD
ENDBRANCH   2  13
BRANCH   1  15
ATOM     15  O   LIG    1       24.874 -29.967   8.209  0.00  0.00    -0.342 OA
BRANCH  15  18
ATOM     16  C   LIG    1       25.375 -26.842   6.393  0.00  0.00    +0.138 C 
ATOM     17  O   LIG    1       24.815 -27.781   7.309  0.00  0.00    -0.345 OA
ATOM     18  C   LIG    1       25.258 -29.112   7.101  0.00  0.00    +0.268 C 
ATOM     19  C   LIG    1       24.645 -29.628   5.753  0.00  0.00    +0.107 C 
ATOM     20  C   LIG    1       24.086 -28.461   4.914  0.00  0.00    +0.026 C 
ATOM     21  C   LIG    1       25.008 -27.242   4.953  0.00  0.00    +0.035 C 
BRANCH  19  22
ATOM     22  N   LIG    1       23.590 -30.649   5.913  0.00  0.00    -0.323 NA
ATOM     23  H   LIG    1       23.460 -30.782   6.919  0.00  0.00    +0.119 HD
ATOM     24  H   LIG    1       22.705 -30.212   5.634  0.00  0.00    +0.119 HD
ENDBRANCH  19  22
BRANCH  16  25
ATOM     25  C   LIG    1       24.908 -25.397   6.774  0.00  0.00    +0.079 C 
ATOM     26  C   LIG    1       25.901 -24.327   6.298  0.00  0.00    +0.026 C 
BRANCH  25  28
ATOM     27  C   LIG    1       23.108 -23.730   6.713  0.00  0.00    +0.101 C 
ATOM     28  N   LIG    1       23.584 -25.015   6.228  0.00  0.00    -0.314 NA
ATOM     29  H   LIG    1       23.632 -24.989   5.209  0.00  0.00    +0.122 HD
ENDBRANCH  25  28
ENDBRANCH  16  25
ENDBRANCH  15  18
ENDBRANCH   1  15
BRANCH   3  30
ATOM     30  O   LIG    1       24.156 -30.221  11.312  0.00  0.00    -0.341 OA
BRANCH  30  31
ATOM     31  C   LIG    1       24.113 -28.942  11.958  0.00  0.00    +0.281 C 
ATOM     32  C   LIG    1       22.714 -28.603  12.533  0.00  0.00    +0.190 C 
ATOM     33  C   LIG    1       22.728 -27.243  13.281  0.00  0.00    +0.121 C 
ATOM     34  C   LIG    1       23.897 -27.219  14.320  0.00  0.00    +0.104 C 
ATOM     35  C   LIG    1       24.080 -25.832  14.948  0.00  0.00    +0.045 C 
ATOM     36  C   LIG    1       25.204 -27.667  13.642  0.00  0.00    +0.199 C 
ATOM     37  O   LIG    1       25.065 -28.957  13.030  0.00  0.00    -0.346 OA
BRANCH  33  38
ATOM     38  N   LIG    1       21.458 -26.929  13.980  0.00  0.00    -0.311 NA
ATOM     39  H   LIG    1       21.288 -27.692  14.646  0.00  0.00    +0.122 HD
ATOM     40  C   LIG    1       20.300 -26.778  13.118  0.00  0.00    +0.101 C 
ENDBRANCH  33  38
BRANCH  32  41
ATOM     41  O   LIG    1       22.300 -29.652  13.439  0.00  0.00    -0.385 OA
ATOM     42  H   LIG    1       22.926 -29.618  14.185  0.00  0.00    +0.210 HD
ENDBRANCH  32  41
BRANCH  34  43
ATOM     43  O   LIG    1       23.612 -28.132  15.397  0.00  0.00    -0.385 OA
ATOM     44  H   LIG    1       23.275 -27.586  16.139  0.00  0.00    +0.210 HD
ENDBRANCH  34  43
ENDBRANCH  30  31
ENDBRANCH   3  30
TORSDOF 13
ENDMDL
MODEL 7
REMARK VINA RESULT:      -5.8      2.094      6.692
REMARK  Name = *****
REMARK                            x       y       z     vdW  Elec       q    Type
REMARK                         _______ _______ _______ _____ _____    ______ ____
ROOT
ATOM      1  C   LIG    1       24.328 -31.086  10.784  0.00  0.00    +0.169 C 
ATOM      2  C   LIG    1       23.391 -30.591   9.620  0.00  0.00    +0.175 C 
ATOM      3  C   LIG    1       23.787 -31.067   8.187  0.00  0.00    +0.169 C 
ATOM      4  C   LIG    1       23.957 -32.608   8.221  0.00  0.00    +0.084 C 
ATOM      5  C   LIG    1       25.069 -32.977   9.209  0.00  0.00    +0.042 C 
ATOM      6  C   LIG    1       24.582 -32.630  10.624  0.00  0.00    +0.084 C 
ENDROOT
BRANCH   4   7
ATOM      7  N   LIG    1       24.136 -33.287   6.940  0.00  0.00    -0.325 NA
ATOM      8  H   LIG    1       23.397 -33.073   6.281  0.00  0.00    +0.118 HD
ATOM      9  H   LIG    1       25.052 -33.125   6.532  0.00  0.00    +0.118 HD
ENDBRANCH   4   7
BRANCH   6  10
ATOM     10  N   LIG    1       25.463 -33.272  11.607  0.00  0.00    -0.325 NA
ATOM     11  H   LIG    1       25.179 -34.237  11.767  0.00  0.00    +0.118 HD
ATOM     12  H   LIG    1       26.425 -33.292  11.278  0.00  0.00    +0.118 HD
ENDBRANCH   6  10
BRANCH   2  13
ATOM     13  O   LIG    1       22.025 -30.932   9.901  0.00  0.00    -0.387 OA
ATOM     14  H   LIG    1       21.421 -30.288   9.461  0.00  0.00    +0.210 HD
ENDBRANCH   2  13
BRANCH   1  15
ATOM     15  O   LIG    1       25.582 -30.376  10.876  0.00  0.00    -0.342 OA
BRANCH  15  18
ATOM     16  C   LIG    1       24.456 -28.232  13.606  0.00  0.00    +0.138 C 
ATOM     17  O   LIG    1       24.511 -28.834  12.314  0.00  0.00    -0.345 OA
ATOM     18  C   LIG    1       25.696 -29.577  12.083  0.00  0.00    +0.268 C 
ATOM     19  C   LIG    1       26.894 -28.571  11.981  0.00  0.00    +0.107 C 
ATOM     20  C   LIG    1       26.500 -27.180  12.518  0.00  0.00    +0.026 C 
ATOM     21  C   LIG    1       25.652 -27.282  13.786  0.00  0.00    +0.035 C 
BRANCH  19  22
ATOM     22  N   LIG    1       27.449 -28.418  10.621  0.00  0.00    -0.323 NA
ATOM     23  H   LIG    1       28.374 -27.992  10.728  0.00  0.00    +0.119 HD
ATOM     24  H   LIG    1       27.679 -29.358  10.283  0.00  0.00    +0.119 HD
ENDBRANCH  19  22
BRANCH  16  25
ATOM     25  C   LIG    1       23.070 -27.529  13.797  0.00  0.00    +0.079 C 
ATOM     26  C   LIG    1       23.164 -26.009  13.601  0.00  0.00    +0.026 C 
BRANCH  25  28
ATOM     27  C   LIG    1       20.802 -27.194  12.920  0.00  0.00    +0.101 C 
ATOM     28  N   LIG    1       22.008 -28.007  12.882  0.00  0.00    -0.314 NA
ATOM     29  H   LIG    1       22.365 -28.025  11.927  0.00  0.00    +0.122 HD
ENDBRANCH  25  28
ENDBRANCH  16  25
ENDBRANCH  15  18
ENDBRANCH   1  15
BRANCH   3  30
ATOM     30  O   LIG    1       24.948 -30.339   7.745  0.00  0.00    -0.341 OA
BRANCH  30  31
ATOM     31  C   LIG    1       24.762 -29.242   6.841  0.00  0.00    +0.281 C 
ATOM     32  C   LIG    1       25.199 -27.882   7.446  0.00  0.00    +0.190 C 
ATOM     33  C   LIG    1       25.043 -26.733   6.414  0.00  0.00    +0.121 C 
ATOM     34  C   LIG    1       25.750 -27.122   5.074  0.00  0.00    +0.104 C 
ATOM     35  C   LIG    1       25.463 -26.111   3.957  0.00  0.00    +0.045 C 
ATOM     36  C   LIG    1       25.300 -28.528   4.639  0.00  0.00    +0.199 C 
ATOM     37  O   LIG    1       25.541 -29.500   5.667  0.00  0.00    -0.346 OA
BRANCH  33  38
ATOM     38  N   LIG    1       25.581 -25.431   6.880  0.00  0.00    -0.311 NA
ATOM     39  H   LIG    1       25.866 -25.559   7.858  0.00  0.00    +0.122 HD
ATOM     40  C   LIG    1       24.658 -24.315   6.790  0.00  0.00    +0.101 C 
ENDBRANCH  33  38
BRANCH  32  41
ATOM     41  O   LIG    1       26.577 -27.968   7.874  0.00  0.00    -0.385 OA
ATOM     42  H   LIG    1       26.545 -28.148   8.832  0.00  0.00    +0.210 HD
ENDBRANCH  32  41
BRANCH  34  43
ATOM     43  O   LIG    1       27.177 -27.143   5.262  0.00  0.00    -0.385 OA
ATOM     44  H   LIG    1       27.366 -27.902   5.855  0.00  0.00    +0.210 HD
ENDBRANCH  34  43
ENDBRANCH  30  31
ENDBRANCH   3  30
TORSDOF 13
ENDMDL
MODEL 8
REMARK VINA RESULT:      -5.7      5.258      9.749
REMARK  Name = *****
REMARK                            x       y       z     vdW  Elec       q    Type
REMARK                         _______ _______ _______ _____ _____    ______ ____
ROOT
ATOM      1  C   LIG    1       26.164 -20.708   6.790  0.00  0.00    +0.169 C 
ATOM      2  C   LIG    1       25.303 -20.890   5.485  0.00  0.00    +0.175 C 
ATOM      3  C   LIG    1       24.427 -22.181   5.428  0.00  0.00    +0.169 C 
ATOM      4  C   LIG    1       23.587 -22.250   6.729  0.00  0.00    +0.084 C 
ATOM      5  C   LIG    1       24.524 -22.319   7.939  0.00  0.00    +0.042 C 
ATOM      6  C   LIG    1       25.260 -20.975   8.048  0.00  0.00    +0.084 C 
ENDROOT
BRANCH   4   7
ATOM      7  N   LIG    1       22.550 -23.278   6.799  0.00  0.00    -0.325 NA
ATOM      8  H   LIG    1       22.383 -23.721   5.903  0.00  0.00    +0.118 HD
ATOM      9  H   LIG    1       22.726 -23.966   7.524  0.00  0.00    +0.118 HD
ENDBRANCH   4   7
BRANCH   6  10
ATOM     10  N   LIG    1       25.898 -20.882   9.367  0.00  0.00    -0.325 NA
ATOM     11  H   LIG    1       26.875 -21.162   9.313  0.00  0.00    +0.118 HD
ATOM     12  H   LIG    1       25.877 -19.928   9.716  0.00  0.00    +0.118 HD
ENDBRANCH   6  10
BRANCH   2  13
ATOM     13  O   LIG    1       24.494 -19.726   5.256  0.00  0.00    -0.387 OA
ATOM     14  H   LIG    1       24.834 -18.970   5.792  0.00  0.00    +0.210 HD
ENDBRANCH   2  13
BRANCH   1  15
ATOM     15  O   LIG    1       27.348 -21.535   6.835  0.00  0.00    -0.342 OA
BRANCH  15  18
ATOM     16  C   LIG    1       29.842 -19.249   8.205  0.00  0.00    +0.138 C 
ATOM     17  O   LIG    1       28.572 -19.851   7.957  0.00  0.00    -0.345 OA
ATOM     18  C   LIG    1       28.578 -20.764   6.873  0.00  0.00    +0.268 C 
ATOM     19  C   LIG    1       28.772 -19.950   5.547  0.00  0.00    +0.107 C 
ATOM     20  C   LIG    1       29.258 -18.516   5.841  0.00  0.00    +0.026 C 
ATOM     21  C   LIG    1       30.309 -18.491   6.951  0.00  0.00    +0.035 C 
BRANCH  19  22
ATOM     22  N   LIG    1       27.571 -19.880   4.691  0.00  0.00    -0.323 NA
ATOM     23  H   LIG    1       26.799 -20.273   5.236  0.00  0.00    +0.119 HD
ATOM     24  H   LIG    1       27.308 -18.891   4.622  0.00  0.00    +0.119 HD
ENDBRANCH  19  22
BRANCH  16  25
ATOM     25  C   LIG    1       29.753 -18.346   9.481  0.00  0.00    +0.079 C 
ATOM     26  C   LIG    1       30.758 -18.773  10.560  0.00  0.00    +0.026 C 
BRANCH  25  28
ATOM     27  C   LIG    1       31.178 -16.391   9.897  0.00  0.00    +0.101 C 
ATOM     28  N   LIG    1       29.992 -16.905   9.231  0.00  0.00    -0.314 NA
ATOM     29  H   LIG    1       30.078 -16.744   8.227  0.00  0.00    +0.122 HD
ENDBRANCH  25  28
ENDBRANCH  16  25
ENDBRANCH  15  18
ENDBRANCH   1  15
BRANCH   3  30
ATOM     30  O   LIG    1       25.273 -23.322   5.191  0.00  0.00    -0.341 OA
BRANCH  30  31
ATOM     31  C   LIG    1       25.023 -24.523   5.934  0.00  0.00    +0.281 C 
ATOM     32  C   LIG    1       24.590 -25.709   5.034  0.00  0.00    +0.190 C 
ATOM     33  C   LIG    1       24.395 -27.004   5.868  0.00  0.00    +0.121 C 
ATOM     34  C   LIG    1       25.660 -27.266   6.749  0.00  0.00    +0.104 C 
ATOM     35  C   LIG    1       25.446 -28.419   7.736  0.00  0.00    +0.045 C 
ATOM     36  C   LIG    1       26.036 -25.983   7.512  0.00  0.00    +0.199 C 
ATOM     37  O   LIG    1       26.231 -24.876   6.620  0.00  0.00    -0.346 OA
BRANCH  33  38
ATOM     38  N   LIG    1       24.123 -28.210   5.048  0.00  0.00    -0.311 NA
ATOM     39  H   LIG    1       23.380 -27.959   4.385  0.00  0.00    +0.122 HD
ATOM     40  C   LIG    1       23.720 -29.386   5.797  0.00  0.00    +0.101 C 
ENDBRANCH  33  38
BRANCH  32  41
ATOM     41  O   LIG    1       25.594 -25.932   4.017  0.00  0.00    -0.385 OA
ATOM     42  H   LIG    1       25.103 -26.055   3.184  0.00  0.00    +0.210 HD
ENDBRANCH  32  41
BRANCH  34  43
ATOM     43  O   LIG    1       26.772 -27.633   5.911  0.00  0.00    -0.385 OA
ATOM     44  H   LIG    1       27.300 -26.816   5.780  0.00  0.00    +0.210 HD
ENDBRANCH  34  43
ENDBRANCH  30  31
ENDBRANCH   3  30
TORSDOF 13
ENDMDL
MODEL 9
REMARK VINA RESULT:      -5.6      2.918      5.389
REMARK  Name = *****
REMARK                            x       y       z     vdW  Elec       q    Type
REMARK                         _______ _______ _______ _____ _____    ______ ____
ROOT
ATOM      1  C   LIG    1       25.888 -25.812   5.878  0.00  0.00    +0.169 C 
ATOM      2  C   LIG    1       26.951 -26.943   6.141  0.00  0.00    +0.175 C 
ATOM      3  C   LIG    1       26.464 -28.135   7.023  0.00  0.00    +0.169 C 
ATOM      4  C   LIG    1       25.139 -28.670   6.421  0.00  0.00    +0.084 C 
ATOM      5  C   LIG    1       24.086 -27.557   6.436  0.00  0.00    +0.042 C 
ATOM      6  C   LIG    1       24.528 -26.470   5.444  0.00  0.00    +0.084 C 
ENDROOT
BRANCH   4   7
ATOM      7  N   LIG    1       24.608 -29.913   6.976  0.00  0.00    -0.325 NA
ATOM      8  H   LIG    1       23.942 -30.360   6.357  0.00  0.00    +0.118 HD
ATOM      9  H   LIG    1       25.337 -30.559   7.263  0.00  0.00    +0.118 HD
ENDBRANCH   4   7
BRANCH   6  10
ATOM     10  N   LIG    1       23.398 -25.570   5.183  0.00  0.00    -0.325 NA
ATOM     11  H   LIG    1       22.868 -25.403   6.035  0.00  0.00    +0.118 HD
ATOM     12  H   LIG    1       23.722 -24.666   4.847  0.00  0.00    +0.118 HD
ENDBRANCH   6  10
BRANCH   2  13
ATOM     13  O   LIG    1       27.483 -27.425   4.898  0.00  0.00    -0.387 OA
ATOM     14  H   LIG    1       28.189 -26.816   4.575  0.00  0.00    +0.210 HD
ENDBRANCH   2  13
BRANCH   1  15
ATOM     15  O   LIG    1       25.683 -24.923   6.998  0.00  0.00    -0.342 OA
BRANCH  15  18
ATOM     16  C   LIG    1       27.258 -21.639   7.242  0.00  0.00    +0.138 C 
ATOM     17  O   LIG    1       26.771 -22.922   7.635  0.00  0.00    -0.345 OA
ATOM     18  C   LIG    1       25.929 -23.530   6.670  0.00  0.00    +0.268 C 
ATOM     19  C   LIG    1       24.587 -22.721   6.609  0.00  0.00    +0.107 C 
ATOM     20  C   LIG    1       24.732 -21.352   7.304  0.00  0.00    +0.026 C 
ATOM     21  C   LIG    1       26.073 -20.693   6.984  0.00  0.00    +0.035 C 
BRANCH  19  22
ATOM     22  N   LIG    1       23.423 -23.426   7.181  0.00  0.00    -0.323 NA
ATOM     23  H   LIG    1       23.331 -24.307   6.667  0.00  0.00    +0.119 HD
ATOM     24  H   LIG    1       23.694 -23.745   8.117  0.00  0.00    +0.119 HD
ENDBRANCH  19  22
BRANCH  16  25
ATOM     25  C   LIG    1       28.257 -21.105   8.324  0.00  0.00    +0.079 C 
ATOM     26  C   LIG    1       29.691 -21.593   8.073  0.00  0.00    +0.026 C 
BRANCH  25  28
ATOM     27  C   LIG    1       29.629 -19.086   8.072  0.00  0.00    +0.101 C 
ATOM     28  N   LIG    1       28.325 -19.628   8.419  0.00  0.00    -0.314 NA
ATOM     29  H   LIG    1       27.620 -19.215   7.809  0.00  0.00    +0.122 HD
ENDBRANCH  25  28
ENDBRANCH  16  25
ENDBRANCH  15  18
ENDBRANCH   1  15
BRANCH   3  30
ATOM     30  O   LIG    1       26.378 -27.710   8.396  0.00  0.00    -0.341 OA
BRANCH  30  31
ATOM     31  C   LIG    1       26.484 -28.702   9.426  0.00  0.00    +0.281 C 
ATOM     32  C   LIG    1       27.261 -28.198  10.670  0.00  0.00    +0.190 C 
ATOM     33  C   LIG    1       27.297 -29.278  11.784  0.00  0.00    +0.121 C 
ATOM     34  C   LIG    1       25.849 -29.795  12.070  0.00  0.00    +0.104 C 
ATOM     35  C   LIG    1       25.844 -30.998  13.022  0.00  0.00    +0.045 C 
ATOM     36  C   LIG    1       25.160 -30.169  10.746  0.00  0.00    +0.199 C 
ATOM     37  O   LIG    1       25.157 -29.069   9.824  0.00  0.00    -0.346 OA
BRANCH  33  38
ATOM     38  N   LIG    1       27.898 -28.808  13.057  0.00  0.00    -0.311 NA
ATOM     39  H   LIG    1       28.112 -27.811  12.935  0.00  0.00    +0.122 HD
ATOM     40  C   LIG    1       29.100 -29.509  13.467  0.00  0.00    +0.101 C 
ENDBRANCH  33  38
BRANCH  32  41
ATOM     41  O   LIG    1       26.634 -26.998  11.175  0.00  0.00    -0.385 OA
ATOM     42  H   LIG    1       26.122 -26.634  10.429  0.00  0.00    +0.210 HD
ENDBRANCH  32  41
BRANCH  34  43
ATOM     43  O   LIG    1       25.075 -28.759  12.703  0.00  0.00    -0.385 OA
ATOM     44  H   LIG    1       25.585 -27.928  12.592  0.00  0.00    +0.210 HD
ENDBRANCH  34  43
ENDBRANCH  30  31
ENDBRANCH   3  30
TORSDOF 13
ENDMDL
