MODEL 1
REMARK VINA RESULT:      -4.7      0.000      0.000
REMARK  Name = *****
REMARK                            x       y       z     vdW  Elec       q    Type
REMARK                         _______ _______ _______ _____ _____    ______ ____
ROOT
ATOM      1  N   LIG    1       25.359 -20.852   5.521  0.00  0.00    -0.327 N 
ATOM      2  C   LIG    1       25.020 -20.474   4.129  0.00  0.00    +0.120 C 
ATOM      3  C   LIG    1       23.549 -20.863   3.791  0.00  0.00    +0.103 C 
ATOM      4  N   LIG    1       22.496 -20.430   4.753  0.00  0.00    -0.299 NA
ATOM      5  C   LIG    1       22.946 -20.826   6.111  0.00  0.00    +0.103 C 
ATOM      6  C   LIG    1       24.364 -20.350   6.493  0.00  0.00    +0.120 C 
ENDROOT
BRANCH   1   9
ATOM      7  C   LIG    1       26.852 -18.627   4.281  0.00  0.00    +0.045 C 
ATOM      8  C   LIG    1       27.459 -19.596   5.261  0.00  0.00    -0.029 A 
ATOM      9  C   LIG    1       26.712 -20.634   5.866  0.00  0.00    +0.033 A 
ATOM     10  C   LIG    1       27.389 -21.470   6.777  0.00  0.00    +0.023 A 
ATOM     11  C   LIG    1       28.750 -21.313   7.061  0.00  0.00    +0.002 A 
ATOM     12  C   LIG    1       29.471 -20.298   6.453  0.00  0.00    +0.000 A 
ATOM     13  C   LIG    1       28.827 -19.436   5.570  0.00  0.00    +0.005 A 
ENDBRANCH   1   9
BRANCH   4  14
ATOM     14  C   LIG    1       22.205 -18.986   4.612  0.00  0.00    +0.092 C 
BRANCH  14  15
ATOM     15  C   LIG    1       23.268 -18.198   3.819  0.00  0.00    +0.091 C 
BRANCH  15  16
ATOM     16  C   LIG    1       23.317 -16.762   4.227  0.00  0.00    +0.135 A 
ATOM     17  N   LIG    1       24.338 -15.886   3.969  0.00  0.00    -0.315 N 
ATOM     18  C   LIG    1       25.567 -16.120   3.241  0.00  0.00    +0.125 C 
ATOM     19  C   LIG    1       26.471 -14.884   3.128  0.00  0.00    +0.022 C 
ATOM     20  C   LIG    1       25.678 -13.576   3.058  0.00  0.00    +0.009 C 
ATOM     21  C   LIG    1       24.760 -13.443   4.274  0.00  0.00    +0.076 C 
ATOM     22  C   LIG    1       23.932 -14.663   4.424  0.00  0.00    +0.134 A 
ATOM     23  N   LIG    1       22.739 -14.785   4.968  0.00  0.00    -0.134 NA
ATOM     24  N   LIG    1       22.352 -16.098   4.838  0.00  0.00    -0.134 NA
ENDBRANCH  15  16
ENDBRANCH  14  15
ENDBRANCH   4  14
TORSDOF 4
ENDMDL
MODEL 2
REMARK VINA RESULT:      -2.3      2.239      4.467
REMARK  Name = *****
REMARK                            x       y       z     vdW  Elec       q    Type
REMARK                         _______ _______ _______ _____ _____    ______ ____
ROOT
ATOM      1  N   LIG    1       26.082 -19.479   4.610  0.00  0.00    -0.327 N 
ATOM      2  C   LIG    1       27.123 -19.118   5.599  0.00  0.00    +0.120 C 
ATOM      3  C   LIG    1       28.335 -18.428   4.902  0.00  0.00    +0.103 C 
ATOM      4  N   LIG    1       28.032 -17.296   3.982  0.00  0.00    -0.299 NA
ATOM      5  C   LIG    1       26.961 -17.749   3.060  0.00  0.00    +0.103 C 
ATOM      6  C   LIG    1       25.710 -18.336   3.749  0.00  0.00    +0.120 C 
ENDROOT
BRANCH   1   9
ATOM      7  C   LIG    1       23.755 -20.132   2.913  0.00  0.00    +0.045 C 
ATOM      8  C   LIG    1       23.859 -20.508   4.367  0.00  0.00    -0.029 A 
ATOM      9  C   LIG    1       25.000 -20.212   5.150  0.00  0.00    +0.033 A 
ATOM     10  C   LIG    1       24.984 -20.626   6.497  0.00  0.00    +0.023 A 
ATOM     11  C   LIG    1       23.883 -21.278   7.062  0.00  0.00    +0.002 A 
ATOM     12  C   LIG    1       22.769 -21.552   6.286  0.00  0.00    +0.000 A 
ATOM     13  C   LIG    1       22.762 -21.183   4.944  0.00  0.00    +0.005 A 
ENDBRANCH   1   9
BRANCH   4  14
ATOM     14  C   LIG    1       27.695 -16.068   4.738  0.00  0.00    +0.092 C 
BRANCH  14  15
ATOM     15  C   LIG    1       28.037 -14.756   4.001  0.00  0.00    +0.091 C 
BRANCH  15  16
ATOM     16  C   LIG    1       26.837 -14.162   3.336  0.00  0.00    +0.135 A 
ATOM     17  N   LIG    1       25.798 -13.532   3.966  0.00  0.00    -0.315 N 
ATOM     18  C   LIG    1       25.621 -13.273   5.379  0.00  0.00    +0.125 C 
ATOM     19  C   LIG    1       24.331 -12.511   5.718  0.00  0.00    +0.022 C 
ATOM     20  C   LIG    1       23.915 -11.533   4.616  0.00  0.00    +0.009 C 
ATOM     21  C   LIG    1       23.755 -12.266   3.283  0.00  0.00    +0.076 C 
ATOM     22  C   LIG    1       24.974 -13.055   2.986  0.00  0.00    +0.134 A 
ATOM     23  N   LIG    1       25.461 -13.404   1.812  0.00  0.00    -0.134 NA
ATOM     24  N   LIG    1       26.631 -14.092   2.033  0.00  0.00    -0.134 NA
ENDBRANCH  15  16
ENDBRANCH  14  15
ENDBRANCH   4  14
TORSDOF 4
ENDMDL
MODEL 3
REMARK VINA RESULT:      -1.9      1.308      5.756
REMARK  Name = *****
REMARK                            x       y       z     vdW  Elec       q    Type
REMARK                         _______ _______ _______ _____ _____    ______ ____
ROOT
ATOM      1  N   LIG    1       24.090 -15.716   3.689  0.00  0.00    -0.327 N 
ATOM      2  C   LIG    1       23.298 -15.570   4.932  0.00  0.00    +0.120 C 
ATOM      3  C   LIG    1       21.966 -16.374   4.839  0.00  0.00    +0.103 C 
ATOM      4  N   LIG    1       22.063 -17.799   4.412  0.00  0.00    -0.299 NA
ATOM      5  C   LIG    1       22.898 -17.837   3.185  0.00  0.00    +0.103 C 
ATOM      6  C   LIG    1       24.268 -17.134   3.305  0.00  0.00    +0.120 C 
ENDROOT
BRANCH   1   9
ATOM      7  C   LIG    1       23.982 -12.987   2.568  0.00  0.00    +0.045 C 
ATOM      8  C   LIG    1       25.241 -13.626   3.089  0.00  0.00    -0.029 A 
ATOM      9  C   LIG    1       25.260 -14.924   3.652  0.00  0.00    +0.033 A 
ATOM     10  C   LIG    1       26.499 -15.409   4.116  0.00  0.00    +0.023 A 
ATOM     11  C   LIG    1       27.678 -14.664   4.007  0.00  0.00    +0.002 A 
ATOM     12  C   LIG    1       27.646 -13.398   3.445  0.00  0.00    +0.000 A 
ATOM     13  C   LIG    1       26.434 -12.876   3.002  0.00  0.00    +0.005 A 
ENDBRANCH   1   9
BRANCH   4  14
ATOM     14  C   LIG    1       22.568 -18.653   5.510  0.00  0.00    +0.092 C 
BRANCH  14  15
ATOM     15  C   LIG    1       22.891 -20.102   5.090  0.00  0.00    +0.091 C 
BRANCH  15  16
ATOM     16  C   LIG    1       24.164 -20.589   5.704  0.00  0.00    +0.135 A 
ATOM     17  N   LIG    1       25.428 -20.215   5.337  0.00  0.00    -0.315 N 
ATOM     18  C   LIG    1       25.832 -19.271   4.317  0.00  0.00    +0.125 C 
ATOM     19  C   LIG    1       27.352 -19.084   4.204  0.00  0.00    +0.022 C 
ATOM     20  C   LIG    1       28.068 -19.240   5.549  0.00  0.00    +0.009 C 
ATOM     21  C   LIG    1       27.753 -20.603   6.167  0.00  0.00    +0.076 C 
ATOM     22  C   LIG    1       26.287 -20.814   6.216  0.00  0.00    +0.134 A 
ATOM     23  N   LIG    1       25.590 -21.548   7.060  0.00  0.00    -0.134 NA
ATOM     24  N   LIG    1       24.260 -21.401   6.742  0.00  0.00    -0.134 NA
ENDBRANCH  15  16
ENDBRANCH  14  15
ENDBRANCH   4  14
TORSDOF 4
ENDMDL
