MODEL 1
REMARK VINA RESULT:      -5.0      0.000      0.000
REMARK  Name = *****
REMARK                            x       y       z     vdW  Elec       q    Type
REMARK                         _______ _______ _______ _____ _____    ______ ____
ROOT
ATOM      1  C   LIG    1       26.453 -17.025   3.162  0.00  0.00    +0.143 C 
ENDROOT
BRANCH   1   2
ATOM      2  O   LIG    1       27.495 -17.445   4.062  0.00  0.00    -0.389 OA
ATOM      3  H   LIG    1       27.268 -17.031   4.931  0.00  0.00    +0.210 HD
ENDBRANCH   1   2
BRANCH   1   4
ATOM      4  C   LIG    1       25.331 -18.135   3.084  0.00  0.00    +0.118 C 
BRANCH   4   5
ATOM      5  N   LIG    1       24.960 -18.935   4.321  0.00  0.00    -0.280 NA
BRANCH   5   6
ATOM      6  C   LIG    1       25.708 -20.225   4.490  0.00  0.00    +0.206 C 
BRANCH   6   7
ATOM      7  C   LIG    1       26.691 -20.259   5.659  0.00  0.00    +0.319 C 
ATOM      8  O   LIG    1       26.375 -20.354   6.822  0.00  0.00    -0.250 OA
BRANCH   7   9
ATOM      9  O   LIG    1       27.974 -20.108   5.246  0.00  0.00    -0.480 OA
ATOM     10  H   LIG    1       28.394 -21.002   5.349  0.00  0.00    +0.295 HD
ENDBRANCH   7   9
ENDBRANCH   6   7
ENDBRANCH   5   6
BRANCH   5  11
ATOM     11  C   LIG    1       23.478 -19.282   4.175  0.00  0.00    +0.206 C 
BRANCH  11  12
ATOM     12  C   LIG    1       22.880 -20.216   5.240  0.00  0.00    +0.319 C 
ATOM     13  O   LIG    1       23.040 -20.078   6.444  0.00  0.00    -0.250 OA
BRANCH  12  14
ATOM     14  O   LIG    1       22.104 -21.214   4.747  0.00  0.00    -0.480 OA
ATOM     15  H   LIG    1       21.929 -21.973   5.330  0.00  0.00    +0.295 HD
ENDBRANCH  12  14
ENDBRANCH  11  12
ENDBRANCH   5  11
ENDBRANCH   4   5
ENDBRANCH   1   4
BRANCH   1  16
ATOM     16  C   LIG    1       25.885 -15.657   3.625  0.00  0.00    +0.118 C 
BRANCH  16  17
ATOM     17  N   LIG    1       26.692 -14.428   3.386  0.00  0.00    -0.280 NA
BRANCH  17  18
ATOM     18  C   LIG    1       27.251 -13.777   4.622  0.00  0.00    +0.206 C 
BRANCH  18  19
ATOM     19  C   LIG    1       28.558 -12.998   4.429  0.00  0.00    +0.319 C 
ATOM     20  O   LIG    1       29.312 -13.162   3.483  0.00  0.00    -0.250 OA
BRANCH  19  21
ATOM     21  O   LIG    1       28.792 -12.075   5.388  0.00  0.00    -0.480 OA
ATOM     22  H   LIG    1       29.129 -11.220   5.032  0.00  0.00    +0.295 HD
ENDBRANCH  19  21
ENDBRANCH  18  19
ENDBRANCH  17  18
BRANCH  17  23
ATOM     23  C   LIG    1       25.914 -13.367   2.651  0.00  0.00    +0.206 C 
BRANCH  23  25
ATOM     24  O   LIG    1       24.339 -12.529   4.274  0.00  0.00    -0.250 OA
ATOM     25  C   LIG    1       24.521 -13.014   3.187  0.00  0.00    +0.319 C 
BRANCH  25  26
ATOM     26  O   LIG    1       23.502 -13.248   2.326  0.00  0.00    -0.480 OA
ATOM     27  H   LIG    1       23.277 -14.196   2.284  0.00  0.00    +0.295 HD
ENDBRANCH  25  26
ENDBRANCH  23  25
ENDBRANCH  17  23
ENDBRANCH  16  17
ENDBRANCH   1  16
TORSDOF 17
ENDMDL
MODEL 2
REMARK VINA RESULT:      -4.9      0.309      6.812
REMARK  Name = *****
REMARK                            x       y       z     vdW  Elec       q    Type
REMARK                         _______ _______ _______ _____ _____    ______ ____
ROOT
ATOM      1  C   LIG    1       26.268 -16.947   3.803  0.00  0.00    +0.143 C 
ENDROOT
BRANCH   1   2
ATOM      2  O   LIG    1       27.638 -17.225   3.461  0.00  0.00    -0.389 OA
ATOM      3  H   LIG    1       27.623 -17.458   2.500  0.00  0.00    +0.210 HD
ENDBRANCH   1   2
BRANCH   1   4
ATOM      4  C   LIG    1       25.830 -15.562   3.182  0.00  0.00    +0.118 C 
BRANCH   4   5
ATOM      5  N   LIG    1       26.820 -14.411   3.105  0.00  0.00    -0.280 NA
BRANCH   5   6
ATOM      6  C   LIG    1       27.369 -13.958   4.426  0.00  0.00    +0.206 C 
BRANCH   6   7
ATOM      7  C   LIG    1       28.592 -13.046   4.344  0.00  0.00    +0.319 C 
ATOM      8  O   LIG    1       29.443 -13.111   3.489  0.00  0.00    -0.250 OA
BRANCH   7   9
ATOM      9  O   LIG    1       28.650 -12.182   5.388  0.00  0.00    -0.480 OA
ATOM     10  H   LIG    1       29.469 -12.430   5.893  0.00  0.00    +0.295 HD
ENDBRANCH   7   9
ENDBRANCH   6   7
ENDBRANCH   5   6
BRANCH   5  11
ATOM     11  C   LIG    1       26.057 -13.233   2.500  0.00  0.00    +0.206 C 
BRANCH  11  12
ATOM     12  C   LIG    1       24.662 -12.943   3.077  0.00  0.00    +0.319 C 
ATOM     13  O   LIG    1       24.456 -12.572   4.223  0.00  0.00    -0.250 OA
BRANCH  12  14
ATOM     14  O   LIG    1       23.641 -13.092   2.195  0.00  0.00    -0.480 OA
ATOM     15  H   LIG    1       23.371 -14.000   1.973  0.00  0.00    +0.295 HD
ENDBRANCH  12  14
ENDBRANCH  11  12
ENDBRANCH   5  11
ENDBRANCH   4   5
ENDBRANCH   1   4
BRANCH   1  16
ATOM     16  C   LIG    1       25.364 -18.111   3.320  0.00  0.00    +0.118 C 
BRANCH  16  17
ATOM     17  N   LIG    1       24.861 -19.093   4.321  0.00  0.00    -0.280 NA
BRANCH  17  18
ATOM     18  C   LIG    1       25.724 -20.311   4.514  0.00  0.00    +0.206 C 
BRANCH  18  19
ATOM     19  C   LIG    1       26.805 -20.194   5.597  0.00  0.00    +0.319 C 
ATOM     20  O   LIG    1       26.597 -20.383   6.785  0.00  0.00    -0.250 OA
BRANCH  19  21
ATOM     21  O   LIG    1       28.032 -19.896   5.116  0.00  0.00    -0.480 OA
ATOM     22  H   LIG    1       28.008 -19.404   4.263  0.00  0.00    +0.295 HD
ENDBRANCH  19  21
ENDBRANCH  18  19
ENDBRANCH  17  18
BRANCH  17  23
ATOM     23  C   LIG    1       23.478 -19.590   3.990  0.00  0.00    +0.206 C 
BRANCH  23  25
ATOM     24  O   LIG    1       22.802 -20.009   6.266  0.00  0.00    -0.250 OA
ATOM     25  C   LIG    1       22.699 -20.301   5.104  0.00  0.00    +0.319 C 
BRANCH  25  26
ATOM     26  O   LIG    1       21.844 -21.262   4.678  0.00  0.00    -0.480 OA
ATOM     27  H   LIG    1       21.488 -21.061   3.792  0.00  0.00    +0.295 HD
ENDBRANCH  25  26
ENDBRANCH  23  25
ENDBRANCH  17  23
ENDBRANCH  16  17
ENDBRANCH   1  16
TORSDOF 17
ENDMDL
MODEL 3
REMARK VINA RESULT:      -4.8      0.734      2.712
REMARK  Name = *****
REMARK                            x       y       z     vdW  Elec       q    Type
REMARK                         _______ _______ _______ _____ _____    ______ ____
ROOT
ATOM      1  C   LIG    1       26.327 -16.961   3.152  0.00  0.00    +0.143 C 
ENDROOT
BRANCH   1   2
ATOM      2  O   LIG    1       27.511 -17.125   3.956  0.00  0.00    -0.389 OA
ATOM      3  H   LIG    1       27.680 -16.236   4.352  0.00  0.00    +0.210 HD
ENDBRANCH   1   2
BRANCH   1   4
ATOM      4  C   LIG    1       25.584 -18.347   3.001  0.00  0.00    +0.118 C 
BRANCH   4   5
ATOM      5  N   LIG    1       25.021 -19.050   4.224  0.00  0.00    -0.280 NA
BRANCH   5   6
ATOM      6  C   LIG    1       25.710 -20.332   4.593  0.00  0.00    +0.206 C 
BRANCH   6   7
ATOM      7  C   LIG    1       26.780 -20.207   5.675  0.00  0.00    +0.319 C 
ATOM      8  O   LIG    1       26.568 -20.261   6.863  0.00  0.00    -0.250 OA
BRANCH   7   9
ATOM      9  O   LIG    1       28.007 -19.965   5.149  0.00  0.00    -0.480 OA
ATOM     10  H   LIG    1       28.069 -18.978   5.061  0.00  0.00    +0.295 HD
ENDBRANCH   7   9
ENDBRANCH   6   7
ENDBRANCH   5   6
BRANCH   5  11
ATOM     11  C   LIG    1       23.569 -19.393   3.888  0.00  0.00    +0.206 C 
BRANCH  11  12
ATOM     12  C   LIG    1       22.768 -20.139   4.968  0.00  0.00    +0.319 C 
ATOM     13  O   LIG    1       22.575 -19.714   6.097  0.00  0.00    -0.250 OA
BRANCH  12  14
ATOM     14  O   LIG    1       22.235 -21.320   4.564  0.00  0.00    -0.480 OA
ATOM     15  H   LIG    1       21.973 -21.395   3.630  0.00  0.00    +0.295 HD
ENDBRANCH  12  14
ENDBRANCH  11  12
ENDBRANCH   5  11
ENDBRANCH   4   5
ENDBRANCH   1   4
BRANCH   1  16
ATOM     16  C   LIG    1       25.414 -15.879   3.788  0.00  0.00    +0.118 C 
BRANCH  16  17
ATOM     17  N   LIG    1       25.746 -14.443   3.574  0.00  0.00    -0.280 NA
BRANCH  17  18
ATOM     18  C   LIG    1       24.800 -13.692   2.677  0.00  0.00    +0.206 C 
BRANCH  18  19
ATOM     19  C   LIG    1       24.152 -12.444   3.292  0.00  0.00    +0.319 C 
ATOM     20  O   LIG    1       24.058 -12.250   4.493  0.00  0.00    -0.250 OA
BRANCH  19  21
ATOM     21  O   LIG    1       23.721 -11.545   2.379  0.00  0.00    -0.480 OA
ATOM     22  H   LIG    1       24.453 -11.117   1.878  0.00  0.00    +0.295 HD
ENDBRANCH  19  21
ENDBRANCH  18  19
ENDBRANCH  17  18
BRANCH  17  23
ATOM     23  C   LIG    1       27.128 -14.254   3.002  0.00  0.00    +0.206 C 
BRANCH  23  25
ATOM     24  O   LIG    1       27.870 -12.986   4.913  0.00  0.00    -0.250 OA
ATOM     25  C   LIG    1       28.128 -13.435   3.827  0.00  0.00    +0.319 C 
BRANCH  25  26
ATOM     26  O   LIG    1       29.349 -13.288   3.261  0.00  0.00    -0.480 OA
ATOM     27  H   LIG    1       29.291 -13.232   2.289  0.00  0.00    +0.295 HD
ENDBRANCH  25  26
ENDBRANCH  23  25
ENDBRANCH  17  23
ENDBRANCH  16  17
ENDBRANCH   1  16
TORSDOF 17
ENDMDL
MODEL 4
REMARK VINA RESULT:      -4.7      0.898      2.748
REMARK  Name = *****
REMARK                            x       y       z     vdW  Elec       q    Type
REMARK                         _______ _______ _______ _____ _____    ______ ____
ROOT
ATOM      1  C   LIG    1       25.969 -17.574   3.248  0.00  0.00    +0.143 C 
ENDROOT
BRANCH   1   2
ATOM      2  O   LIG    1       27.248 -17.786   3.875  0.00  0.00    -0.389 OA
ATOM      3  H   LIG    1       27.915 -17.477   3.213  0.00  0.00    +0.210 HD
ENDBRANCH   1   2
BRANCH   1   4
ATOM      4  C   LIG    1       24.877 -18.485   3.936  0.00  0.00    +0.118 C 
BRANCH   4   5
ATOM      5  N   LIG    1       25.155 -19.958   4.183  0.00  0.00    -0.280 NA
BRANCH   5   6
ATOM      6  C   LIG    1       24.000 -20.877   3.909  0.00  0.00    +0.206 C 
BRANCH   6   7
ATOM      7  C   LIG    1       22.868 -20.822   4.934  0.00  0.00    +0.319 C 
ATOM      8  O   LIG    1       22.755 -21.572   5.875  0.00  0.00    -0.250 OA
BRANCH   7   9
ATOM      9  O   LIG    1       21.958 -19.863   4.632  0.00  0.00    -0.480 OA
ATOM     10  H   LIG    1       22.381 -19.307   3.926  0.00  0.00    +0.295 HD
ENDBRANCH   7   9
ENDBRANCH   6   7
ENDBRANCH   5   6
BRANCH   5  11
ATOM     11  C   LIG    1       25.496 -20.084   5.668  0.00  0.00    +0.206 C 
BRANCH  11  12
ATOM     12  C   LIG    1       26.925 -20.532   6.014  0.00  0.00    +0.319 C 
ATOM     13  O   LIG    1       27.211 -21.247   6.963  0.00  0.00    -0.250 OA
BRANCH  12  14
ATOM     14  O   LIG    1       27.879 -20.104   5.148  0.00  0.00    -0.480 OA
ATOM     15  H   LIG    1       27.602 -19.486   4.449  0.00  0.00    +0.295 HD
ENDBRANCH  12  14
ENDBRANCH  11  12
ENDBRANCH   5  11
ENDBRANCH   4   5
ENDBRANCH   1   4
BRANCH   1  16
ATOM     16  C   LIG    1       25.598 -16.069   3.319  0.00  0.00    +0.118 C 
BRANCH  16  17
ATOM     17  N   LIG    1       26.651 -15.056   3.031  0.00  0.00    -0.280 NA
BRANCH  17  18
ATOM     18  C   LIG    1       27.608 -14.786   4.161  0.00  0.00    +0.206 C 
BRANCH  18  19
ATOM     19  C   LIG    1       28.353 -13.447   4.095  0.00  0.00    +0.319 C 
ATOM     20  O   LIG    1       28.238 -12.565   4.931  0.00  0.00    -0.250 OA
BRANCH  19  21
ATOM     21  O   LIG    1       29.187 -13.336   3.038  0.00  0.00    -0.480 OA
ATOM     22  H   LIG    1       29.356 -14.193   2.583  0.00  0.00    +0.295 HD
ENDBRANCH  19  21
ENDBRANCH  18  19
ENDBRANCH  17  18
BRANCH  17  23
ATOM     23  C   LIG    1       26.070 -13.725   2.627  0.00  0.00    +0.206 C 
BRANCH  23  25
ATOM     24  O   LIG    1       24.771 -12.865   4.467  0.00  0.00    -0.250 OA
ATOM     25  C   LIG    1       24.788 -13.271   3.335  0.00  0.00    +0.319 C 
BRANCH  25  26
ATOM     26  O   LIG    1       23.669 -13.319   2.572  0.00  0.00    -0.480 OA
ATOM     27  H   LIG    1       23.415 -14.236   2.362  0.00  0.00    +0.295 HD
ENDBRANCH  25  26
ENDBRANCH  23  25
ENDBRANCH  17  23
ENDBRANCH  16  17
ENDBRANCH   1  16
TORSDOF 17
ENDMDL
MODEL 5
REMARK VINA RESULT:      -4.5      0.796      7.229
REMARK  Name = *****
REMARK                            x       y       z     vdW  Elec       q    Type
REMARK                         _______ _______ _______ _____ _____    ______ ____
ROOT
ATOM      1  C   LIG    1       26.181 -17.305   3.778  0.00  0.00    +0.143 C 
ENDROOT
BRANCH   1   2
ATOM      2  O   LIG    1       27.593 -17.524   3.593  0.00  0.00    -0.389 OA
ATOM      3  H   LIG    1       28.001 -17.341   4.474  0.00  0.00    +0.210 HD
ENDBRANCH   1   2
BRANCH   1   4
ATOM      4  C   LIG    1       25.780 -15.886   3.213  0.00  0.00    +0.118 C 
BRANCH   4   5
ATOM      5  N   LIG    1       26.836 -14.809   3.030  0.00  0.00    -0.280 NA
BRANCH   5   6
ATOM      6  C   LIG    1       27.563 -14.413   4.282  0.00  0.00    +0.206 C 
BRANCH   6   7
ATOM      7  C   LIG    1       28.493 -13.210   4.143  0.00  0.00    +0.319 C 
ATOM      8  O   LIG    1       28.465 -12.232   4.851  0.00  0.00    -0.250 OA
BRANCH   7   9
ATOM      9  O   LIG    1       29.327 -13.336   3.080  0.00  0.00    -0.480 OA
ATOM     10  H   LIG    1       30.145 -12.826   3.322  0.00  0.00    +0.295 HD
ENDBRANCH   7   9
ENDBRANCH   6   7
ENDBRANCH   5   6
BRANCH   5  11
ATOM     11  C   LIG    1       26.098 -13.570   2.521  0.00  0.00    +0.206 C 
BRANCH  11  12
ATOM     12  C   LIG    1       24.813 -13.176   3.268  0.00  0.00    +0.319 C 
ATOM     13  O   LIG    1       24.778 -12.824   4.437  0.00  0.00    -0.250 OA
BRANCH  12  14
ATOM     14  O   LIG    1       23.686 -13.207   2.512  0.00  0.00    -0.480 OA
ATOM     15  H   LIG    1       23.560 -13.976   1.929  0.00  0.00    +0.295 HD
ENDBRANCH  12  14
ENDBRANCH  11  12
ENDBRANCH   5  11
ENDBRANCH   4   5
ENDBRANCH   1   4
BRANCH   1  16
ATOM     16  C   LIG    1       25.384 -18.448   3.097  0.00  0.00    +0.118 C 
BRANCH  16  17
ATOM     17  N   LIG    1       25.389 -19.799   3.723  0.00  0.00    -0.280 NA
BRANCH  17  18
ATOM     18  C   LIG    1       24.141 -20.611   3.508  0.00  0.00    +0.206 C 
BRANCH  18  19
ATOM     19  C   LIG    1       23.048 -20.444   4.572  0.00  0.00    +0.319 C 
ATOM     20  O   LIG    1       22.438 -19.403   4.760  0.00  0.00    -0.250 OA
BRANCH  19  21
ATOM     21  O   LIG    1       22.786 -21.571   5.269  0.00  0.00    -0.480 OA
ATOM     22  H   LIG    1       22.815 -22.387   4.718  0.00  0.00    +0.295 HD
ENDBRANCH  19  21
ENDBRANCH  18  19
ENDBRANCH  17  18
BRANCH  17  23
ATOM     23  C   LIG    1       25.617 -19.740   5.212  0.00  0.00    +0.206 C 
BRANCH  23  25
ATOM     24  O   LIG    1       26.904 -21.188   6.646  0.00  0.00    -0.250 OA
ATOM     25  C   LIG    1       26.900 -20.379   5.756  0.00  0.00    +0.319 C 
BRANCH  25  26
ATOM     26  O   LIG    1       28.038 -19.998   5.127  0.00  0.00    -0.480 OA
ATOM     27  H   LIG    1       28.750 -19.799   5.762  0.00  0.00    +0.295 HD
ENDBRANCH  25  26
ENDBRANCH  23  25
ENDBRANCH  17  23
ENDBRANCH  16  17
ENDBRANCH   1  16
TORSDOF 17
ENDMDL
MODEL 6
REMARK VINA RESULT:      -4.3      1.315      6.932
REMARK  Name = *****
REMARK                            x       y       z     vdW  Elec       q    Type
REMARK                         _______ _______ _______ _____ _____    ______ ____
ROOT
ATOM      1  C   LIG    1       25.353 -17.845   3.244  0.00  0.00    +0.143 C 
ENDROOT
BRANCH   1   2
ATOM      2  O   LIG    1       24.257 -17.386   4.056  0.00  0.00    -0.389 OA
ATOM      3  H   LIG    1       24.045 -16.482   3.717  0.00  0.00    +0.210 HD
ENDBRANCH   1   2
BRANCH   1   4
ATOM      4  C   LIG    1       26.537 -16.801   3.300  0.00  0.00    +0.118 C 
BRANCH   4   5
ATOM      5  N   LIG    1       26.283 -15.382   3.779  0.00  0.00    -0.280 NA
BRANCH   5   6
ATOM      6  C   LIG    1       25.598 -14.490   2.785  0.00  0.00    +0.206 C 
BRANCH   6   7
ATOM      7  C   LIG    1       24.388 -13.726   3.321  0.00  0.00    +0.319 C 
ATOM      8  O   LIG    1       23.933 -12.722   2.827  0.00  0.00    -0.250 OA
BRANCH   7   9
ATOM      9  O   LIG    1       23.911 -14.274   4.466  0.00  0.00    -0.480 OA
ATOM     10  H   LIG    1       24.176 -15.231   4.435  0.00  0.00    +0.295 HD
ENDBRANCH   7   9
ENDBRANCH   6   7
ENDBRANCH   5   6
BRANCH   5  11
ATOM     11  C   LIG    1       27.657 -14.776   4.064  0.00  0.00    +0.206 C 
BRANCH  11  12
ATOM     12  C   LIG    1       27.682 -13.474   4.881  0.00  0.00    +0.319 C 
ATOM     13  O   LIG    1       28.491 -12.573   4.715  0.00  0.00    -0.250 OA
BRANCH  12  14
ATOM     14  O   LIG    1       26.693 -13.364   5.803  0.00  0.00    -0.480 OA
ATOM     15  H   LIG    1       25.995 -14.042   5.792  0.00  0.00    +0.295 HD
ENDBRANCH  12  14
ENDBRANCH  11  12
ENDBRANCH   5  11
ENDBRANCH   4   5
ENDBRANCH   1   4
BRANCH   1  16
ATOM     16  C   LIG    1       25.798 -19.253   3.720  0.00  0.00    +0.118 C 
BRANCH  16  17
ATOM     17  N   LIG    1       25.113 -19.864   4.894  0.00  0.00    -0.280 NA
BRANCH  17  18
ATOM     18  C   LIG    1       25.995 -20.685   5.796  0.00  0.00    +0.206 C 
BRANCH  18  19
ATOM     19  C   LIG    1       27.421 -20.154   5.992  0.00  0.00    +0.319 C 
ATOM     20  O   LIG    1       27.856 -19.759   7.062  0.00  0.00    -0.250 OA
BRANCH  19  21
ATOM     21  O   LIG    1       28.180 -20.196   4.874  0.00  0.00    -0.480 OA
ATOM     22  H   LIG    1       27.735 -20.644   4.118  0.00  0.00    +0.295 HD
ENDBRANCH  19  21
ENDBRANCH  18  19
ENDBRANCH  17  18
BRANCH  17  23
ATOM     23  C   LIG    1       23.963 -20.749   4.488  0.00  0.00    +0.206 C 
BRANCH  23  25
ATOM     24  O   LIG    1       22.314 -19.299   5.483  0.00  0.00    -0.250 OA
ATOM     25  C   LIG    1       22.567 -20.370   4.997  0.00  0.00    +0.319 C 
BRANCH  25  26
ATOM     26  O   LIG    1       21.618 -21.320   4.819  0.00  0.00    -0.480 OA
ATOM     27  H   LIG    1       20.730 -20.988   5.045  0.00  0.00    +0.295 HD
ENDBRANCH  25  26
ENDBRANCH  23  25
ENDBRANCH  17  23
ENDBRANCH  16  17
ENDBRANCH   1  16
TORSDOF 17
ENDMDL
MODEL 7
REMARK VINA RESULT:      -4.3      1.263      3.616
REMARK  Name = *****
REMARK                            x       y       z     vdW  Elec       q    Type
REMARK                         _______ _______ _______ _____ _____    ______ ____
ROOT
ATOM      1  C   LIG    1       26.280 -17.155   3.153  0.00  0.00    +0.143 C 
ENDROOT
BRANCH   1   2
ATOM      2  O   LIG    1       27.524 -17.256   3.870  0.00  0.00    -0.389 OA
ATOM      3  H   LIG    1       28.011 -18.001   3.440  0.00  0.00    +0.210 HD
ENDBRANCH   1   2
BRANCH   1   4
ATOM      4  C   LIG    1       25.165 -17.999   3.889  0.00  0.00    +0.118 C 
BRANCH   4   5
ATOM      5  N   LIG    1       24.536 -19.199   3.203  0.00  0.00    -0.280 NA
BRANCH   5   6
ATOM      6  C   LIG    1       23.054 -19.337   3.400  0.00  0.00    +0.206 C 
BRANCH   6   7
ATOM      7  C   LIG    1       22.507 -18.714   4.683  0.00  0.00    +0.319 C 
ATOM      8  O   LIG    1       22.108 -17.578   4.781  0.00  0.00    -0.250 OA
BRANCH   7   9
ATOM      9  O   LIG    1       22.576 -19.572   5.732  0.00  0.00    -0.480 OA
ATOM     10  H   LIG    1       21.668 -19.963   5.816  0.00  0.00    +0.295 HD
ENDBRANCH   7   9
ENDBRANCH   6   7
ENDBRANCH   5   6
BRANCH   5  11
ATOM     11  C   LIG    1       25.194 -20.435   3.816  0.00  0.00    +0.206 C 
BRANCH  11  12
ATOM     12  C   LIG    1       25.957 -20.228   5.135  0.00  0.00    +0.319 C 
ATOM     13  O   LIG    1       25.447 -20.306   6.243  0.00  0.00    -0.250 OA
BRANCH  12  14
ATOM     14  O   LIG    1       27.284 -19.986   4.991  0.00  0.00    -0.480 OA
ATOM     15  H   LIG    1       27.789 -20.590   4.417  0.00  0.00    +0.295 HD
ENDBRANCH  12  14
ENDBRANCH  11  12
ENDBRANCH   5  11
ENDBRANCH   4   5
ENDBRANCH   1   4
BRANCH   1  16
ATOM     16  C   LIG    1       25.880 -15.663   3.013  0.00  0.00    +0.118 C 
BRANCH  16  17
ATOM     17  N   LIG    1       25.407 -14.930   4.220  0.00  0.00    -0.280 NA
BRANCH  17  18
ATOM     18  C   LIG    1       24.022 -14.350   4.118  0.00  0.00    +0.206 C 
BRANCH  18  19
ATOM     19  C   LIG    1       23.934 -12.946   3.508  0.00  0.00    +0.319 C 
ATOM     20  O   LIG    1       23.858 -11.923   4.168  0.00  0.00    -0.250 OA
BRANCH  19  21
ATOM     21  O   LIG    1       23.983 -12.932   2.157  0.00  0.00    -0.480 OA
ATOM     22  H   LIG    1       24.860 -13.201   1.797  0.00  0.00    +0.295 HD
ENDBRANCH  19  21
ENDBRANCH  18  19
ENDBRANCH  17  18
BRANCH  17  23
ATOM     23  C   LIG    1       26.325 -13.796   4.598  0.00  0.00    +0.206 C 
BRANCH  23  25
ATOM     24  O   LIG    1       28.599 -13.690   3.804  0.00  0.00    -0.250 OA
ATOM     25  C   LIG    1       27.440 -13.432   3.610  0.00  0.00    +0.319 C 
BRANCH  25  26
ATOM     26  O   LIG    1       27.019 -12.831   2.471  0.00  0.00    -0.480 OA
ATOM     27  H   LIG    1       26.213 -12.302   2.620  0.00  0.00    +0.295 HD
ENDBRANCH  25  26
ENDBRANCH  23  25
ENDBRANCH  17  23
ENDBRANCH  16  17
ENDBRANCH   1  16
TORSDOF 17
ENDMDL
MODEL 8
REMARK VINA RESULT:      -4.3      1.538      3.287
REMARK  Name = *****
REMARK                            x       y       z     vdW  Elec       q    Type
REMARK                         _______ _______ _______ _____ _____    ______ ____
ROOT
ATOM      1  C   LIG    1       26.151 -17.781   3.670  0.00  0.00    +0.143 C 
ENDROOT
BRANCH   1   2
ATOM      2  O   LIG    1       25.929 -18.341   2.361  0.00  0.00    -0.389 OA
ATOM      3  H   LIG    1       26.007 -19.319   2.481  0.00  0.00    +0.210 HD
ENDBRANCH   1   2
BRANCH   1   4
ATOM      4  C   LIG    1       26.999 -18.786   4.545  0.00  0.00    +0.118 C 
BRANCH   4   5
ATOM      5  N   LIG    1       26.368 -20.064   5.070  0.00  0.00    -0.280 NA
BRANCH   5   6
ATOM      6  C   LIG    1       24.873 -20.029   5.195  0.00  0.00    +0.206 C 
BRANCH   6   7
ATOM      7  C   LIG    1       24.111 -20.787   4.110  0.00  0.00    +0.319 C 
ATOM      8  O   LIG    1       24.324 -20.692   2.925  0.00  0.00    -0.250 OA
BRANCH   7   9
ATOM      9  O   LIG    1       23.112 -21.544   4.628  0.00  0.00    -0.480 OA
ATOM     10  H   LIG    1       22.472 -21.688   3.882  0.00  0.00    +0.295 HD
ENDBRANCH   7   9
ENDBRANCH   6   7
ENDBRANCH   5   6
BRANCH   5  11
ATOM     11  C   LIG    1       26.938 -20.276   6.473  0.00  0.00    +0.206 C 
BRANCH  11  12
ATOM     12  C   LIG    1       28.467 -20.203   6.616  0.00  0.00    +0.319 C 
ATOM     13  O   LIG    1       29.072 -19.224   7.028  0.00  0.00    -0.250 OA
BRANCH  12  14
ATOM     14  O   LIG    1       29.123 -21.343   6.283  0.00  0.00    -0.480 OA
ATOM     15  H   LIG    1       28.764 -22.180   6.625  0.00  0.00    +0.295 HD
ENDBRANCH  12  14
ENDBRANCH  11  12
ENDBRANCH   5  11
ENDBRANCH   4   5
ENDBRANCH   1   4
BRANCH   1  16
ATOM     16  C   LIG    1       26.844 -16.401   3.534  0.00  0.00    +0.118 C 
BRANCH  16  17
ATOM     17  N   LIG    1       26.062 -15.254   2.993  0.00  0.00    -0.280 NA
BRANCH  17  18
ATOM     18  C   LIG    1       26.864 -14.019   2.685  0.00  0.00    +0.206 C 
BRANCH  18  19
ATOM     19  C   LIG    1       27.872 -13.595   3.761  0.00  0.00    +0.319 C 
ATOM     20  O   LIG    1       27.573 -13.387   4.926  0.00  0.00    -0.250 OA
BRANCH  19  21
ATOM     21  O   LIG    1       29.145 -13.506   3.314  0.00  0.00    -0.480 OA
ATOM     22  H   LIG    1       29.227 -13.008   2.469  0.00  0.00    +0.295 HD
ENDBRANCH  19  21
ENDBRANCH  18  19
ENDBRANCH  17  18
BRANCH  17  23
ATOM     23  C   LIG    1       24.952 -14.830   3.919  0.00  0.00    +0.206 C 
BRANCH  23  25
ATOM     24  O   LIG    1       24.334 -12.552   4.409  0.00  0.00    -0.250 OA
ATOM     25  C   LIG    1       24.280 -13.480   3.645  0.00  0.00    +0.319 C 
BRANCH  25  26
ATOM     26  O   LIG    1       23.652 -13.388   2.448  0.00  0.00    -0.480 OA
ATOM     27  H   LIG    1       23.588 -14.255   2.008  0.00  0.00    +0.295 HD
ENDBRANCH  25  26
ENDBRANCH  23  25
ENDBRANCH  17  23
ENDBRANCH  16  17
ENDBRANCH   1  16
TORSDOF 17
ENDMDL
MODEL 9
REMARK VINA RESULT:      -4.3      1.092      7.619
REMARK  Name = *****
REMARK                            x       y       z     vdW  Elec       q    Type
REMARK                         _______ _______ _______ _____ _____    ______ ____
ROOT
ATOM      1  C   LIG    1       26.062 -17.451   3.776  0.00  0.00    +0.143 C 
ENDROOT
BRANCH   1   2
ATOM      2  O   LIG    1       27.480 -17.692   3.706  0.00  0.00    -0.389 OA
ATOM      3  H   LIG    1       27.899 -16.803   3.814  0.00  0.00    +0.210 HD
ENDBRANCH   1   2
BRANCH   1   4
ATOM      4  C   LIG    1       25.716 -16.079   3.074  0.00  0.00    +0.118 C 
BRANCH   4   5
ATOM      5  N   LIG    1       25.514 -14.823   3.906  0.00  0.00    -0.280 NA
BRANCH   5   6
ATOM      6  C   LIG    1       24.154 -14.198   3.791  0.00  0.00    +0.206 C 
BRANCH   6   7
ATOM      7  C   LIG    1       24.140 -12.671   3.763  0.00  0.00    +0.319 C 
ATOM      8  O   LIG    1       24.142 -12.000   2.758  0.00  0.00    -0.250 OA
BRANCH   7   9
ATOM      9  O   LIG    1       24.187 -12.142   5.011  0.00  0.00    -0.480 OA
ATOM     10  H   LIG    1       23.787 -11.236   4.932  0.00  0.00    +0.295 HD
ENDBRANCH   7   9
ENDBRANCH   6   7
ENDBRANCH   5   6
BRANCH   5  11
ATOM     11  C   LIG    1       26.529 -13.803   3.391  0.00  0.00    +0.206 C 
BRANCH  11  12
ATOM     12  C   LIG    1       27.563 -13.285   4.404  0.00  0.00    +0.319 C 
ATOM     13  O   LIG    1       28.702 -12.951   4.114  0.00  0.00    -0.250 OA
BRANCH  12  14
ATOM     14  O   LIG    1       27.106 -13.181   5.677  0.00  0.00    -0.480 OA
ATOM     15  H   LIG    1       27.640 -12.659   6.302  0.00  0.00    +0.295 HD
ENDBRANCH  12  14
ENDBRANCH  11  12
ENDBRANCH   5  11
ENDBRANCH   4   5
ENDBRANCH   1   4
BRANCH   1  16
ATOM     16  C   LIG    1       25.299 -18.640   3.135  0.00  0.00    +0.118 C 
BRANCH  16  17
ATOM     17  N   LIG    1       25.337 -19.966   3.812  0.00  0.00    -0.280 NA
BRANCH  17  18
ATOM     18  C   LIG    1       24.102 -20.808   3.642  0.00  0.00    +0.206 C 
BRANCH  18  19
ATOM     19  C   LIG    1       22.963 -20.523   4.630  0.00  0.00    +0.319 C 
ATOM     20  O   LIG    1       22.360 -19.463   4.682  0.00  0.00    -0.250 OA
BRANCH  19  21
ATOM     21  O   LIG    1       22.653 -21.570   5.426  0.00  0.00    -0.480 OA
ATOM     22  H   LIG    1       23.118 -22.401   5.174  0.00  0.00    +0.295 HD
ENDBRANCH  19  21
ENDBRANCH  18  19
ENDBRANCH  17  18
BRANCH  17  23
ATOM     23  C   LIG    1       25.581 -19.846   5.294  0.00  0.00    +0.206 C 
BRANCH  23  25
ATOM     24  O   LIG    1       26.882 -21.241   6.767  0.00  0.00    -0.250 OA
ATOM     25  C   LIG    1       26.869 -20.463   5.850  0.00  0.00    +0.319 C 
BRANCH  25  26
ATOM     26  O   LIG    1       28.002 -20.100   5.201  0.00  0.00    -0.480 OA
ATOM     27  H   LIG    1       28.536 -19.479   5.730  0.00  0.00    +0.295 HD
ENDBRANCH  25  26
ENDBRANCH  23  25
ENDBRANCH  17  23
ENDBRANCH  16  17
ENDBRANCH   1  16
TORSDOF 17
ENDMDL
