MODEL 1
REMARK VINA RESULT:       3.2      0.000      0.000
REMARK  Name = *****
REMARK                            x       y       z     vdW  Elec       q    Type
REMARK                         _______ _______ _______ _____ _____    ______ ____
ROOT
ATOM      1  C   LIG    1       24.007 -21.366   6.244  0.00  0.00    +0.046 C 
ATOM      2  C   LIG    1       24.867 -20.418   5.471  0.00  0.00    -0.017 C 
ATOM      3  C   LIG    1       24.493 -19.367   4.610  0.00  0.00    +0.053 C 
ATOM      4  N   LIG    1       25.703 -18.903   4.063  0.00  0.00    -0.335 NA
ATOM      5  C   LIG    1       26.788 -19.418   4.767  0.00  0.00    +0.050 C 
ATOM      6  C   LIG    1       28.165 -19.123   4.706  0.00  0.00    +0.030 C 
ATOM      7  C   LIG    1       29.042 -19.864   5.500  0.00  0.00    +0.047 C 
ATOM      8  C   LIG    1       28.565 -20.873   6.317  0.00  0.00    +0.118 C 
ATOM      9  C   LIG    1       27.203 -21.163   6.383  0.00  0.00    +0.055 C 
ATOM     10  C   LIG    1       26.293 -20.410   5.601  0.00  0.00    +0.007 C 
ENDROOT
BRANCH   3  11
ATOM     11  C   LIG    1       23.121 -18.845   4.304  0.00  0.00    -0.001 C 
ATOM     12  C   LIG    1       22.843 -17.472   4.257  0.00  0.00    +0.013 C 
ATOM     13  C   LIG    1       21.596 -16.962   3.872  0.00  0.00    +0.046 C 
ATOM     14  C   LIG    1       20.560 -17.839   3.585  0.00  0.00    +0.117 C 
ATOM     15  C   LIG    1       20.775 -19.201   3.651  0.00  0.00    +0.046 C 
ATOM     16  C   LIG    1       22.051 -19.699   3.968  0.00  0.00    +0.013 C 
BRANCH  14  17
ATOM     17  O   LIG    1       19.357 -17.305   3.236  0.00  0.00    -0.507 OA
ATOM     18  H   LIG    1       19.360 -17.132   2.279  0.00  0.00    +0.292 HD
ENDBRANCH  14  17
ENDBRANCH   3  11
BRANCH   8  19
ATOM     19  O   LIG    1       29.473 -21.572   7.061  0.00  0.00    -0.507 OA
ATOM     20  H   LIG    1       29.301 -22.519   6.943  0.00  0.00    +0.292 HD
ENDBRANCH   8  19
BRANCH   4  21
ATOM     21  C   LIG    1       25.910 -18.051   2.891  0.00  0.00    +0.157 C 
BRANCH  21  22
ATOM     22  C   LIG    1       26.732 -16.821   3.192  0.00  0.00    -0.028 C 
ATOM     23  C   LIG    1       26.482 -15.632   2.499  0.00  0.00    +0.009 C 
ATOM     24  C   LIG    1       27.144 -14.457   2.839  0.00  0.00    +0.046 C 
ATOM     25  C   LIG    1       28.064 -14.430   3.890  0.00  0.00    +0.121 C 
ATOM     26  C   LIG    1       28.347 -15.618   4.564  0.00  0.00    +0.046 C 
ATOM     27  C   LIG    1       27.690 -16.807   4.215  0.00  0.00    +0.009 C 
BRANCH  25  28
ATOM     28  O   LIG    1       28.723 -13.306   4.333  0.00  0.00    -0.491 OA
BRANCH  28  29
ATOM     29  C   LIG    1       27.877 -12.373   5.018  0.00  0.00    +0.244 C 
BRANCH  29  30
ATOM     30  C   LIG    1       26.723 -13.069   5.756  0.00  0.00    +0.125 C 
BRANCH  30  31
ATOM     31  N   LIG    1       25.392 -12.882   5.105  0.00  0.00    -0.299 NA
ATOM     32  C   LIG    1       25.499 -11.988   3.941  0.00  0.00    +0.084 C 
ATOM     33  C   LIG    1       24.242 -11.732   3.106  0.00  0.00    +0.015 C 
ATOM     34  C   LIG    1       23.841 -12.931   2.265  0.00  0.00    +0.001 C 
ATOM     35  C   LIG    1       22.980 -13.939   3.011  0.00  0.00    +0.001 C 
ATOM     36  C   LIG    1       23.312 -14.144   4.486  0.00  0.00    +0.015 C 
ATOM     37  C   LIG    1       24.807 -14.201   4.814  0.00  0.00    +0.084 C 
ENDBRANCH  30  31
ENDBRANCH  29  30
ENDBRANCH  28  29
ENDBRANCH  25  28
ENDBRANCH  21  22
ENDBRANCH   4  21
TORSDOF 9
ENDMDL
