MODEL 1
REMARK VINA RESULT:      -7.9      0.000      0.000
REMARK  Name = *****
REMARK                            x       y       z     vdW  Elec       q    Type
REMARK                         _______ _______ _______ _____ _____    ______ ____
ROOT
ATOM      1  C   LIG    1       27.342 -20.277   7.564  0.00  0.00    -0.047 A 
ATOM      2  C   LIG    1       26.308 -20.532   8.469  0.00  0.00    +0.005 A 
ATOM      3  C   LIG    1       25.039 -21.003   8.021  0.00  0.00    +0.023 A 
ATOM      4  C   LIG    1       24.748 -21.222   6.660  0.00  0.00    +0.030 A 
ATOM      5  C   LIG    1       25.780 -20.848   5.780  0.00  0.00    +0.023 A 
ATOM      6  C   LIG    1       27.041 -20.400   6.211  0.00  0.00    +0.005 A 
ENDROOT
BRANCH   1   7
ATOM      7  C   LIG    1       28.752 -19.897   7.969  0.00  0.00    +0.035 C 
BRANCH   7   8
ATOM      8  C   LIG    1       29.557 -19.116   6.908  0.00  0.00    +0.016 C 
BRANCH   8   9
ATOM      9  C   LIG    1       31.066 -19.339   6.969  0.00  0.00    +0.121 C 
BRANCH   9  11
ATOM     10  O   LIG    1       31.889 -17.478   8.286  0.00  0.00    -0.251 OA
ATOM     11  C   LIG    1       31.688 -18.658   8.179  0.00  0.00    +0.305 C 
BRANCH  11  12
ATOM     12  O   LIG    1       32.045 -19.565   9.145  0.00  0.00    -0.481 OA
ATOM     13  H   LIG    1       31.318 -19.826   9.739  0.00  0.00    +0.295 HD
ENDBRANCH  11  12
ENDBRANCH   9  11
ENDBRANCH   8   9
ENDBRANCH   7   8
ENDBRANCH   1   7
BRANCH   4  14
ATOM     14  N   LIG    1       23.541 -21.801   6.192  0.00  0.00    -0.328 N 
BRANCH  14  15
ATOM     15  C   LIG    1       23.013 -23.020   6.857  0.00  0.00    +0.121 C 
BRANCH  15  16
ATOM     16  C   LIG    1       23.628 -24.391   6.530  0.00  0.00    +0.127 C 
ATOM     17 CL   LIG    1       25.376 -24.486   6.844  0.00  0.00    -0.124 Cl
ENDBRANCH  15  16
ENDBRANCH  14  15
BRANCH  14  18
ATOM     18  C   LIG    1       22.813 -21.053   5.129  0.00  0.00    +0.121 C 
BRANCH  18  19
ATOM     19  C   LIG    1       22.514 -19.558   5.259  0.00  0.00    +0.127 C 
ATOM     20 CL   LIG    1       23.234 -18.589   3.951  0.00  0.00    -0.124 Cl
ENDBRANCH  18  19
ENDBRANCH  14  18
ENDBRANCH   4  14
TORSDOF 10
ENDMDL
MODEL 2
REMARK VINA RESULT:      -7.7      1.260      3.073
REMARK  Name = *****
REMARK                            x       y       z     vdW  Elec       q    Type
REMARK                         _______ _______ _______ _____ _____    ______ ____
ROOT
ATOM      1  C   LIG    1       28.225 -20.073   7.497  0.00  0.00    -0.047 A 
ATOM      2  C   LIG    1       27.159 -20.390   8.342  0.00  0.00    +0.005 A 
ATOM      3  C   LIG    1       25.877 -20.722   7.815  0.00  0.00    +0.023 A 
ATOM      4  C   LIG    1       25.604 -20.736   6.432  0.00  0.00    +0.030 A 
ATOM      5  C   LIG    1       26.675 -20.305   5.628  0.00  0.00    +0.023 A 
ATOM      6  C   LIG    1       27.948 -19.991   6.135  0.00  0.00    +0.005 A 
ENDROOT
BRANCH   1   7
ATOM      7  C   LIG    1       29.644 -19.832   7.970  0.00  0.00    +0.035 C 
BRANCH   7   8
ATOM      8  C   LIG    1       30.235 -18.450   7.616  0.00  0.00    +0.016 C 
BRANCH   8   9
ATOM      9  C   LIG    1       30.405 -17.512   8.808  0.00  0.00    +0.121 C 
BRANCH   9  11
ATOM     10  O   LIG    1       32.370 -18.187  10.056  0.00  0.00    -0.251 OA
ATOM     11  C   LIG    1       31.853 -17.442   9.268  0.00  0.00    +0.305 C 
BRANCH  11  12
ATOM     12  O   LIG    1       32.515 -16.380   8.704  0.00  0.00    -0.481 OA
ATOM     13  H   LIG    1       33.475 -16.369   8.873  0.00  0.00    +0.295 HD
ENDBRANCH  11  12
ENDBRANCH   9  11
ENDBRANCH   8   9
ENDBRANCH   7   8
ENDBRANCH   1   7
BRANCH   4  14
ATOM     14  N   LIG    1       24.379 -21.177   5.872  0.00  0.00    -0.328 N 
BRANCH  14  15
ATOM     15  C   LIG    1       23.151 -20.364   6.074  0.00  0.00    +0.121 C 
BRANCH  15  16
ATOM     16  C   LIG    1       22.542 -19.601   4.886  0.00  0.00    +0.127 C 
ATOM     17 CL   LIG    1       23.749 -18.985   3.735  0.00  0.00    -0.124 Cl
ENDBRANCH  15  16
ENDBRANCH  14  15
BRANCH  14  18
ATOM     18  C   LIG    1       24.444 -22.382   4.998  0.00  0.00    +0.121 C 
BRANCH  18  19
ATOM     19  C   LIG    1       24.835 -23.755   5.548  0.00  0.00    +0.127 C 
ATOM     20 CL   LIG    1       23.594 -24.453   6.616  0.00  0.00    -0.124 Cl
ENDBRANCH  18  19
ENDBRANCH  14  18
ENDBRANCH   4  14
TORSDOF 10
ENDMDL
MODEL 3
REMARK VINA RESULT:      -7.6      1.770      2.613
REMARK  Name = *****
REMARK                            x       y       z     vdW  Elec       q    Type
REMARK                         _______ _______ _______ _____ _____    ______ ____
ROOT
ATOM      1  C   LIG    1       29.684 -19.836   6.890  0.00  0.00    -0.047 A 
ATOM      2  C   LIG    1       28.813 -19.437   5.872  0.00  0.00    +0.005 A 
ATOM      3  C   LIG    1       27.516 -20.015   5.747  0.00  0.00    +0.023 A 
ATOM      4  C   LIG    1       27.043 -21.018   6.617  0.00  0.00    +0.030 A 
ATOM      5  C   LIG    1       27.993 -21.463   7.555  0.00  0.00    +0.023 A 
ATOM      6  C   LIG    1       29.268 -20.889   7.699  0.00  0.00    +0.005 A 
ENDROOT
BRANCH   1   7
ATOM      7  C   LIG    1       31.024 -19.185   7.167  0.00  0.00    +0.035 C 
BRANCH   7   8
ATOM      8  C   LIG    1       31.251 -18.729   8.624  0.00  0.00    +0.016 C 
BRANCH   8   9
ATOM      9  C   LIG    1       30.304 -17.629   9.096  0.00  0.00    +0.121 C 
BRANCH   9  11
ATOM     10  O   LIG    1       30.271 -16.357  11.159  0.00  0.00    -0.251 OA
ATOM     11  C   LIG    1       30.394 -17.413  10.599  0.00  0.00    +0.305 C 
BRANCH  11  12
ATOM     12  O   LIG    1       30.685 -18.578  11.263  0.00  0.00    -0.481 OA
ATOM     13  H   LIG    1       30.653 -19.377  10.705  0.00  0.00    +0.295 HD
ENDBRANCH  11  12
ENDBRANCH   9  11
ENDBRANCH   8   9
ENDBRANCH   7   8
ENDBRANCH   1   7
BRANCH   4  14
ATOM     14  N   LIG    1       25.720 -21.526   6.595  0.00  0.00    -0.328 N 
BRANCH  14  15
ATOM     15  C   LIG    1       25.354 -22.645   7.501  0.00  0.00    +0.121 C 
BRANCH  15  16
ATOM     16  C   LIG    1       24.975 -24.011   6.905  0.00  0.00    +0.127 C 
ATOM     17 CL   LIG    1       23.222 -24.256   6.732  0.00  0.00    -0.124 Cl
ENDBRANCH  15  16
ENDBRANCH  14  15
BRANCH  14  18
ATOM     18  C   LIG    1       24.744 -20.797   5.736  0.00  0.00    +0.121 C 
BRANCH  18  19
ATOM     19  C   LIG    1       23.303 -20.552   6.187  0.00  0.00    +0.127 C 
ATOM     20 CL   LIG    1       22.495 -19.265   5.260  0.00  0.00    -0.124 Cl
ENDBRANCH  18  19
ENDBRANCH  14  18
ENDBRANCH   4  14
TORSDOF 10
ENDMDL
MODEL 4
REMARK VINA RESULT:      -7.6      1.715      3.660
REMARK  Name = *****
REMARK                            x       y       z     vdW  Elec       q    Type
REMARK                         _______ _______ _______ _____ _____    ______ ____
ROOT
ATOM      1  C   LIG    1       29.697 -19.835   6.906  0.00  0.00    -0.047 A 
ATOM      2  C   LIG    1       28.902 -19.361   5.859  0.00  0.00    +0.005 A 
ATOM      3  C   LIG    1       27.566 -19.825   5.683  0.00  0.00    +0.023 A 
ATOM      4  C   LIG    1       26.977 -20.786   6.530  0.00  0.00    +0.030 A 
ATOM      5  C   LIG    1       27.850 -21.314   7.499  0.00  0.00    +0.023 A 
ATOM      6  C   LIG    1       29.164 -20.852   7.692  0.00  0.00    +0.005 A 
ENDROOT
BRANCH   1   7
ATOM      7  C   LIG    1       31.077 -19.303   7.235  0.00  0.00    +0.035 C 
BRANCH   7   8
ATOM      8  C   LIG    1       31.271 -18.820   8.688  0.00  0.00    +0.016 C 
BRANCH   8   9
ATOM      9  C   LIG    1       30.349 -17.675   9.101  0.00  0.00    +0.121 C 
BRANCH   9  11
ATOM     10  O   LIG    1       30.187 -16.379  11.142  0.00  0.00    -0.251 OA
ATOM     11  C   LIG    1       30.389 -17.433  10.602  0.00  0.00    +0.305 C 
BRANCH  11  12
ATOM     12  O   LIG    1       30.733 -18.569  11.291  0.00  0.00    -0.481 OA
ATOM     13  H   LIG    1       30.886 -18.429  12.244  0.00  0.00    +0.295 HD
ENDBRANCH  11  12
ENDBRANCH   9  11
ENDBRANCH   8   9
ENDBRANCH   7   8
ENDBRANCH   1   7
BRANCH   4  14
ATOM     14  N   LIG    1       25.617 -21.179   6.456  0.00  0.00    -0.328 N 
BRANCH  14  15
ATOM     15  C   LIG    1       24.736 -20.562   5.431  0.00  0.00    +0.121 C 
BRANCH  15  16
ATOM     16  C   LIG    1       23.215 -20.528   5.658  0.00  0.00    +0.127 C 
ATOM     17 CL   LIG    1       22.427 -19.069   5.017  0.00  0.00    -0.124 Cl
ENDBRANCH  15  16
ENDBRANCH  14  15
BRANCH  14  18
ATOM     18  C   LIG    1       25.199 -22.296   7.349  0.00  0.00    +0.121 C 
BRANCH  18  19
ATOM     19  C   LIG    1       25.049 -23.727   6.830  0.00  0.00    +0.127 C 
ATOM     20 CL   LIG    1       23.354 -24.268   6.766  0.00  0.00    -0.124 Cl
ENDBRANCH  18  19
ENDBRANCH  14  18
ENDBRANCH   4  14
TORSDOF 10
ENDMDL
MODEL 5
REMARK VINA RESULT:      -7.4      1.510      3.589
REMARK  Name = *****
REMARK                            x       y       z     vdW  Elec       q    Type
REMARK                         _______ _______ _______ _____ _____    ______ ____
ROOT
ATOM      1  C   LIG    1       27.443 -20.138   7.542  0.00  0.00    -0.047 A 
ATOM      2  C   LIG    1       27.153 -20.342   6.191  0.00  0.00    +0.005 A 
ATOM      3  C   LIG    1       25.909 -20.905   5.783  0.00  0.00    +0.023 A 
ATOM      4  C   LIG    1       24.916 -21.300   6.702  0.00  0.00    +0.030 A 
ATOM      5  C   LIG    1       25.296 -21.177   8.052  0.00  0.00    +0.023 A 
ATOM      6  C   LIG    1       26.513 -20.607   8.465  0.00  0.00    +0.005 A 
ENDROOT
BRANCH   1   7
ATOM      7  C   LIG    1       28.685 -19.432   8.049  0.00  0.00    +0.035 C 
BRANCH   7   8
ATOM      8  C   LIG    1       30.018 -20.166   7.784  0.00  0.00    +0.016 C 
BRANCH   8   9
ATOM      9  C   LIG    1       30.004 -21.650   8.141  0.00  0.00    +0.121 C 
BRANCH   9  11
ATOM     10  O   LIG    1       30.904 -21.880  10.379  0.00  0.00    -0.251 OA
ATOM     11  C   LIG    1       31.051 -21.986   9.192  0.00  0.00    +0.305 C 
BRANCH  11  12
ATOM     12  O   LIG    1       32.231 -22.394   8.621  0.00  0.00    -0.481 OA
ATOM     13  H   LIG    1       33.020 -21.928   8.954  0.00  0.00    +0.295 HD
ENDBRANCH  11  12
ENDBRANCH   9  11
ENDBRANCH   8   9
ENDBRANCH   7   8
ENDBRANCH   1   7
BRANCH   4  14
ATOM     14  N   LIG    1       23.625 -21.750   6.328  0.00  0.00    -0.328 N 
BRANCH  14  15
ATOM     15  C   LIG    1       22.876 -21.018   5.274  0.00  0.00    +0.121 C 
BRANCH  15  16
ATOM     16  C   LIG    1       22.515 -19.538   5.487  0.00  0.00    +0.127 C 
ATOM     17 CL   LIG    1       22.626 -18.553   4.010  0.00  0.00    -0.124 Cl
ENDBRANCH  15  16
ENDBRANCH  14  15
BRANCH  14  18
ATOM     18  C   LIG    1       23.162 -23.025   6.944  0.00  0.00    +0.121 C 
BRANCH  18  19
ATOM     19  C   LIG    1       23.696 -24.382   6.482  0.00  0.00    +0.127 C 
ATOM     20 CL   LIG    1       25.416 -24.620   6.873  0.00  0.00    -0.124 Cl
ENDBRANCH  18  19
ENDBRANCH  14  18
ENDBRANCH   4  14
TORSDOF 10
ENDMDL
MODEL 6
REMARK VINA RESULT:      -7.3      1.382      1.931
REMARK  Name = *****
REMARK                            x       y       z     vdW  Elec       q    Type
REMARK                         _______ _______ _______ _____ _____    ______ ____
ROOT
ATOM      1  C   LIG    1       28.318 -19.721   6.052  0.00  0.00    -0.047 A 
ATOM      2  C   LIG    1       27.223 -19.595   5.192  0.00  0.00    +0.005 A 
ATOM      3  C   LIG    1       26.054 -20.390   5.370  0.00  0.00    +0.023 A 
ATOM      4  C   LIG    1       25.936 -21.349   6.396  0.00  0.00    +0.030 A 
ATOM      5  C   LIG    1       27.101 -21.517   7.166  0.00  0.00    +0.023 A 
ATOM      6  C   LIG    1       28.253 -20.727   7.011  0.00  0.00    +0.005 A 
ENDROOT
BRANCH   1   7
ATOM      7  C   LIG    1       29.542 -18.829   6.007  0.00  0.00    +0.035 C 
BRANCH   7   8
ATOM      8  C   LIG    1       30.605 -19.109   7.092  0.00  0.00    +0.016 C 
BRANCH   8   9
ATOM      9  C   LIG    1       30.531 -18.182   8.302  0.00  0.00    +0.121 C 
BRANCH   9  11
ATOM     10  O   LIG    1       30.750 -18.606  10.678  0.00  0.00    -0.251 OA
ATOM     11  C   LIG    1       31.096 -18.841   9.552  0.00  0.00    +0.305 C 
BRANCH  11  12
ATOM     12  O   LIG    1       32.101 -19.725   9.250  0.00  0.00    -0.481 OA
ATOM     13  H   LIG    1       32.962 -19.306   9.066  0.00  0.00    +0.295 HD
ENDBRANCH  11  12
ENDBRANCH   9  11
ENDBRANCH   8   9
ENDBRANCH   7   8
ENDBRANCH   1   7
BRANCH   4  14
ATOM     14  N   LIG    1       24.746 -22.069   6.674  0.00  0.00    -0.328 N 
BRANCH  14  15
ATOM     15  C   LIG    1       24.827 -23.523   6.965  0.00  0.00    +0.121 C 
BRANCH  15  16
ATOM     16  C   LIG    1       23.655 -24.441   6.577  0.00  0.00    +0.127 C 
ATOM     17 CL   LIG    1       24.154 -26.084   6.112  0.00  0.00    -0.124 Cl
ENDBRANCH  15  16
ENDBRANCH  14  15
BRANCH  14  18
ATOM     18  C   LIG    1       23.495 -21.267   6.780  0.00  0.00    +0.121 C 
BRANCH  18  19
ATOM     19  C   LIG    1       22.597 -21.013   5.567  0.00  0.00    +0.127 C 
ATOM     20 CL   LIG    1       22.484 -19.290   5.137  0.00  0.00    -0.124 Cl
ENDBRANCH  18  19
ENDBRANCH  14  18
ENDBRANCH   4  14
TORSDOF 10
ENDMDL
MODEL 7
REMARK VINA RESULT:      -7.2      1.278      3.291
REMARK  Name = *****
REMARK                            x       y       z     vdW  Elec       q    Type
REMARK                         _______ _______ _______ _____ _____    ______ ____
ROOT
ATOM      1  C   LIG    1       28.519 -19.723   6.387  0.00  0.00    -0.047 A 
ATOM      2  C   LIG    1       27.529 -19.681   5.402  0.00  0.00    +0.005 A 
ATOM      3  C   LIG    1       26.327 -20.436   5.534  0.00  0.00    +0.023 A 
ATOM      4  C   LIG    1       26.073 -21.271   6.641  0.00  0.00    +0.030 A 
ATOM      5  C   LIG    1       27.142 -21.366   7.551  0.00  0.00    +0.023 A 
ATOM      6  C   LIG    1       28.324 -20.613   7.439  0.00  0.00    +0.005 A 
ENDROOT
BRANCH   1   7
ATOM      7  C   LIG    1       29.763 -18.858   6.381  0.00  0.00    +0.035 C 
BRANCH   7   8
ATOM      8  C   LIG    1       30.962 -19.417   7.177  0.00  0.00    +0.016 C 
BRANCH   8   9
ATOM      9  C   LIG    1       31.718 -18.374   7.996  0.00  0.00    +0.121 C 
BRANCH   9  11
ATOM     10  O   LIG    1       32.186 -18.031  10.349  0.00  0.00    -0.251 OA
ATOM     11  C   LIG    1       31.615 -18.645   9.489  0.00  0.00    +0.305 C 
BRANCH  11  12
ATOM     12  O   LIG    1       30.811 -19.726   9.755  0.00  0.00    -0.481 OA
ATOM     13  H   LIG    1       31.230 -20.589   9.583  0.00  0.00    +0.295 HD
ENDBRANCH  11  12
ENDBRANCH   9  11
ENDBRANCH   8   9
ENDBRANCH   7   8
ENDBRANCH   1   7
BRANCH   4  14
ATOM     14  N   LIG    1       24.842 -21.939   6.862  0.00  0.00    -0.328 N 
BRANCH  14  15
ATOM     15  C   LIG    1       23.585 -21.150   6.918  0.00  0.00    +0.121 C 
BRANCH  15  16
ATOM     16  C   LIG    1       22.740 -20.974   5.644  0.00  0.00    +0.127 C 
ATOM     17 CL   LIG    1       22.503 -19.277   5.170  0.00  0.00    -0.124 Cl
ENDBRANCH  15  16
ENDBRANCH  14  15
BRANCH  14  18
ATOM     18  C   LIG    1       24.892 -23.428   6.894  0.00  0.00    +0.121 C 
BRANCH  18  19
ATOM     19  C   LIG    1       23.652 -24.280   6.618  0.00  0.00    +0.127 C 
ATOM     20 CL   LIG    1       24.049 -25.939   6.110  0.00  0.00    -0.124 Cl
ENDBRANCH  18  19
ENDBRANCH  14  18
ENDBRANCH   4  14
TORSDOF 10
ENDMDL
MODEL 8
REMARK VINA RESULT:      -7.2      1.405      3.557
REMARK  Name = *****
REMARK                            x       y       z     vdW  Elec       q    Type
REMARK                         _______ _______ _______ _____ _____    ______ ____
ROOT
ATOM      1  C   LIG    1       29.351 -19.794   6.868  0.00  0.00    -0.047 A 
ATOM      2  C   LIG    1       28.769 -19.344   5.680  0.00  0.00    +0.005 A 
ATOM      3  C   LIG    1       27.433 -19.700   5.335  0.00  0.00    +0.023 A 
ATOM      4  C   LIG    1       26.634 -20.529   6.148  0.00  0.00    +0.030 A 
ATOM      5  C   LIG    1       27.298 -21.046   7.276  0.00  0.00    +0.023 A 
ATOM      6  C   LIG    1       28.609 -20.687   7.635  0.00  0.00    +0.005 A 
ENDROOT
BRANCH   1   7
ATOM      7  C   LIG    1       30.715 -19.360   7.366  0.00  0.00    +0.035 C 
BRANCH   7   8
ATOM      8  C   LIG    1       30.792 -19.016   8.869  0.00  0.00    +0.016 C 
BRANCH   8   9
ATOM      9  C   LIG    1       30.824 -17.521   9.174  0.00  0.00    +0.121 C 
BRANCH   9  11
ATOM     10  O   LIG    1       32.826 -17.406  10.534  0.00  0.00    -0.251 OA
ATOM     11  C   LIG    1       32.219 -17.054   9.559  0.00  0.00    +0.305 C 
BRANCH  11  12
ATOM     12  O   LIG    1       32.708 -16.126   8.674  0.00  0.00    -0.481 OA
ATOM     13  H   LIG    1       33.390 -15.537   9.045  0.00  0.00    +0.295 HD
ENDBRANCH  11  12
ENDBRANCH   9  11
ENDBRANCH   8   9
ENDBRANCH   7   8
ENDBRANCH   1   7
BRANCH   4  14
ATOM     14  N   LIG    1       25.266 -20.804   5.895  0.00  0.00    -0.328 N 
BRANCH  14  15
ATOM     15  C   LIG    1       24.746 -20.695   4.508  0.00  0.00    +0.121 C 
BRANCH  15  16
ATOM     16  C   LIG    1       23.967 -19.437   4.086  0.00  0.00    +0.127 C 
ATOM     17 CL   LIG    1       22.407 -19.248   4.918  0.00  0.00    -0.124 Cl
ENDBRANCH  15  16
ENDBRANCH  14  15
BRANCH  14  18
ATOM     18  C   LIG    1       24.468 -21.317   7.045  0.00  0.00    +0.121 C 
BRANCH  18  19
ATOM     19  C   LIG    1       23.844 -22.713   7.031  0.00  0.00    +0.127 C 
ATOM     20 CL   LIG    1       25.050 -24.011   6.857  0.00  0.00    -0.124 Cl
ENDBRANCH  18  19
ENDBRANCH  14  18
ENDBRANCH   4  14
TORSDOF 10
ENDMDL
MODEL 9
REMARK VINA RESULT:      -7.1      5.154      7.565
REMARK  Name = *****
REMARK                            x       y       z     vdW  Elec       q    Type
REMARK                         _______ _______ _______ _____ _____    ______ ____
ROOT
ATOM      1  C   LIG    1       24.698 -25.450   6.384  0.00  0.00    -0.047 A 
ATOM      2  C   LIG    1       23.496 -24.742   6.464  0.00  0.00    +0.005 A 
ATOM      3  C   LIG    1       23.482 -23.347   6.756  0.00  0.00    +0.023 A 
ATOM      4  C   LIG    1       24.659 -22.609   6.993  0.00  0.00    +0.030 A 
ATOM      5  C   LIG    1       25.833 -23.384   7.010  0.00  0.00    +0.023 A 
ATOM      6  C   LIG    1       25.860 -24.757   6.706  0.00  0.00    +0.005 A 
ENDROOT
BRANCH   1   7
ATOM      7  C   LIG    1       24.805 -26.900   5.957  0.00  0.00    +0.035 C 
BRANCH   7   8
ATOM      8  C   LIG    1       25.412 -27.856   7.006  0.00  0.00    +0.016 C 
BRANCH   8   9
ATOM      9  C   LIG    1       24.575 -29.102   7.285  0.00  0.00    +0.121 C 
BRANCH   9  11
ATOM     10  O   LIG    1       25.262 -30.600   5.509  0.00  0.00    -0.251 OA
ATOM     11  C   LIG    1       24.399 -29.953   6.037  0.00  0.00    +0.305 C 
BRANCH  11  12
ATOM     12  O   LIG    1       23.123 -29.866   5.539  0.00  0.00    -0.481 OA
ATOM     13  H   LIG    1       23.077 -29.667   4.585  0.00  0.00    +0.295 HD
ENDBRANCH  11  12
ENDBRANCH   9  11
ENDBRANCH   8   9
ENDBRANCH   7   8
ENDBRANCH   1   7
BRANCH   4  14
ATOM     14  N   LIG    1       24.690 -21.203   7.166  0.00  0.00    -0.328 N 
BRANCH  14  15
ATOM     15  C   LIG    1       25.941 -20.554   7.635  0.00  0.00    +0.121 C 
BRANCH  15  16
ATOM     16  C   LIG    1       27.053 -20.227   6.623  0.00  0.00    +0.127 C 
ATOM     17 CL   LIG    1       28.580 -21.083   6.936  0.00  0.00    -0.124 Cl
ENDBRANCH  15  16
ENDBRANCH  14  15
BRANCH  14  18
ATOM     18  C   LIG    1       23.476 -20.454   6.733  0.00  0.00    +0.121 C 
BRANCH  18  19
ATOM     19  C   LIG    1       23.134 -20.262   5.255  0.00  0.00    +0.127 C 
ATOM     20 CL   LIG    1       22.312 -18.718   4.927  0.00  0.00    -0.124 Cl
ENDBRANCH  18  19
ENDBRANCH  14  18
ENDBRANCH   4  14
TORSDOF 10
ENDMDL
