MODEL 1
REMARK VINA RESULT:      -9.2      0.000      0.000
REMARK  Name = *****
REMARK                            x       y       z     vdW  Elec       q    Type
REMARK                         _______ _______ _______ _____ _____    ______ ____
ROOT
ATOM      1  C   LIG    1       25.599 -22.027   7.796  0.00  0.00    +0.077 C 
ENDROOT
BRANCH   1   2
ATOM      2  C   LIG    1       24.913 -23.157   7.047  0.00  0.00    -0.034 A 
ATOM      3  C   LIG    1       25.658 -24.074   6.298  0.00  0.00    +0.012 A 
ATOM      4  C   LIG    1       25.057 -25.208   5.720  0.00  0.00    -0.025 A 
ATOM      5  C   LIG    1       23.681 -25.387   5.869  0.00  0.00    +0.008 A 
ATOM      6  C   LIG    1       22.908 -24.443   6.547  0.00  0.00    +0.001 A 
ATOM      7  C   LIG    1       23.517 -23.332   7.130  0.00  0.00    +0.005 A 
BRANCH   4   8
ATOM      8  C   LIG    1       25.935 -26.231   5.134  0.00  0.00    +0.010 C 
ATOM      9  C   LIG    1       26.036 -27.558   5.330  0.00  0.00    +0.028 C 
BRANCH   9  10
ATOM     10  C   LIG    1       25.296 -28.494   6.185  0.00  0.00    +0.065 A 
ATOM     11  N   LIG    1       25.647 -28.485   7.493  0.00  0.00    -0.247 NA
ATOM     12  C   LIG    1       25.127 -29.423   8.311  0.00  0.00    +0.073 A 
ATOM     13  C   LIG    1       24.269 -30.443   7.850  0.00  0.00    +0.001 A 
ATOM     14  C   LIG    1       23.758 -31.408   8.741  0.00  0.00    +0.011 A 
ATOM     15  C   LIG    1       24.068 -31.342  10.098  0.00  0.00    +0.021 A 
ATOM     16  C   LIG    1       24.902 -30.327  10.553  0.00  0.00    +0.043 A 
ATOM     17 CL   LIG    1       25.269 -30.217  12.232  0.00  0.00    -0.084 Cl
ATOM     18  C   LIG    1       23.943 -30.445   6.488  0.00  0.00    +0.012 A 
ATOM     19  C   LIG    1       25.435 -29.392   9.664  0.00  0.00    +0.048 A 
ATOM     20  C   LIG    1       24.445 -29.449   5.648  0.00  0.00    +0.028 A 
ENDBRANCH   9  10
ENDBRANCH   4   8
ENDBRANCH   1   2
BRANCH   1  21
ATOM     21  C   LIG    1       27.185 -22.079   7.857  0.00  0.00    +0.023 C 
BRANCH  21  22
ATOM     22  C   LIG    1       27.983 -20.912   8.504  0.00  0.00    +0.037 C 
BRANCH  22  24
ATOM     23  C   LIG    1       29.854 -19.062   7.745  0.00  0.00    -0.013 A 
ATOM     24  C   LIG    1       28.694 -19.894   7.559  0.00  0.00    -0.041 A 
ATOM     25  C   LIG    1       28.029 -19.764   6.304  0.00  0.00    +0.004 A 
ATOM     26  C   LIG    1       28.518 -18.993   5.242  0.00  0.00    +0.000 A 
ATOM     27  C   LIG    1       29.731 -18.362   5.363  0.00  0.00    +0.000 A 
ATOM     28  C   LIG    1       30.377 -18.411   6.584  0.00  0.00    +0.007 A 
BRANCH  23  30
ATOM     29  C   LIG    1       29.928 -17.665   9.968  0.00  0.00    +0.046 C 
ATOM     30  C   LIG    1       30.676 -18.695   9.015  0.00  0.00    +0.086 C 
ATOM     31  C   LIG    1       32.041 -18.148   8.586  0.00  0.00    +0.046 C 
BRANCH  30  32
ATOM     32  O   LIG    1       30.912 -19.825   9.856  0.00  0.00    -0.385 OA
ATOM     33  H   LIG    1       30.207 -19.808  10.532  0.00  0.00    +0.211 HD
ENDBRANCH  30  32
ENDBRANCH  23  30
ENDBRANCH  22  24
ENDBRANCH  21  22
ENDBRANCH   1  21
BRANCH   1  34
ATOM     34  S   LIG    1       24.680 -20.387   7.648  0.00  0.00    -0.152 S 
BRANCH  34  35
ATOM     35  C   LIG    1       23.490 -20.536   6.189  0.00  0.00    +0.077 C 
BRANCH  35  36
ATOM     36  C   LIG    1       24.047 -20.238   4.788  0.00  0.00    -0.010 C 
ATOM     37  C   LIG    1       25.402 -20.707   4.333  0.00  0.00    +0.009 C 
ATOM     38  C   LIG    1       24.189 -21.451   3.883  0.00  0.00    +0.009 C 
BRANCH  36  39
ATOM     39  C   LIG    1       23.610 -18.938   4.058  0.00  0.00    +0.128 C 
BRANCH  39  40
ATOM     40  C   LIG    1       22.211 -18.370   4.303  0.00  0.00    +0.305 C 
ATOM     41  O   LIG    1       21.213 -18.929   3.999  0.00  0.00    -0.251 OA
BRANCH  40  42
ATOM     42  O   LIG    1       22.198 -17.137   4.884  0.00  0.00    -0.481 OA
ATOM     43  H   LIG    1       22.935 -16.562   4.662  0.00  0.00    +0.295 HD
ENDBRANCH  40  42
ENDBRANCH  39  40
ENDBRANCH  36  39
ENDBRANCH  35  36
ENDBRANCH  34  35
ENDBRANCH   1  34
TORSDOF 14
ENDMDL
MODEL 2
REMARK VINA RESULT:      -9.2      4.763     10.207
REMARK  Name = *****
REMARK                            x       y       z     vdW  Elec       q    Type
REMARK                         _______ _______ _______ _____ _____    ______ ____
ROOT
ATOM      1  C   LIG    1       25.486 -28.793   7.546  0.00  0.00    +0.077 C 
ENDROOT
BRANCH   1   2
ATOM      2  C   LIG    1       25.261 -27.644   6.577  0.00  0.00    -0.034 A 
ATOM      3  C   LIG    1       24.367 -26.614   6.884  0.00  0.00    +0.012 A 
ATOM      4  C   LIG    1       24.255 -25.472   6.069  0.00  0.00    -0.025 A 
ATOM      5  C   LIG    1       25.029 -25.398   4.910  0.00  0.00    +0.008 A 
ATOM      6  C   LIG    1       25.871 -26.450   4.545  0.00  0.00    +0.001 A 
ATOM      7  C   LIG    1       25.985 -27.569   5.370  0.00  0.00    +0.005 A 
BRANCH   4   8
ATOM      8  C   LIG    1       23.457 -24.342   6.568  0.00  0.00    +0.010 C 
ATOM      9  C   LIG    1       23.713 -23.025   6.665  0.00  0.00    +0.028 C 
BRANCH   9  10
ATOM     10  C   LIG    1       24.875 -22.210   6.292  0.00  0.00    +0.065 A 
ATOM     11  N   LIG    1       25.946 -22.318   7.115  0.00  0.00    -0.247 NA
ATOM     12  C   LIG    1       26.992 -21.486   6.931  0.00  0.00    +0.073 A 
ATOM     13  C   LIG    1       26.995 -20.474   5.947  0.00  0.00    +0.001 A 
ATOM     14  C   LIG    1       28.107 -19.621   5.800  0.00  0.00    +0.011 A 
ATOM     15  C   LIG    1       29.233 -19.792   6.603  0.00  0.00    +0.021 A 
ATOM     16  C   LIG    1       29.233 -20.799   7.562  0.00  0.00    +0.043 A 
ATOM     17 CL   LIG    1       30.629 -21.039   8.541  0.00  0.00    -0.084 Cl
ATOM     18  C   LIG    1       25.864 -20.368   5.128  0.00  0.00    +0.012 A 
ATOM     19  C   LIG    1       28.118 -21.621   7.731  0.00  0.00    +0.048 A 
ATOM     20  C   LIG    1       24.799 -21.257   5.288  0.00  0.00    +0.028 A 
ENDBRANCH   9  10
ENDBRANCH   4   8
ENDBRANCH   1   2
BRANCH   1  21
ATOM     21  C   LIG    1       26.301 -28.455   8.866  0.00  0.00    +0.023 C 
BRANCH  21  22
ATOM     22  C   LIG    1       26.243 -29.413  10.089  0.00  0.00    +0.037 C 
BRANCH  22  24
ATOM     23  C   LIG    1       25.416 -28.238  12.420  0.00  0.00    -0.013 A 
ATOM     24  C   LIG    1       25.262 -29.064  11.251  0.00  0.00    -0.041 A 
ATOM     25  C   LIG    1       24.007 -29.727  11.117  0.00  0.00    +0.004 A 
ATOM     26  C   LIG    1       22.918 -29.508  11.970  0.00  0.00    +0.000 A 
ATOM     27  C   LIG    1       23.013 -28.566  12.965  0.00  0.00    +0.000 A 
ATOM     28  C   LIG    1       24.232 -27.948  13.168  0.00  0.00    +0.007 A 
BRANCH  23  30
ATOM     29  C   LIG    1       26.661 -27.673  14.664  0.00  0.00    +0.046 C 
ATOM     30  C   LIG    1       26.670 -27.589  13.076  0.00  0.00    +0.086 C 
ATOM     31  C   LIG    1       26.780 -26.134  12.609  0.00  0.00    +0.046 C 
BRANCH  30  32
ATOM     32  O   LIG    1       27.881 -28.251  12.708  0.00  0.00    -0.385 OA
ATOM     33  H   LIG    1       28.445 -28.241  13.505  0.00  0.00    +0.211 HD
ENDBRANCH  30  32
ENDBRANCH  23  30
ENDBRANCH  22  24
ENDBRANCH  21  22
ENDBRANCH   1  21
BRANCH   1  34
ATOM     34  S   LIG    1       24.056 -30.022   7.567  0.00  0.00    -0.152 S 
BRANCH  34  35
ATOM     35  C   LIG    1       24.776 -31.719   7.974  0.00  0.00    +0.077 C 
BRANCH  35  36
ATOM     36  C   LIG    1       25.997 -32.183   7.162  0.00  0.00    -0.010 C 
ATOM     37  C   LIG    1       27.361 -32.358   7.771  0.00  0.00    +0.009 C 
ATOM     38  C   LIG    1       26.519 -33.564   7.523  0.00  0.00    +0.009 C 
BRANCH  36  39
ATOM     39  C   LIG    1       26.079 -31.838   5.650  0.00  0.00    +0.128 C 
BRANCH  39  40
ATOM     40  C   LIG    1       25.056 -32.439   4.684  0.00  0.00    +0.305 C 
ATOM     41  O   LIG    1       24.105 -33.051   5.032  0.00  0.00    -0.251 OA
BRANCH  40  42
ATOM     42  O   LIG    1       25.341 -32.238   3.366  0.00  0.00    -0.481 OA
ATOM     43  H   LIG    1       25.811 -31.427   3.158  0.00  0.00    +0.295 HD
ENDBRANCH  40  42
ENDBRANCH  39  40
ENDBRANCH  36  39
ENDBRANCH  35  36
ENDBRANCH  34  35
ENDBRANCH   1  34
TORSDOF 14
ENDMDL
MODEL 3
REMARK VINA RESULT:      -9.1      5.038     10.551
REMARK  Name = *****
REMARK                            x       y       z     vdW  Elec       q    Type
REMARK                         _______ _______ _______ _____ _____    ______ ____
ROOT
ATOM      1  C   LIG    1       25.628 -28.635   7.373  0.00  0.00    +0.077 C 
ENDROOT
BRANCH   1   2
ATOM      2  C   LIG    1       25.302 -27.491   6.427  0.00  0.00    -0.034 A 
ATOM      3  C   LIG    1       24.441 -26.461   6.821  0.00  0.00    +0.012 A 
ATOM      4  C   LIG    1       24.243 -25.323   6.017  0.00  0.00    -0.025 A 
ATOM      5  C   LIG    1       24.894 -25.253   4.784  0.00  0.00    +0.008 A 
ATOM      6  C   LIG    1       25.696 -26.305   4.339  0.00  0.00    +0.001 A 
ATOM      7  C   LIG    1       25.898 -27.420   5.152  0.00  0.00    +0.005 A 
BRANCH   4   8
ATOM      8  C   LIG    1       23.498 -24.193   6.591  0.00  0.00    +0.010 C 
ATOM      9  C   LIG    1       23.793 -22.887   6.725  0.00  0.00    +0.028 C 
BRANCH   9  10
ATOM     10  C   LIG    1       24.960 -22.089   6.331  0.00  0.00    +0.065 A 
ATOM     11  N   LIG    1       26.036 -22.192   7.149  0.00  0.00    -0.247 NA
ATOM     12  C   LIG    1       27.087 -21.372   6.945  0.00  0.00    +0.073 A 
ATOM     13  C   LIG    1       27.093 -20.378   5.945  0.00  0.00    +0.001 A 
ATOM     14  C   LIG    1       28.212 -19.537   5.777  0.00  0.00    +0.011 A 
ATOM     15  C   LIG    1       29.341 -19.704   6.576  0.00  0.00    +0.021 A 
ATOM     16  C   LIG    1       29.338 -20.695   7.552  0.00  0.00    +0.043 A 
ATOM     17 CL   LIG    1       30.738 -20.931   8.526  0.00  0.00    -0.084 Cl
ATOM     18  C   LIG    1       25.959 -20.275   5.131  0.00  0.00    +0.012 A 
ATOM     19  C   LIG    1       28.217 -21.505   7.741  0.00  0.00    +0.048 A 
ATOM     20  C   LIG    1       24.887 -21.152   5.312  0.00  0.00    +0.028 A 
ENDBRANCH   9  10
ENDBRANCH   4   8
ENDBRANCH   1   2
BRANCH   1  21
ATOM     21  C   LIG    1       26.494 -28.269   8.653  0.00  0.00    +0.023 C 
BRANCH  21  22
ATOM     22  C   LIG    1       26.598 -29.268   9.840  0.00  0.00    +0.037 C 
BRANCH  22  24
ATOM     23  C   LIG    1       25.131 -29.338  12.152  0.00  0.00    -0.013 A 
ATOM     24  C   LIG    1       26.109 -28.795  11.244  0.00  0.00    -0.041 A 
ATOM     25  C   LIG    1       26.740 -27.585  11.658  0.00  0.00    +0.004 A 
ATOM     26  C   LIG    1       26.553 -27.004  12.919  0.00  0.00    +0.000 A 
ATOM     27  C   LIG    1       25.771 -27.639  13.851  0.00  0.00    +0.000 A 
ATOM     28  C   LIG    1       25.091 -28.781  13.468  0.00  0.00    +0.007 A 
BRANCH  23  30
ATOM     29  C   LIG    1       24.623 -31.791  11.363  0.00  0.00    +0.046 C 
ATOM     30  C   LIG    1       24.047 -30.440  11.973  0.00  0.00    +0.086 C 
ATOM     31  C   LIG    1       22.914 -29.889  11.103  0.00  0.00    +0.046 C 
BRANCH  30  32
ATOM     32  O   LIG    1       23.474 -30.847  13.216  0.00  0.00    -0.385 OA
ATOM     33  H   LIG    1       23.325 -31.809  13.141  0.00  0.00    +0.211 HD
ENDBRANCH  30  32
ENDBRANCH  23  30
ENDBRANCH  22  24
ENDBRANCH  21  22
ENDBRANCH   1  21
BRANCH   1  34
ATOM     34  S   LIG    1       24.258 -29.928   7.456  0.00  0.00    -0.152 S 
BRANCH  34  35
ATOM     35  C   LIG    1       24.391 -30.992   5.903  0.00  0.00    +0.077 C 
BRANCH  35  36
ATOM     36  C   LIG    1       25.581 -31.962   5.809  0.00  0.00    -0.010 C 
ATOM     37  C   LIG    1       26.581 -32.134   6.918  0.00  0.00    +0.009 C 
ATOM     38  C   LIG    1       25.509 -33.157   6.744  0.00  0.00    +0.009 C 
BRANCH  36  39
ATOM     39  C   LIG    1       26.201 -32.269   4.418  0.00  0.00    +0.128 C 
BRANCH  39  40
ATOM     40  C   LIG    1       25.339 -32.921   3.335  0.00  0.00    +0.305 C 
ATOM     41  O   LIG    1       24.365 -33.553   3.564  0.00  0.00    -0.251 OA
BRANCH  40  42
ATOM     42  O   LIG    1       25.798 -32.741   2.065  0.00  0.00    -0.481 OA
ATOM     43  H   LIG    1       26.001 -33.542   1.575  0.00  0.00    +0.295 HD
ENDBRANCH  40  42
ENDBRANCH  39  40
ENDBRANCH  36  39
ENDBRANCH  35  36
ENDBRANCH  34  35
ENDBRANCH   1  34
TORSDOF 14
ENDMDL
MODEL 4
REMARK VINA RESULT:      -9.0      4.651     10.617
REMARK  Name = *****
REMARK                            x       y       z     vdW  Elec       q    Type
REMARK                         _______ _______ _______ _____ _____    ______ ____
ROOT
ATOM      1  C   LIG    1       25.326 -29.193   6.717  0.00  0.00    +0.077 C 
ENDROOT
BRANCH   1   2
ATOM      2  C   LIG    1       25.152 -27.867   5.995  0.00  0.00    -0.034 A 
ATOM      3  C   LIG    1       24.325 -26.869   6.521  0.00  0.00    +0.012 A 
ATOM      4  C   LIG    1       24.267 -25.586   5.946  0.00  0.00    -0.025 A 
ATOM      5  C   LIG    1       25.024 -25.330   4.801  0.00  0.00    +0.008 A 
ATOM      6  C   LIG    1       25.796 -26.335   4.216  0.00  0.00    +0.001 A 
ATOM      7  C   LIG    1       25.858 -27.598   4.805  0.00  0.00    +0.005 A 
BRANCH   4   8
ATOM      8  C   LIG    1       23.545 -24.534   6.676  0.00  0.00    +0.010 C 
ATOM      9  C   LIG    1       23.808 -23.230   6.882  0.00  0.00    +0.028 C 
BRANCH   9  10
ATOM     10  C   LIG    1       24.902 -22.357   6.440  0.00  0.00    +0.065 A 
ATOM     11  N   LIG    1       26.018 -22.393   7.207  0.00  0.00    -0.247 NA
ATOM     12  C   LIG    1       27.004 -21.506   6.960  0.00  0.00    +0.073 A 
ATOM     13  C   LIG    1       26.900 -20.511   5.966  0.00  0.00    +0.001 A 
ATOM     14  C   LIG    1       27.953 -19.599   5.751  0.00  0.00    +0.011 A 
ATOM     15  C   LIG    1       29.126 -19.695   6.497  0.00  0.00    +0.021 A 
ATOM     16  C   LIG    1       29.232 -20.686   7.467  0.00  0.00    +0.043 A 
ATOM     17 CL   LIG    1       30.687 -20.833   8.375  0.00  0.00    -0.084 Cl
ATOM     18  C   LIG    1       25.725 -20.480   5.205  0.00  0.00    +0.012 A 
ATOM     19  C   LIG    1       28.175 -21.567   7.702  0.00  0.00    +0.048 A 
ATOM     20  C   LIG    1       24.722 -21.425   5.430  0.00  0.00    +0.028 A 
ENDBRANCH   9  10
ENDBRANCH   4   8
ENDBRANCH   1   2
BRANCH   1  21
ATOM     21  C   LIG    1       24.670 -29.304   8.159  0.00  0.00    +0.023 C 
BRANCH  21  22
ATOM     22  C   LIG    1       25.565 -29.524   9.411  0.00  0.00    +0.037 C 
BRANCH  22  24
ATOM     23  C   LIG    1       25.404 -28.629  11.994  0.00  0.00    -0.013 A 
ATOM     24  C   LIG    1       24.927 -29.310  10.818  0.00  0.00    -0.041 A 
ATOM     25  C   LIG    1       23.656 -29.945  10.939  0.00  0.00    +0.004 A 
ATOM     26  C   LIG    1       22.830 -29.822  12.063  0.00  0.00    +0.000 A 
ATOM     27  C   LIG    1       23.210 -29.006  13.099  0.00  0.00    +0.000 A 
ATOM     28  C   LIG    1       24.462 -28.423  13.050  0.00  0.00    +0.007 A 
BRANCH  23  30
ATOM     29  C   LIG    1       27.459 -28.809  13.621  0.00  0.00    +0.046 C 
ATOM     30  C   LIG    1       26.807 -28.070  12.373  0.00  0.00    +0.086 C 
ATOM     31  C   LIG    1       26.691 -26.565  12.631  0.00  0.00    +0.046 C 
BRANCH  30  32
ATOM     32  O   LIG    1       27.766 -28.254  11.331  0.00  0.00    -0.385 OA
ATOM     33  H   LIG    1       27.328 -27.963  10.508  0.00  0.00    +0.211 HD
ENDBRANCH  30  32
ENDBRANCH  23  30
ENDBRANCH  22  24
ENDBRANCH  21  22
ENDBRANCH   1  21
BRANCH   1  34
ATOM     34  S   LIG    1       25.357 -30.667   5.541  0.00  0.00    -0.152 S 
BRANCH  34  35
ATOM     35  C   LIG    1       25.938 -32.166   6.530  0.00  0.00    +0.077 C 
BRANCH  35  36
ATOM     36  C   LIG    1       24.873 -32.963   7.301  0.00  0.00    -0.010 C 
ATOM     37  C   LIG    1       23.416 -32.590   7.297  0.00  0.00    +0.009 C 
ATOM     38  C   LIG    1       23.878 -33.712   6.429  0.00  0.00    +0.009 C 
BRANCH  36  39
ATOM     39  C   LIG    1       25.276 -33.708   8.603  0.00  0.00    +0.128 C 
BRANCH  39  40
ATOM     40  C   LIG    1       26.331 -33.096   9.526  0.00  0.00    +0.305 C 
ATOM     41  O   LIG    1       27.452 -32.901   9.202  0.00  0.00    -0.251 OA
BRANCH  40  42
ATOM     42  O   LIG    1       25.883 -32.813  10.782  0.00  0.00    -0.481 OA
ATOM     43  H   LIG    1       25.899 -33.542  11.406  0.00  0.00    +0.295 HD
ENDBRANCH  40  42
ENDBRANCH  39  40
ENDBRANCH  36  39
ENDBRANCH  35  36
ENDBRANCH  34  35
ENDBRANCH   1  34
TORSDOF 14
ENDMDL
MODEL 5
REMARK VINA RESULT:      -9.0      5.462     10.060
REMARK  Name = *****
REMARK                            x       y       z     vdW  Elec       q    Type
REMARK                         _______ _______ _______ _____ _____    ______ ____
ROOT
ATOM      1  C   LIG    1       23.467 -30.936  10.731  0.00  0.00    +0.077 C 
ENDROOT
BRANCH   1   2
ATOM      2  C   LIG    1       24.279 -31.028   9.450  0.00  0.00    -0.034 A 
ATOM      3  C   LIG    1       23.746 -30.593   8.232  0.00  0.00    +0.012 A 
ATOM      4  C   LIG    1       24.532 -30.534   7.066  0.00  0.00    -0.025 A 
ATOM      5  C   LIG    1       25.860 -30.962   7.131  0.00  0.00    +0.008 A 
ATOM      6  C   LIG    1       26.388 -31.472   8.318  0.00  0.00    +0.001 A 
ATOM      7  C   LIG    1       25.604 -31.509   9.471  0.00  0.00    +0.005 A 
BRANCH   4   8
ATOM      8  C   LIG    1       23.966 -29.868   5.884  0.00  0.00    +0.010 C 
ATOM      9  C   LIG    1       23.999 -28.592   5.460  0.00  0.00    +0.028 C 
BRANCH   9  10
ATOM     10  C   LIG    1       24.628 -27.383   6.004  0.00  0.00    +0.065 A 
ATOM     11  N   LIG    1       23.816 -26.304   6.110  0.00  0.00    -0.247 NA
ATOM     12  C   LIG    1       24.355 -25.115   6.451  0.00  0.00    +0.073 A 
ATOM     13  C   LIG    1       25.740 -24.940   6.653  0.00  0.00    +0.001 A 
ATOM     14  C   LIG    1       26.259 -23.675   6.998  0.00  0.00    +0.011 A 
ATOM     15  C   LIG    1       25.403 -22.591   7.177  0.00  0.00    +0.021 A 
ATOM     16  C   LIG    1       24.036 -22.770   6.991  0.00  0.00    +0.043 A 
ATOM     17 CL   LIG    1       22.964 -21.446   7.238  0.00  0.00    -0.084 Cl
ATOM     18  C   LIG    1       26.561 -26.065   6.511  0.00  0.00    +0.012 A 
ATOM     19  C   LIG    1       23.526 -24.015   6.617  0.00  0.00    +0.048 A 
ATOM     20  C   LIG    1       25.999 -27.305   6.202  0.00  0.00    +0.028 A 
ENDBRANCH   9  10
ENDBRANCH   4   8
ENDBRANCH   1   2
BRANCH   1  21
ATOM     21  C   LIG    1       23.136 -29.473  11.255  0.00  0.00    +0.023 C 
BRANCH  21  22
ATOM     22  C   LIG    1       23.421 -29.088  12.734  0.00  0.00    +0.037 C 
BRANCH  22  24
ATOM     23  C   LIG    1       25.724 -27.607  12.688  0.00  0.00    -0.013 A 
ATOM     24  C   LIG    1       24.344 -27.861  13.010  0.00  0.00    -0.041 A 
ATOM     25  C   LIG    1       23.678 -26.838  13.747  0.00  0.00    +0.004 A 
ATOM     26  C   LIG    1       24.249 -25.593  14.038  0.00  0.00    +0.000 A 
ATOM     27  C   LIG    1       25.496 -25.287  13.551  0.00  0.00    +0.000 A 
ATOM     28  C   LIG    1       26.201 -26.274  12.887  0.00  0.00    +0.007 A 
BRANCH  23  30
ATOM     29  C   LIG    1       26.998 -28.525  10.581  0.00  0.00    +0.046 C 
ATOM     30  C   LIG    1       26.857 -28.539  12.165  0.00  0.00    +0.086 C 
ATOM     31  C   LIG    1       26.610 -29.961  12.677  0.00  0.00    +0.046 C 
BRANCH  30  32
ATOM     32  O   LIG    1       28.148 -28.135  12.624  0.00  0.00    -0.385 OA
ATOM     33  H   LIG    1       28.618 -28.958  12.860  0.00  0.00    +0.211 HD
ENDBRANCH  30  32
ENDBRANCH  23  30
ENDBRANCH  22  24
ENDBRANCH  21  22
ENDBRANCH   1  21
BRANCH   1  34
ATOM     34  S   LIG    1       22.225 -32.343  10.912  0.00  0.00    -0.152 S 
BRANCH  34  35
ATOM     35  C   LIG    1       21.146 -31.954  12.412  0.00  0.00    +0.077 C 
BRANCH  35  36
ATOM     36  C   LIG    1       19.972 -30.983  12.206  0.00  0.00    -0.010 C 
ATOM     37  C   LIG    1       18.797 -30.916  13.143  0.00  0.00    +0.009 C 
ATOM     38  C   LIG    1       19.865 -29.878  13.244  0.00  0.00    +0.009 C 
BRANCH  36  39
ATOM     39  C   LIG    1       19.587 -30.551  10.765  0.00  0.00    +0.128 C 
BRANCH  39  40
ATOM     40  C   LIG    1       18.471 -31.293  10.027  0.00  0.00    +0.305 C 
ATOM     41  O   LIG    1       18.334 -32.468  10.057  0.00  0.00    -0.251 OA
BRANCH  40  42
ATOM     42  O   LIG    1       17.648 -30.490   9.297  0.00  0.00    -0.481 OA
ATOM     43  H   LIG    1       16.778 -30.849   9.101  0.00  0.00    +0.295 HD
ENDBRANCH  40  42
ENDBRANCH  39  40
ENDBRANCH  36  39
ENDBRANCH  35  36
ENDBRANCH  34  35
ENDBRANCH   1  34
TORSDOF 14
ENDMDL
MODEL 6
REMARK VINA RESULT:      -8.9      1.630      2.186
REMARK  Name = *****
REMARK                            x       y       z     vdW  Elec       q    Type
REMARK                         _______ _______ _______ _____ _____    ______ ____
ROOT
ATOM      1  C   LIG    1       25.993 -22.218   7.924  0.00  0.00    +0.077 C 
ENDROOT
BRANCH   1   2
ATOM      2  C   LIG    1       25.161 -23.205   7.122  0.00  0.00    -0.034 A 
ATOM      3  C   LIG    1       25.765 -24.064   6.198  0.00  0.00    +0.012 A 
ATOM      4  C   LIG    1       25.034 -25.081   5.556  0.00  0.00    -0.025 A 
ATOM      5  C   LIG    1       23.668 -25.196   5.824  0.00  0.00    +0.008 A 
ATOM      6  C   LIG    1       23.032 -24.299   6.683  0.00  0.00    +0.001 A 
ATOM      7  C   LIG    1       23.770 -23.307   7.327  0.00  0.00    +0.005 A 
BRANCH   4   8
ATOM      8  C   LIG    1       25.778 -26.074   4.767  0.00  0.00    +0.010 C 
ATOM      9  C   LIG    1       26.045 -27.376   4.971  0.00  0.00    +0.028 C 
BRANCH   9  10
ATOM     10  C   LIG    1       25.681 -28.308   6.045  0.00  0.00    +0.065 A 
ATOM     11  N   LIG    1       25.042 -29.433   5.644  0.00  0.00    -0.247 NA
ATOM     12  C   LIG    1       24.536 -30.261   6.581  0.00  0.00    +0.073 A 
ATOM     13  C   LIG    1       24.602 -29.977   7.962  0.00  0.00    +0.001 A 
ATOM     14  C   LIG    1       24.049 -30.868   8.904  0.00  0.00    +0.011 A 
ATOM     15  C   LIG    1       23.462 -32.059   8.482  0.00  0.00    +0.021 A 
ATOM     16  C   LIG    1       23.410 -32.343   7.121  0.00  0.00    +0.043 A 
ATOM     17 CL   LIG    1       22.713 -33.824   6.588  0.00  0.00    -0.084 Cl
ATOM     18  C   LIG    1       25.245 -28.795   8.347  0.00  0.00    +0.012 A 
ATOM     19  C   LIG    1       23.928 -31.444   6.187  0.00  0.00    +0.048 A 
ATOM     20  C   LIG    1       25.809 -27.959   7.381  0.00  0.00    +0.028 A 
ENDBRANCH   9  10
ENDBRANCH   4   8
ENDBRANCH   1   2
BRANCH   1  21
ATOM     21  C   LIG    1       27.570 -22.349   7.789  0.00  0.00    +0.023 C 
BRANCH  21  22
ATOM     22  C   LIG    1       28.502 -21.272   8.413  0.00  0.00    +0.037 C 
BRANCH  22  24
ATOM     23  C   LIG    1       30.086 -19.178   7.636  0.00  0.00    -0.013 A 
ATOM     24  C   LIG    1       28.996 -20.108   7.499  0.00  0.00    -0.041 A 
ATOM     25  C   LIG    1       28.176 -19.941   6.344  0.00  0.00    +0.004 A 
ATOM     26  C   LIG    1       28.459 -19.035   5.315  0.00  0.00    +0.000 A 
ATOM     27  C   LIG    1       29.613 -18.292   5.362  0.00  0.00    +0.000 A 
ATOM     28  C   LIG    1       30.402 -18.378   6.494  0.00  0.00    +0.007 A 
BRANCH  23  30
ATOM     29  C   LIG    1       30.221 -18.346  10.124  0.00  0.00    +0.046 C 
ATOM     30  C   LIG    1       31.016 -18.838   8.837  0.00  0.00    +0.086 C 
ATOM     31  C   LIG    1       32.039 -17.787   8.394  0.00  0.00    +0.046 C 
BRANCH  30  32
ATOM     32  O   LIG    1       31.744 -19.975   9.302  0.00  0.00    -0.385 OA
ATOM     33  H   LIG    1       32.349 -20.222   8.576  0.00  0.00    +0.211 HD
ENDBRANCH  30  32
ENDBRANCH  23  30
ENDBRANCH  22  24
ENDBRANCH  21  22
ENDBRANCH   1  21
BRANCH   1  34
ATOM     34  S   LIG    1       25.164 -20.534   8.098  0.00  0.00    -0.152 S 
BRANCH  34  35
ATOM     35  C   LIG    1       23.485 -20.639   7.240  0.00  0.00    +0.077 C 
BRANCH  35  36
ATOM     36  C   LIG    1       23.454 -20.421   5.718  0.00  0.00    -0.010 C 
ATOM     37  C   LIG    1       22.248 -20.736   4.876  0.00  0.00    +0.009 C 
ATOM     38  C   LIG    1       22.521 -19.317   5.249  0.00  0.00    +0.009 C 
BRANCH  36  39
ATOM     39  C   LIG    1       24.773 -20.537   4.907  0.00  0.00    +0.128 C 
BRANCH  39  40
ATOM     40  C   LIG    1       24.919 -19.770   3.592  0.00  0.00    +0.305 C 
ATOM     41  O   LIG    1       25.323 -18.660   3.521  0.00  0.00    -0.251 OA
BRANCH  40  42
ATOM     42  O   LIG    1       24.516 -20.461   2.489  0.00  0.00    -0.481 OA
ATOM     43  H   LIG    1       24.981 -20.256   1.673  0.00  0.00    +0.295 HD
ENDBRANCH  40  42
ENDBRANCH  39  40
ENDBRANCH  36  39
ENDBRANCH  35  36
ENDBRANCH  34  35
ENDBRANCH   1  34
TORSDOF 14
ENDMDL
MODEL 7
REMARK VINA RESULT:      -8.6      5.697     10.379
REMARK  Name = *****
REMARK                            x       y       z     vdW  Elec       q    Type
REMARK                         _______ _______ _______ _____ _____    ______ ____
ROOT
ATOM      1  C   LIG    1       24.996 -30.161   9.504  0.00  0.00    +0.077 C 
ENDROOT
BRANCH   1   2
ATOM      2  C   LIG    1       24.850 -29.458   8.165  0.00  0.00    -0.034 A 
ATOM      3  C   LIG    1       25.593 -28.309   7.876  0.00  0.00    +0.012 A 
ATOM      4  C   LIG    1       25.581 -27.731   6.593  0.00  0.00    -0.025 A 
ATOM      5  C   LIG    1       24.772 -28.302   5.608  0.00  0.00    +0.008 A 
ATOM      6  C   LIG    1       23.965 -29.403   5.898  0.00  0.00    +0.001 A 
ATOM      7  C   LIG    1       23.999 -29.977   7.169  0.00  0.00    +0.005 A 
BRANCH   4   8
ATOM      8  C   LIG    1       26.547 -26.659   6.309  0.00  0.00    +0.010 C 
ATOM      9  C   LIG    1       26.395 -25.349   6.045  0.00  0.00    +0.028 C 
BRANCH   9  10
ATOM     10  C   LIG    1       25.212 -24.485   5.960  0.00  0.00    +0.065 A 
ATOM     11  N   LIG    1       25.402 -23.301   5.330  0.00  0.00    -0.247 NA
ATOM     12  C   LIG    1       24.410 -22.388   5.350  0.00  0.00    +0.073 A 
ATOM     13  C   LIG    1       23.199 -22.596   6.042  0.00  0.00    +0.001 A 
ATOM     14  C   LIG    1       22.194 -21.607   6.043  0.00  0.00    +0.011 A 
ATOM     15  C   LIG    1       22.374 -20.426   5.328  0.00  0.00    +0.021 A 
ATOM     16  C   LIG    1       23.563 -20.228   4.635  0.00  0.00    +0.043 A 
ATOM     17 CL   LIG    1       23.786 -18.784   3.724  0.00  0.00    -0.084 Cl
ATOM     18  C   LIG    1       23.038 -23.818   6.707  0.00  0.00    +0.012 A 
ATOM     19  C   LIG    1       24.571 -21.193   4.662  0.00  0.00    +0.048 A 
ATOM     20  C   LIG    1       24.046 -24.782   6.651  0.00  0.00    +0.028 A 
ENDBRANCH   9  10
ENDBRANCH   4   8
ENDBRANCH   1   2
BRANCH   1  21
ATOM     21  C   LIG    1       25.423 -29.255  10.736  0.00  0.00    +0.023 C 
BRANCH  21  22
ATOM     22  C   LIG    1       24.782 -29.481  12.134  0.00  0.00    +0.037 C 
BRANCH  22  24
ATOM     23  C   LIG    1       24.200 -27.133  13.418  0.00  0.00    -0.013 A 
ATOM     24  C   LIG    1       23.880 -28.351  12.720  0.00  0.00    -0.041 A 
ATOM     25  C   LIG    1       22.490 -28.623  12.547  0.00  0.00    +0.004 A 
ATOM     26  C   LIG    1       21.474 -27.724  12.893  0.00  0.00    +0.000 A 
ATOM     27  C   LIG    1       21.802 -26.480  13.374  0.00  0.00    +0.000 A 
ATOM     28  C   LIG    1       23.134 -26.201  13.617  0.00  0.00    +0.007 A 
BRANCH  23  30
ATOM     29  C   LIG    1       25.328 -25.314  14.942  0.00  0.00    +0.046 C 
ATOM     30  C   LIG    1       25.526 -26.613  14.046  0.00  0.00    +0.086 C 
ATOM     31  C   LIG    1       26.540 -26.354  12.928  0.00  0.00    +0.046 C 
BRANCH  30  32
ATOM     32  O   LIG    1       26.110 -27.559  14.944  0.00  0.00    -0.385 OA
ATOM     33  H   LIG    1       25.392 -27.837  15.544  0.00  0.00    +0.211 HD
ENDBRANCH  30  32
ENDBRANCH  23  30
ENDBRANCH  22  24
ENDBRANCH  21  22
ENDBRANCH   1  21
BRANCH   1  34
ATOM     34  S   LIG    1       23.784 -31.590   9.715  0.00  0.00    -0.152 S 
BRANCH  34  35
ATOM     35  C   LIG    1       22.110 -30.847  10.176  0.00  0.00    +0.077 C 
BRANCH  35  36
ATOM     36  C   LIG    1       21.174 -31.699  11.049  0.00  0.00    -0.010 C 
ATOM     37  C   LIG    1       21.328 -33.187  11.197  0.00  0.00    +0.009 C 
ATOM     38  C   LIG    1       21.820 -32.296  12.288  0.00  0.00    +0.009 C 
BRANCH  36  39
ATOM     39  C   LIG    1       19.701 -31.247  11.246  0.00  0.00    +0.128 C 
BRANCH  39  40
ATOM     40  C   LIG    1       18.688 -31.464  10.120  0.00  0.00    +0.305 C 
ATOM     41  O   LIG    1       18.254 -32.525   9.823  0.00  0.00    -0.251 OA
BRANCH  40  42
ATOM     42  O   LIG    1       18.338 -30.330   9.451  0.00  0.00    -0.481 OA
ATOM     43  H   LIG    1       19.065 -29.783   9.144  0.00  0.00    +0.295 HD
ENDBRANCH  40  42
ENDBRANCH  39  40
ENDBRANCH  36  39
ENDBRANCH  35  36
ENDBRANCH  34  35
ENDBRANCH   1  34
TORSDOF 14
ENDMDL
MODEL 8
REMARK VINA RESULT:      -8.3      4.935      8.526
REMARK  Name = *****
REMARK                            x       y       z     vdW  Elec       q    Type
REMARK                         _______ _______ _______ _____ _____    ______ ____
ROOT
ATOM      1  C   LIG    1       24.716 -27.466   6.498  0.00  0.00    +0.077 C 
ENDROOT
BRANCH   1   2
ATOM      2  C   LIG    1       25.130 -28.169   7.780  0.00  0.00    -0.034 A 
ATOM      3  C   LIG    1       24.243 -29.021   8.447  0.00  0.00    +0.012 A 
ATOM      4  C   LIG    1       24.656 -29.792   9.550  0.00  0.00    -0.025 A 
ATOM      5  C   LIG    1       25.970 -29.661  10.004  0.00  0.00    +0.008 A 
ATOM      6  C   LIG    1       26.848 -28.760   9.400  0.00  0.00    +0.001 A 
ATOM      7  C   LIG    1       26.432 -28.014   8.297  0.00  0.00    +0.005 A 
BRANCH   4   8
ATOM      8  C   LIG    1       23.734 -30.816  10.060  0.00  0.00    +0.010 C 
ATOM      9  C   LIG    1       22.864 -30.823  11.087  0.00  0.00    +0.028 C 
BRANCH   9  10
ATOM     10  C   LIG    1       22.488 -29.805  12.074  0.00  0.00    +0.065 A 
ATOM     11  N   LIG    1       21.191 -29.825  12.463  0.00  0.00    -0.247 NA
ATOM     12  C   LIG    1       20.732 -28.826  13.245  0.00  0.00    +0.073 A 
ATOM     13  C   LIG    1       21.536 -27.735  13.636  0.00  0.00    +0.001 A 
ATOM     14  C   LIG    1       21.009 -26.709  14.446  0.00  0.00    +0.011 A 
ATOM     15  C   LIG    1       19.694 -26.781  14.900  0.00  0.00    +0.021 A 
ATOM     16  C   LIG    1       18.907 -27.865  14.526  0.00  0.00    +0.043 A 
ATOM     17 CL   LIG    1       17.290 -27.980  15.104  0.00  0.00    -0.084 Cl
ATOM     18  C   LIG    1       22.866 -27.726  13.199  0.00  0.00    +0.012 A 
ATOM     19  C   LIG    1       19.419 -28.863  13.696  0.00  0.00    +0.048 A 
ATOM     20  C   LIG    1       23.356 -28.781  12.426  0.00  0.00    +0.028 A 
ENDBRANCH   9  10
ENDBRANCH   4   8
ENDBRANCH   1   2
BRANCH   1  21
ATOM     21  C   LIG    1       25.285 -25.999   6.280  0.00  0.00    +0.023 C 
BRANCH  21  22
ATOM     22  C   LIG    1       24.314 -24.791   6.162  0.00  0.00    +0.037 C 
BRANCH  22  24
ATOM     23  C   LIG    1       24.269 -22.083   6.564  0.00  0.00    -0.013 A 
ATOM     24  C   LIG    1       24.772 -23.420   6.748  0.00  0.00    -0.041 A 
ATOM     25  C   LIG    1       25.918 -23.545   7.587  0.00  0.00    +0.004 A 
ATOM     26  C   LIG    1       26.468 -22.482   8.314  0.00  0.00    +0.000 A 
ATOM     27  C   LIG    1       25.858 -21.252   8.286  0.00  0.00    +0.000 A 
ATOM     28  C   LIG    1       24.782 -21.073   7.437  0.00  0.00    +0.007 A 
BRANCH  23  30
ATOM     29  C   LIG    1       23.779 -21.516   4.047  0.00  0.00    +0.046 C 
ATOM     30  C   LIG    1       23.253 -21.486   5.547  0.00  0.00    +0.086 C 
ATOM     31  C   LIG    1       22.902 -20.057   5.973  0.00  0.00    +0.046 C 
BRANCH  30  32
ATOM     32  O   LIG    1       22.035 -22.230   5.494  0.00  0.00    -0.385 OA
ATOM     33  H   LIG    1       22.295 -23.161   5.357  0.00  0.00    +0.211 HD
ENDBRANCH  30  32
ENDBRANCH  23  30
ENDBRANCH  22  24
ENDBRANCH  21  22
ENDBRANCH   1  21
BRANCH   1  34
ATOM     34  S   LIG    1       24.495 -28.654   5.051  0.00  0.00    -0.152 S 
BRANCH  34  35
ATOM     35  C   LIG    1       25.793 -30.014   5.234  0.00  0.00    +0.077 C 
BRANCH  35  36
ATOM     36  C   LIG    1       25.343 -31.342   5.864  0.00  0.00    -0.010 C 
ATOM     37  C   LIG    1       26.101 -32.628   5.682  0.00  0.00    +0.009 C 
ATOM     38  C   LIG    1       26.252 -31.872   6.960  0.00  0.00    +0.009 C 
BRANCH  36  39
ATOM     39  C   LIG    1       23.829 -31.592   6.107  0.00  0.00    +0.128 C 
BRANCH  39  40
ATOM     40  C   LIG    1       23.245 -32.984   5.857  0.00  0.00    +0.305 C 
ATOM     41  O   LIG    1       23.045 -33.775   6.714  0.00  0.00    -0.251 OA
BRANCH  40  42
ATOM     42  O   LIG    1       22.992 -33.261   4.547  0.00  0.00    -0.481 OA
ATOM     43  H   LIG    1       22.112 -33.036   4.234  0.00  0.00    +0.295 HD
ENDBRANCH  40  42
ENDBRANCH  39  40
ENDBRANCH  36  39
ENDBRANCH  35  36
ENDBRANCH  34  35
ENDBRANCH   1  34
TORSDOF 14
ENDMDL
MODEL 9
REMARK VINA RESULT:      -8.2      1.817      2.511
REMARK  Name = *****
REMARK                            x       y       z     vdW  Elec       q    Type
REMARK                         _______ _______ _______ _____ _____    ______ ____
ROOT
ATOM      1  C   LIG    1       25.525 -23.312   7.275  0.00  0.00    +0.077 C 
ENDROOT
BRANCH   1   2
ATOM      2  C   LIG    1       25.300 -24.765   6.893  0.00  0.00    -0.034 A 
ATOM      3  C   LIG    1       26.125 -25.774   7.401  0.00  0.00    +0.012 A 
ATOM      4  C   LIG    1       25.843 -27.134   7.176  0.00  0.00    -0.025 A 
ATOM      5  C   LIG    1       24.738 -27.469   6.391  0.00  0.00    +0.008 A 
ATOM      6  C   LIG    1       23.947 -26.475   5.811  0.00  0.00    +0.001 A 
ATOM      7  C   LIG    1       24.227 -25.131   6.055  0.00  0.00    +0.005 A 
BRANCH   4   8
ATOM      8  C   LIG    1       26.627 -28.134   7.916  0.00  0.00    +0.010 C 
ATOM      9  C   LIG    1       26.295 -29.012   8.880  0.00  0.00    +0.028 C 
BRANCH   9  10
ATOM     10  C   LIG    1       25.025 -29.322   9.545  0.00  0.00    +0.065 A 
ATOM     11  N   LIG    1       24.987 -29.062  10.874  0.00  0.00    -0.247 NA
ATOM     12  C   LIG    1       23.914 -29.465  11.585  0.00  0.00    +0.073 A 
ATOM     13  C   LIG    1       22.849 -30.190  11.009  0.00  0.00    +0.001 A 
ATOM     14  C   LIG    1       21.753 -30.599  11.795  0.00  0.00    +0.011 A 
ATOM     15  C   LIG    1       21.692 -30.259  13.144  0.00  0.00    +0.021 A 
ATOM     16  C   LIG    1       22.736 -29.532  13.707  0.00  0.00    +0.043 A 
ATOM     17 CL   LIG    1       22.660 -29.081  15.366  0.00  0.00    -0.084 Cl
ATOM     18  C   LIG    1       22.925 -30.468   9.639  0.00  0.00    +0.012 A 
ATOM     19  C   LIG    1       23.838 -29.157  12.936  0.00  0.00    +0.048 A 
ATOM     20  C   LIG    1       24.014 -30.013   8.893  0.00  0.00    +0.028 A 
ENDBRANCH   9  10
ENDBRANCH   4   8
ENDBRANCH   1   2
BRANCH   1  21
ATOM     21  C   LIG    1       26.911 -22.671   6.837  0.00  0.00    +0.023 C 
BRANCH  21  22
ATOM     22  C   LIG    1       27.603 -21.610   7.738  0.00  0.00    +0.037 C 
BRANCH  22  24
ATOM     23  C   LIG    1       29.637 -19.830   7.298  0.00  0.00    -0.013 A 
ATOM     24  C   LIG    1       28.354 -20.432   7.044  0.00  0.00    -0.041 A 
ATOM     25  C   LIG    1       27.588 -19.846   5.993  0.00  0.00    +0.004 A 
ATOM     26  C   LIG    1       28.072 -18.840   5.147  0.00  0.00    +0.000 A 
ATOM     27  C   LIG    1       29.370 -18.413   5.273  0.00  0.00    +0.000 A 
ATOM     28  C   LIG    1       30.126 -18.910   6.319  0.00  0.00    +0.007 A 
BRANCH  23  30
ATOM     29  C   LIG    1       30.769 -21.461   9.018  0.00  0.00    +0.046 C 
ATOM     30  C   LIG    1       30.632 -19.969   8.487  0.00  0.00    +0.086 C 
ATOM     31  C   LIG    1       30.196 -19.027   9.614  0.00  0.00    +0.046 C 
BRANCH  30  32
ATOM     32  O   LIG    1       31.967 -19.614   8.124  0.00  0.00    -0.385 OA
ATOM     33  H   LIG    1       31.982 -19.589   7.148  0.00  0.00    +0.211 HD
ENDBRANCH  30  32
ENDBRANCH  23  30
ENDBRANCH  22  24
ENDBRANCH  21  22
ENDBRANCH   1  21
BRANCH   1  34
ATOM     34  S   LIG    1       23.935 -22.299   7.268  0.00  0.00    -0.152 S 
BRANCH  34  35
ATOM     35  C   LIG    1       24.334 -20.625   6.491  0.00  0.00    +0.077 C 
BRANCH  35  36
ATOM     36  C   LIG    1       23.761 -20.339   5.094  0.00  0.00    -0.010 C 
ATOM     37  C   LIG    1       24.591 -19.779   3.972  0.00  0.00    +0.009 C 
ATOM     38  C   LIG    1       24.286 -21.240   3.989  0.00  0.00    +0.009 C 
BRANCH  36  39
ATOM     39  C   LIG    1       22.262 -19.954   4.952  0.00  0.00    +0.128 C 
BRANCH  39  40
ATOM     40  C   LIG    1       21.886 -18.573   4.413  0.00  0.00    +0.305 C 
ATOM     41  O   LIG    1       22.392 -17.567   4.776  0.00  0.00    -0.251 OA
BRANCH  40  42
ATOM     42  O   LIG    1       20.888 -18.583   3.486  0.00  0.00    -0.481 OA
ATOM     43  H   LIG    1       20.011 -18.362   3.811  0.00  0.00    +0.295 HD
ENDBRANCH  40  42
ENDBRANCH  39  40
ENDBRANCH  36  39
ENDBRANCH  35  36
ENDBRANCH  34  35
ENDBRANCH   1  34
TORSDOF 14
ENDMDL
