MODEL 1
REMARK VINA RESULT:      -9.5      0.000      0.000
REMARK  Name = *****
REMARK                            x       y       z     vdW  Elec       q    Type
REMARK                         _______ _______ _______ _____ _____    ______ ____
ROOT
ATOM      1  C   LIG    1       23.513 -21.426   7.017  0.00  0.00    +0.134 C 
ATOM      2  N   LIG    1       24.921 -20.999   6.880  0.00  0.00    -0.158 NA
ATOM      3  S   LIG    1       25.975 -21.983   7.777  0.00  0.00    +0.064 S 
ATOM      4  O   LIG    1       25.977 -23.295   7.165  0.00  0.00    -0.153 OA
ATOM      5  O   LIG    1       25.658 -21.810   9.179  0.00  0.00    -0.153 OA
ATOM      6  C   LIG    1       27.544 -21.263   7.480  0.00  0.00    +0.128 A 
ATOM      7  C   LIG    1       27.703 -20.446   6.365  0.00  0.00    +0.057 A 
ATOM      8  C   LIG    1       28.957 -19.843   6.192  0.00  0.00    +0.047 A 
ATOM      9  C   LIG    1       30.026 -20.095   7.068  0.00  0.00    +0.069 A 
ATOM     10  C   LIG    1       29.839 -20.942   8.160  0.00  0.00    +0.125 A 
ATOM     11 CL   LIG    1       31.523 -19.307   6.719  0.00  0.00    -0.082 Cl
ATOM     12  N   LIG    1       26.656 -20.084   5.527  0.00  0.00    -0.325 N 
ATOM     13  H   LIG    1       26.959 -19.805   4.593  0.00  0.00    +0.148 HD
ATOM     14  C   LIG    1       28.588 -21.525   8.377  0.00  0.00    +0.060 A 
ATOM     15  C   LIG    1       25.412 -20.854   5.495  0.00  0.00    +0.177 C 
ENDROOT
BRANCH  10  16
ATOM     16  S   LIG    1       31.173 -21.266   9.265  0.00  0.00    +0.057 S 
ATOM     17  O   LIG    1       30.670 -22.007  10.397  0.00  0.00    -0.153 OA
ATOM     18  O   LIG    1       31.975 -20.072   9.382  0.00  0.00    -0.153 OA
BRANCH  16  19
ATOM     19  N   LIG    1       32.154 -22.359   8.442  0.00  0.00    -0.203 NA
ATOM     20  H   LIG    1       32.952 -22.605   9.032  0.00  0.00    +0.144 HD
ATOM     21  H   LIG    1       32.428 -21.956   7.544  0.00  0.00    +0.144 HD
ENDBRANCH  16  19
ENDBRANCH  10  16
BRANCH  15  22
ATOM     22  C   LIG    1       24.408 -20.099   4.589  0.00  0.00    +0.148 C 
ATOM     23 CL   LIG    1       25.234 -18.879   3.570  0.00  0.00    -0.122 Cl
ENDBRANCH  15  22
TORSDOF 3
ENDMDL
MODEL 2
REMARK VINA RESULT:      -6.6      3.178      3.662
REMARK  Name = *****
REMARK                            x       y       z     vdW  Elec       q    Type
REMARK                         _______ _______ _______ _____ _____    ______ ____
ROOT
ATOM      1  C   LIG    1       23.396 -22.287   4.539  0.00  0.00    +0.134 C 
ATOM      2  N   LIG    1       24.638 -22.243   5.340  0.00  0.00    -0.158 NA
ATOM      3  S   LIG    1       25.294 -20.679   5.413  0.00  0.00    +0.064 S 
ATOM      4  O   LIG    1       24.386 -19.857   6.185  0.00  0.00    -0.153 OA
ATOM      5  O   LIG    1       25.689 -20.302   4.072  0.00  0.00    -0.153 OA
ATOM      6  C   LIG    1       26.746 -20.897   6.368  0.00  0.00    +0.128 A 
ATOM      7  C   LIG    1       26.846 -22.024   7.179  0.00  0.00    +0.057 A 
ATOM      8  C   LIG    1       28.046 -22.193   7.885  0.00  0.00    +0.047 A 
ATOM      9  C   LIG    1       29.079 -21.243   7.827  0.00  0.00    +0.069 A 
ATOM     10  C   LIG    1       28.932 -20.112   7.025  0.00  0.00    +0.125 A 
ATOM     11 CL   LIG    1       30.490 -21.566   8.771  0.00  0.00    -0.082 Cl
ATOM     12  N   LIG    1       25.901 -23.042   7.196  0.00  0.00    -0.325 N 
ATOM     13  H   LIG    1       25.909 -23.592   8.056  0.00  0.00    +0.148 HD
ATOM     14  C   LIG    1       27.762 -19.938   6.282  0.00  0.00    +0.060 A 
ATOM     15  C   LIG    1       24.544 -22.822   6.695  0.00  0.00    +0.177 C 
ENDROOT
BRANCH  10  16
ATOM     16  S   LIG    1       30.222 -18.913   6.946  0.00  0.00    +0.057 S 
ATOM     17  O   LIG    1       31.470 -19.590   6.687  0.00  0.00    -0.153 OA
ATOM     18  O   LIG    1       30.034 -17.961   8.013  0.00  0.00    -0.153 OA
BRANCH  16  19
ATOM     19  N   LIG    1       29.910 -18.043   5.538  0.00  0.00    -0.203 NA
ATOM     20  H   LIG    1       30.383 -17.138   5.591  0.00  0.00    +0.144 HD
ATOM     21  H   LIG    1       28.899 -17.961   5.411  0.00  0.00    +0.144 HD
ENDBRANCH  16  19
ENDBRANCH  10  16
BRANCH  15  22
ATOM     22  C   LIG    1       23.805 -24.182   6.706  0.00  0.00    +0.148 C 
ATOM     23 CL   LIG    1       24.947 -25.550   6.507  0.00  0.00    -0.122 Cl
ENDBRANCH  15  22
TORSDOF 3
ENDMDL
