MODEL 1
REMARK VINA RESULT:       3.1      0.000      0.000
REMARK  Name = *****
REMARK                            x       y       z     vdW  Elec       q    Type
REMARK                         _______ _______ _______ _____ _____    ______ ____
ROOT
ATOM      1  C   LIG    1       26.768 -13.267   3.437  0.00  0.00    +0.132 C 
ATOM      2  C   LIG    1       26.399 -14.548   4.257  0.00  0.00    +0.014 C 
ATOM      3  C   LIG    1       24.829 -14.527   4.271  0.00  0.00    +0.002 C 
ATOM      4  C   LIG    1       24.066 -15.489   3.317  0.00  0.00    -0.003 C 
ATOM      5  C   LIG    1       24.767 -16.852   3.115  0.00  0.00    -0.000 C 
ATOM      6  C   LIG    1       26.181 -16.568   2.606  0.00  0.00    +0.005 C 
ATOM      7  C   LIG    1       24.673 -17.733   4.392  0.00  0.00    +0.019 C 
ATOM      8  C   LIG    1       23.203 -17.902   4.741  0.00  0.00    -0.064 C 
ATOM      9  C   LIG    1       22.560 -19.082   4.763  0.00  0.00    +0.026 C 
ATOM     10  C   LIG    1       23.255 -20.329   4.331  0.00  0.00    +0.080 C 
ATOM     11  C   LIG    1       24.571 -20.151   3.603  0.00  0.00    +0.059 C 
ATOM     12  N   LIG    1       22.810 -21.540   4.479  0.00  0.00    -0.092 NA
ATOM     13  C   LIG    1       22.477 -16.610   5.006  0.00  0.00    +0.031 C 
ATOM     14  C   LIG    1       25.400 -19.088   4.306  0.00  0.00    +0.014 C 
ATOM     15  C   LIG    1       22.604 -15.691   3.787  0.00  0.00    +0.008 C 
ATOM     16  C   LIG    1       24.413 -13.062   3.977  0.00  0.00    +0.008 C 
ATOM     17  C   LIG    1       27.028 -15.835   3.634  0.00  0.00    +0.011 C 
ATOM     18  C   LIG    1       25.686 -12.245   3.790  0.00  0.00    +0.049 C 
ENDROOT
BRANCH   1  20
ATOM     19  C   LIG    1       29.216 -12.315   3.939  0.00  0.00    +0.007 C 
ATOM     20  C   LIG    1       28.113 -12.741   3.714  0.00  0.00    -0.070 C 
ENDBRANCH   1  20
BRANCH   1  21
ATOM     21  O   LIG    1       26.696 -13.520   2.033  0.00  0.00    -0.376 OA
ATOM     22  H   LIG    1       25.954 -13.016   1.665  0.00  0.00    +0.211 HD
ENDBRANCH   1  21
BRANCH  12  23
ATOM     23  O   LIG    1       21.586 -21.571   5.158  0.00  0.00    -0.409 OA
ATOM     24  H   LIG    1       20.982 -21.157   4.513  0.00  0.00    +0.328 HD
ENDBRANCH  12  23
BRANCH   2  25
ATOM     25  C   LIG    1       26.925 -14.529   5.747  0.00  0.00    +0.007 C 
ATOM     26  C   LIG    1       26.532 -13.383   6.670  0.00  0.00    +0.004 C 
ENDBRANCH   2  25
TORSDOF 4
ENDMDL
