MODEL 1
REMARK VINA RESULT:      -3.3      0.000      0.000
REMARK  Name = *****
REMARK                            x       y       z     vdW  Elec       q    Type
REMARK                         _______ _______ _______ _____ _____    ______ ____
ROOT
ATOM      1  C   LIG    1       23.943 -17.228   3.967  0.00  0.00    +0.099 A 
ATOM      2  C   LIG    1       25.063 -18.090   3.852  0.00  0.00    +0.047 A 
ATOM      3  C   LIG    1       26.292 -17.517   3.487  0.00  0.00    +0.014 A 
ATOM      4  C   LIG    1       26.439 -16.137   3.312  0.00  0.00    +0.013 A 
ATOM      5  C   LIG    1       25.347 -15.280   3.451  0.00  0.00    +0.057 A 
ATOM      6  C   LIG    1       24.103 -15.837   3.768  0.00  0.00    +0.040 A 
ENDROOT
BRANCH   1   8
ATOM      7  C   LIG    1       21.314 -18.272   3.317  0.00  0.00    +0.200 C 
ATOM      8  S   LIG    1       22.357 -17.724   4.632  0.00  0.00    -0.005 S 
ATOM      9  O   LIG    1       22.629 -18.821   5.535  0.00  0.00    -0.170 OA
ATOM     10  O   LIG    1       21.734 -16.522   5.149  0.00  0.00    -0.170 OA
ENDBRANCH   1   8
BRANCH   5  11
ATOM     11  C   LIG    1       25.524 -13.787   3.287  0.00  0.00    +0.417 C 
ATOM     12  F   LIG    1       25.833 -13.172   4.461  0.00  0.00    -0.166 F 
ATOM     13  F   LIG    1       24.392 -13.184   2.831  0.00  0.00    -0.166 F 
ATOM     14  F   LIG    1       26.511 -13.447   2.414  0.00  0.00    -0.166 F 
ENDBRANCH   5  11
BRANCH   2  15
ATOM     15  C   LIG    1       24.988 -19.585   3.926  0.00  0.00    +0.200 C 
ATOM     16  O   LIG    1       24.784 -20.146   2.861  0.00  0.00    -0.286 OA
BRANCH  15  17
ATOM     17  C   LIG    1       25.290 -20.322   5.160  0.00  0.00    +0.084 A 
ATOM     18  C   LIG    1       26.507 -20.525   5.818  0.00  0.00    +0.151 A 
ATOM     19  O   LIG    1       26.279 -21.268   6.946  0.00  0.00    -0.359 OA
ATOM     20  N   LIG    1       24.947 -21.572   7.062  0.00  0.00    -0.086 NA
ATOM     21  C   LIG    1       24.378 -21.035   5.988  0.00  0.00    +0.168 A 
BRANCH  18  22
ATOM     22  C   LIG    1       27.946 -20.074   5.563  0.00  0.00    +0.059 C 
ATOM     23  C   LIG    1       28.707 -19.175   6.498  0.00  0.00    +0.012 C 
ATOM     24  C   LIG    1       29.073 -20.622   6.401  0.00  0.00    +0.012 C 
ENDBRANCH  18  22
ENDBRANCH  15  17
ENDBRANCH   2  15
TORSDOF 5
ENDMDL
MODEL 2
REMARK VINA RESULT:      -3.1      0.958      1.432
REMARK  Name = *****
REMARK                            x       y       z     vdW  Elec       q    Type
REMARK                         _______ _______ _______ _____ _____    ______ ____
ROOT
ATOM      1  C   LIG    1       23.932 -17.234   3.954  0.00  0.00    +0.099 A 
ATOM      2  C   LIG    1       24.921 -18.230   3.760  0.00  0.00    +0.047 A 
ATOM      3  C   LIG    1       26.203 -17.810   3.371  0.00  0.00    +0.014 A 
ATOM      4  C   LIG    1       26.530 -16.455   3.249  0.00  0.00    +0.013 A 
ATOM      5  C   LIG    1       25.567 -15.467   3.467  0.00  0.00    +0.057 A 
ATOM      6  C   LIG    1       24.271 -15.869   3.808  0.00  0.00    +0.040 A 
ENDROOT
BRANCH   1   8
ATOM      7  C   LIG    1       21.251 -18.207   3.417  0.00  0.00    +0.200 C 
ATOM      8  S   LIG    1       22.316 -17.545   4.659  0.00  0.00    -0.005 S 
ATOM      9  O   LIG    1       22.520 -18.522   5.706  0.00  0.00    -0.170 OA
ATOM     10  O   LIG    1       21.760 -16.251   5.000  0.00  0.00    -0.170 OA
ENDBRANCH   1   8
BRANCH   5  11
ATOM     11  C   LIG    1       25.939 -14.005   3.359  0.00  0.00    +0.417 C 
ATOM     12  F   LIG    1       26.029 -13.591   2.066  0.00  0.00    -0.166 F 
ATOM     13  F   LIG    1       27.148 -13.743   3.925  0.00  0.00    -0.166 F 
ATOM     14  F   LIG    1       25.050 -13.170   3.960  0.00  0.00    -0.166 F 
ENDBRANCH   5  11
BRANCH   2  15
ATOM     15  C   LIG    1       24.648 -19.705   3.774  0.00  0.00    +0.200 C 
ATOM     16  O   LIG    1       24.914 -20.289   2.736  0.00  0.00    -0.286 OA
BRANCH  15  17
ATOM     17  C   LIG    1       24.238 -20.411   4.994  0.00  0.00    +0.084 A 
ATOM     18  C   LIG    1       24.942 -20.662   6.175  0.00  0.00    +0.151 A 
ATOM     19  O   LIG    1       24.126 -21.347   7.037  0.00  0.00    -0.359 OA
ATOM     20  N   LIG    1       22.898 -21.565   6.468  0.00  0.00    -0.086 NA
ATOM     21  C   LIG    1       22.984 -21.035   5.252  0.00  0.00    +0.168 A 
BRANCH  18  22
ATOM     22  C   LIG    1       26.342 -20.311   6.677  0.00  0.00    +0.059 C 
ATOM     23  C   LIG    1       27.490 -21.282   6.669  0.00  0.00    +0.012 C 
ATOM     24  C   LIG    1       27.480 -20.142   5.701  0.00  0.00    +0.012 C 
ENDBRANCH  18  22
ENDBRANCH  15  17
ENDBRANCH   2  15
TORSDOF 5
ENDMDL
MODEL 3
REMARK VINA RESULT:      -2.7      1.024      2.164
REMARK  Name = *****
REMARK                            x       y       z     vdW  Elec       q    Type
REMARK                         _______ _______ _______ _____ _____    ______ ____
ROOT
ATOM      1  C   LIG    1       23.976 -17.029   3.943  0.00  0.00    +0.099 A 
ATOM      2  C   LIG    1       25.158 -17.806   3.858  0.00  0.00    +0.047 A 
ATOM      3  C   LIG    1       26.341 -17.154   3.471  0.00  0.00    +0.014 A 
ATOM      4  C   LIG    1       26.383 -15.774   3.249  0.00  0.00    +0.013 A 
ATOM      5  C   LIG    1       25.227 -14.998   3.358  0.00  0.00    +0.057 A 
ATOM      6  C   LIG    1       24.029 -15.638   3.695  0.00  0.00    +0.040 A 
ENDROOT
BRANCH   1   8
ATOM      7  C   LIG    1       21.471 -18.368   3.346  0.00  0.00    +0.200 C 
ATOM      8  S   LIG    1       22.431 -17.622   4.626  0.00  0.00    -0.005 S 
ATOM      9  O   LIG    1       22.787 -18.613   5.616  0.00  0.00    -0.170 OA
ATOM     10  O   LIG    1       21.687 -16.448   5.038  0.00  0.00    -0.170 OA
ENDBRANCH   1   8
BRANCH   5  11
ATOM     11  C   LIG    1       25.291 -13.502   3.142  0.00  0.00    +0.417 C 
ATOM     12  F   LIG    1       24.851 -12.806   4.224  0.00  0.00    -0.166 F 
ATOM     13  F   LIG    1       24.516 -13.104   2.096  0.00  0.00    -0.166 F 
ATOM     14  F   LIG    1       26.544 -13.041   2.882  0.00  0.00    -0.166 F 
ENDBRANCH   5  11
BRANCH   2  15
ATOM     15  C   LIG    1       25.198 -19.299   3.984  0.00  0.00    +0.200 C 
ATOM     16  O   LIG    1       24.592 -19.908   3.117  0.00  0.00    -0.286 OA
BRANCH  15  17
ATOM     17  C   LIG    1       26.030 -19.976   4.986  0.00  0.00    +0.084 A 
ATOM     18  C   LIG    1       25.684 -20.898   5.978  0.00  0.00    +0.151 A 
ATOM     19  O   LIG    1       26.816 -21.259   6.660  0.00  0.00    -0.359 OA
ATOM     20  N   LIG    1       27.911 -20.604   6.156  0.00  0.00    -0.086 NA
ATOM     21  C   LIG    1       27.432 -19.827   5.190  0.00  0.00    +0.168 A 
BRANCH  18  22
ATOM     22  C   LIG    1       24.377 -21.571   6.399  0.00  0.00    +0.059 C 
ATOM     23  C   LIG    1       23.245 -20.834   7.060  0.00  0.00    +0.012 C 
ATOM     24  C   LIG    1       23.101 -21.293   5.645  0.00  0.00    +0.012 C 
ENDBRANCH  18  22
ENDBRANCH  15  17
ENDBRANCH   2  15
TORSDOF 5
ENDMDL
MODEL 4
REMARK VINA RESULT:      -2.2      2.321      4.380
REMARK  Name = *****
REMARK                            x       y       z     vdW  Elec       q    Type
REMARK                         _______ _______ _______ _____ _____    ______ ____
ROOT
ATOM      1  C   LIG    1       27.505 -17.977   4.841  0.00  0.00    +0.099 A 
ATOM      2  C   LIG    1       26.409 -18.599   4.194  0.00  0.00    +0.047 A 
ATOM      3  C   LIG    1       25.625 -17.812   3.335  0.00  0.00    +0.014 A 
ATOM      4  C   LIG    1       25.947 -16.479   3.058  0.00  0.00    +0.013 A 
ATOM      5  C   LIG    1       27.042 -15.867   3.671  0.00  0.00    +0.057 A 
ATOM      6  C   LIG    1       27.807 -16.622   4.567  0.00  0.00    +0.040 A 
ENDROOT
BRANCH   1   8
ATOM      7  C   LIG    1       27.950 -19.867   6.998  0.00  0.00    +0.200 C 
ATOM      8  S   LIG    1       28.744 -18.855   5.790  0.00  0.00    -0.005 S 
ATOM      9  O   LIG    1       29.457 -19.684   4.843  0.00  0.00    -0.170 OA
ATOM     10  O   LIG    1       29.475 -17.852   6.540  0.00  0.00    -0.170 OA
ENDBRANCH   1   8
BRANCH   5  11
ATOM     11  C   LIG    1       27.396 -14.434   3.343  0.00  0.00    +0.417 C 
ATOM     12  F   LIG    1       28.694 -14.145   3.628  0.00  0.00    -0.166 F 
ATOM     13  F   LIG    1       26.647 -13.548   4.054  0.00  0.00    -0.166 F 
ATOM     14  F   LIG    1       27.218 -14.113   2.033  0.00  0.00    -0.166 F 
ENDBRANCH   5  11
BRANCH   2  15
ATOM     15  C   LIG    1       25.929 -19.988   4.494  0.00  0.00    +0.200 C 
ATOM     16  O   LIG    1       26.680 -20.882   4.139  0.00  0.00    -0.286 OA
BRANCH  15  17
ATOM     17  C   LIG    1       24.723 -20.241   5.291  0.00  0.00    +0.084 A 
ATOM     18  C   LIG    1       23.417 -19.769   5.132  0.00  0.00    +0.151 A 
ATOM     19  O   LIG    1       22.633 -20.300   6.122  0.00  0.00    -0.359 OA
ATOM     20  N   LIG    1       23.375 -21.111   6.942  0.00  0.00    -0.086 NA
ATOM     21  C   LIG    1       24.612 -21.045   6.461  0.00  0.00    +0.168 A 
BRANCH  18  22
ATOM     22  C   LIG    1       22.727 -18.864   4.111  0.00  0.00    +0.059 C 
ATOM     23  C   LIG    1       21.254 -18.563   4.137  0.00  0.00    +0.012 C 
ATOM     24  C   LIG    1       22.233 -17.499   4.516  0.00  0.00    +0.012 C 
ENDBRANCH  18  22
ENDBRANCH  15  17
ENDBRANCH   2  15
TORSDOF 5
ENDMDL
MODEL 5
REMARK VINA RESULT:      -1.3      2.751      3.918
REMARK  Name = *****
REMARK                            x       y       z     vdW  Elec       q    Type
REMARK                         _______ _______ _______ _____ _____    ______ ____
ROOT
ATOM      1  C   LIG    1       25.579 -15.119   4.006  0.00  0.00    +0.099 A 
ATOM      2  C   LIG    1       24.621 -16.160   3.919  0.00  0.00    +0.047 A 
ATOM      3  C   LIG    1       23.310 -15.876   4.334  0.00  0.00    +0.014 A 
ATOM      4  C   LIG    1       22.929 -14.596   4.750  0.00  0.00    +0.013 A 
ATOM      5  C   LIG    1       23.862 -13.559   4.811  0.00  0.00    +0.057 A 
ATOM      6  C   LIG    1       25.184 -13.835   4.447  0.00  0.00    +0.040 A 
ENDROOT
BRANCH   1   8
ATOM      7  C   LIG    1       28.231 -13.939   4.025  0.00  0.00    +0.200 C 
ATOM      8  S   LIG    1       27.232 -15.214   3.324  0.00  0.00    -0.005 S 
ATOM      9  O   LIG    1       27.746 -16.511   3.707  0.00  0.00    -0.170 OA
ATOM     10  O   LIG    1       27.115 -14.889   1.916  0.00  0.00    -0.170 OA
ENDBRANCH   1   8
BRANCH   5  11
ATOM     11  C   LIG    1       23.432 -12.172   5.236  0.00  0.00    +0.417 C 
ATOM     12  F   LIG    1       22.933 -11.447   4.200  0.00  0.00    -0.166 F 
ATOM     13  F   LIG    1       24.469 -11.448   5.739  0.00  0.00    -0.166 F 
ATOM     14  F   LIG    1       22.468 -12.170   6.196  0.00  0.00    -0.166 F 
ENDBRANCH   5  11
BRANCH   2  15
ATOM     15  C   LIG    1       24.949 -17.582   3.577  0.00  0.00    +0.200 C 
ATOM     16  O   LIG    1       25.975 -17.736   2.935  0.00  0.00    -0.286 OA
BRANCH  15  17
ATOM     17  C   LIG    1       24.174 -18.710   4.109  0.00  0.00    +0.084 A 
ATOM     18  C   LIG    1       24.602 -19.912   4.682  0.00  0.00    +0.151 A 
ATOM     19  O   LIG    1       23.501 -20.644   5.043  0.00  0.00    -0.359 OA
ATOM     20  N   LIG    1       22.350 -19.971   4.725  0.00  0.00    -0.086 NA
ATOM     21  C   LIG    1       22.758 -18.846   4.148  0.00  0.00    +0.168 A 
BRANCH  18  22
ATOM     22  C   LIG    1       25.970 -20.514   5.002  0.00  0.00    +0.059 C 
ATOM     23  C   LIG    1       27.185 -19.683   5.312  0.00  0.00    +0.012 C 
ATOM     24  C   LIG    1       26.517 -20.453   6.406  0.00  0.00    +0.012 C 
ENDBRANCH  18  22
ENDBRANCH  15  17
ENDBRANCH   2  15
TORSDOF 5
ENDMDL
MODEL 6
REMARK VINA RESULT:      -0.9      1.368      1.740
REMARK  Name = *****
REMARK                            x       y       z     vdW  Elec       q    Type
REMARK                         _______ _______ _______ _____ _____    ______ ____
ROOT
ATOM      1  C   LIG    1       24.515 -16.403   3.838  0.00  0.00    +0.099 A 
ATOM      2  C   LIG    1       25.234 -17.624   3.857  0.00  0.00    +0.047 A 
ATOM      3  C   LIG    1       26.632 -17.561   3.738  0.00  0.00    +0.014 A 
ATOM      4  C   LIG    1       27.312 -16.340   3.678  0.00  0.00    +0.013 A 
ATOM      5  C   LIG    1       26.612 -15.132   3.687  0.00  0.00    +0.057 A 
ATOM      6  C   LIG    1       25.215 -15.177   3.757  0.00  0.00    +0.040 A 
ENDROOT
BRANCH   1   8
ATOM      7  C   LIG    1       22.553 -15.687   5.854  0.00  0.00    +0.200 C 
ATOM      8  S   LIG    1       22.767 -16.259   4.198  0.00  0.00    -0.005 S 
ATOM      9  O   LIG    1       22.249 -15.281   3.267  0.00  0.00    -0.170 OA
ATOM     10  O   LIG    1       22.231 -17.606   4.178  0.00  0.00    -0.170 OA
ENDBRANCH   1   8
BRANCH   5  11
ATOM     11  C   LIG    1       27.360 -13.818   3.649  0.00  0.00    +0.417 C 
ATOM     12  F   LIG    1       27.243 -13.125   4.814  0.00  0.00    -0.166 F 
ATOM     13  F   LIG    1       26.895 -12.994   2.671  0.00  0.00    -0.166 F 
ATOM     14  F   LIG    1       28.694 -13.956   3.425  0.00  0.00    -0.166 F 
ENDBRANCH   5  11
BRANCH   2  15
ATOM     15  C   LIG    1       24.595 -18.980   3.823  0.00  0.00    +0.200 C 
ATOM     16  O   LIG    1       24.230 -19.352   2.720  0.00  0.00    -0.286 OA
BRANCH  15  17
ATOM     17  C   LIG    1       24.553 -19.853   5.003  0.00  0.00    +0.084 A 
ATOM     18  C   LIG    1       25.590 -20.346   5.802  0.00  0.00    +0.151 A 
ATOM     19  O   LIG    1       25.050 -21.111   6.802  0.00  0.00    -0.359 OA
ATOM     20  N   LIG    1       23.683 -21.148   6.695  0.00  0.00    -0.086 NA
ATOM     21  C   LIG    1       23.403 -20.428   5.614  0.00  0.00    +0.168 A 
BRANCH  18  22
ATOM     22  C   LIG    1       27.109 -20.177   5.801  0.00  0.00    +0.059 C 
ATOM     23  C   LIG    1       27.895 -19.769   7.017  0.00  0.00    +0.012 C 
ATOM     24  C   LIG    1       27.985 -21.175   6.516  0.00  0.00    +0.012 C 
ENDBRANCH  18  22
ENDBRANCH  15  17
ENDBRANCH   2  15
TORSDOF 5
ENDMDL
