MODEL 1
REMARK VINA RESULT:     -10.6      0.000      0.000
REMARK  Name = *****
REMARK                            x       y       z     vdW  Elec       q    Type
REMARK                         _______ _______ _______ _____ _____    ______ ____
ROOT
ATOM      1  C   LIG    1       25.275 -23.987   7.225  0.00  0.00    +0.042 C 
ENDROOT
BRANCH   1   2
ATOM      2  C   LIG    1       24.254 -24.881   6.481  0.00  0.00    +0.087 C 
BRANCH   2   6
ATOM      3  C   LIG    1       25.362 -29.141   6.491  0.00  0.00    +0.093 C 
ATOM      4  C   LIG    1       24.231 -28.551   5.633  0.00  0.00    +0.044 C 
ATOM      5  C   LIG    1       24.401 -27.062   5.286  0.00  0.00    +0.059 C 
ATOM      6  N   LIG    1       24.485 -26.351   6.575  0.00  0.00    -0.296 NA
ATOM      7  C   LIG    1       25.882 -26.652   6.989  0.00  0.00    +0.059 C 
ATOM      8  C   LIG    1       26.700 -26.441   5.710  0.00  0.00    +0.020 C 
ATOM      9  C   LIG    1       25.715 -26.734   4.579  0.00  0.00    +0.020 C 
ATOM     10  C   LIG    1       25.974 -28.119   7.478  0.00  0.00    +0.044 C 
BRANCH   3  13
ATOM     11  C   LIG    1       25.377 -31.928   5.034  0.00  0.00    +0.088 C 
ATOM     12  C   LIG    1       25.100 -31.671   6.466  0.00  0.00    +0.131 A 
ATOM     13  N   LIG    1       25.014 -30.436   7.094  0.00  0.00    -0.312 N 
ATOM     14  C   LIG    1       24.505 -30.724   8.353  0.00  0.00    +0.136 A 
ATOM     15  N   LIG    1       24.461 -32.034   8.500  0.00  0.00    -0.134 NA
ATOM     16  N   LIG    1       24.833 -32.620   7.333  0.00  0.00    -0.135 NA
BRANCH  14  17
ATOM     17  C   LIG    1       24.018 -29.769   9.406  0.00  0.00    +0.051 C 
ATOM     18  C   LIG    1       25.073 -29.602  10.513  0.00  0.00    +0.015 C 
ATOM     19  C   LIG    1       22.731 -30.280  10.060  0.00  0.00    +0.015 C 
ENDBRANCH  14  17
ENDBRANCH   3  13
ENDBRANCH   2   6
ENDBRANCH   1   2
BRANCH   1  20
ATOM     20  C   LIG    1       25.767 -22.776   6.383  0.00  0.00    +0.104 C 
BRANCH  20  21
ATOM     21  C   LIG    1       24.642 -21.823   5.967  0.00  0.00    -0.027 A 
ATOM     22  C   LIG    1       23.868 -21.117   6.906  0.00  0.00    +0.005 A 
ATOM     23  C   LIG    1       22.904 -20.189   6.494  0.00  0.00    +0.000 A 
ATOM     24  C   LIG    1       22.707 -19.935   5.138  0.00  0.00    +0.000 A 
ATOM     25  C   LIG    1       23.437 -20.652   4.194  0.00  0.00    +0.000 A 
ATOM     26  C   LIG    1       24.376 -21.605   4.604  0.00  0.00    +0.005 A 
ENDBRANCH  20  21
BRANCH  20  27
ATOM     27  N   LIG    1       26.779 -22.018   7.142  0.00  0.00    -0.308 N 
ATOM     28  H   LIG    1       26.896 -22.302   8.096  0.00  0.00    +0.149 HD
ATOM     29  C   LIG    1       27.433 -20.901   6.657  0.00  0.00    +0.217 C 
ATOM     30  O   LIG    1       27.194 -20.444   5.554  0.00  0.00    -0.276 OA
BRANCH  29  31
ATOM     31  C   LIG    1       28.491 -20.222   7.579  0.00  0.00    +0.075 C 
ATOM     32  C   LIG    1       29.484 -21.163   8.289  0.00  0.00    +0.018 C 
ATOM     33  C   LIG    1       30.923 -20.661   8.338  0.00  0.00    +0.076 C 
ATOM     34  C   LIG    1       30.980 -19.188   8.658  0.00  0.00    +0.249 C 
ATOM     35  F   LIG    1       30.419 -18.986   9.879  0.00  0.00    -0.206 F 
ATOM     36  F   LIG    1       32.274 -18.798   8.762  0.00  0.00    -0.206 F 
ATOM     37  C   LIG    1       30.263 -18.336   7.624  0.00  0.00    +0.076 C 
ATOM     38  C   LIG    1       29.221 -19.108   6.799  0.00  0.00    +0.018 C 
ENDBRANCH  29  31
ENDBRANCH  20  27
ENDBRANCH   1  20
TORSDOF 8
ENDMDL
MODEL 2
REMARK VINA RESULT:     -10.5      0.652      1.931
REMARK  Name = *****
REMARK                            x       y       z     vdW  Elec       q    Type
REMARK                         _______ _______ _______ _____ _____    ______ ____
ROOT
ATOM      1  C   LIG    1       25.314 -23.796   7.009  0.00  0.00    +0.042 C 
ENDROOT
BRANCH   1   2
ATOM      2  C   LIG    1       24.474 -24.768   6.146  0.00  0.00    +0.087 C 
BRANCH   2   6
ATOM      3  C   LIG    1       25.210 -29.036   6.935  0.00  0.00    +0.093 C 
ATOM      4  C   LIG    1       24.133 -28.515   5.969  0.00  0.00    +0.044 C 
ATOM      5  C   LIG    1       24.430 -27.132   5.364  0.00  0.00    +0.059 C 
ATOM      6  N   LIG    1       24.578 -26.212   6.506  0.00  0.00    -0.296 NA
ATOM      7  C   LIG    1       25.944 -26.552   6.987  0.00  0.00    +0.059 C 
ATOM      8  C   LIG    1       26.776 -26.644   5.702  0.00  0.00    +0.020 C 
ATOM      9  C   LIG    1       25.768 -27.050   4.628  0.00  0.00    +0.020 C 
ATOM     10  C   LIG    1       25.909 -27.909   7.732  0.00  0.00    +0.044 C 
BRANCH   3  13
ATOM     11  C   LIG    1       25.624 -29.368  10.034  0.00  0.00    +0.088 C 
ATOM     12  C   LIG    1       24.868 -30.268   9.134  0.00  0.00    +0.131 A 
ATOM     13  N   LIG    1       24.751 -30.167   7.754  0.00  0.00    -0.312 N 
ATOM     14  C   LIG    1       24.158 -31.363   7.370  0.00  0.00    +0.136 A 
ATOM     15  N   LIG    1       23.807 -32.026   8.455  0.00  0.00    -0.134 NA
ATOM     16  N   LIG    1       24.244 -31.347   9.546  0.00  0.00    -0.135 NA
BRANCH  14  17
ATOM     17  C   LIG    1       23.959 -31.905   5.983  0.00  0.00    +0.051 C 
ATOM     18  C   LIG    1       23.114 -33.190   6.022  0.00  0.00    +0.015 C 
ATOM     19  C   LIG    1       25.300 -32.247   5.328  0.00  0.00    +0.015 C 
ENDBRANCH  14  17
ENDBRANCH   3  13
ENDBRANCH   2   6
ENDBRANCH   1   2
BRANCH   1  20
ATOM     20  C   LIG    1       25.794 -22.536   6.233  0.00  0.00    +0.104 C 
BRANCH  20  21
ATOM     21  C   LIG    1       24.657 -21.583   5.851  0.00  0.00    -0.027 A 
ATOM     22  C   LIG    1       23.840 -20.963   6.813  0.00  0.00    +0.005 A 
ATOM     23  C   LIG    1       22.865 -20.031   6.437  0.00  0.00    +0.000 A 
ATOM     24  C   LIG    1       22.700 -19.688   5.097  0.00  0.00    +0.000 A 
ATOM     25  C   LIG    1       23.474 -20.320   4.128  0.00  0.00    +0.000 A 
ATOM     26  C   LIG    1       24.425 -21.277   4.499  0.00  0.00    +0.005 A 
ENDBRANCH  20  21
BRANCH  20  27
ATOM     27  N   LIG    1       26.785 -21.800   7.040  0.00  0.00    -0.308 N 
ATOM     28  H   LIG    1       26.805 -22.041   8.012  0.00  0.00    +0.149 HD
ATOM     29  C   LIG    1       27.543 -20.748   6.562  0.00  0.00    +0.217 C 
ATOM     30  O   LIG    1       27.425 -20.335   5.422  0.00  0.00    -0.276 OA
BRANCH  29  31
ATOM     31  C   LIG    1       28.561 -20.085   7.539  0.00  0.00    +0.075 C 
ATOM     32  C   LIG    1       29.499 -21.040   8.302  0.00  0.00    +0.018 C 
ATOM     33  C   LIG    1       30.941 -20.561   8.429  0.00  0.00    +0.076 C 
ATOM     34  C   LIG    1       31.005 -19.089   8.749  0.00  0.00    +0.249 C 
ATOM     35  F   LIG    1       30.382 -18.875   9.938  0.00  0.00    -0.206 F 
ATOM     36  F   LIG    1       32.298 -18.720   8.922  0.00  0.00    -0.206 F 
ATOM     37  C   LIG    1       30.359 -18.228   7.677  0.00  0.00    +0.076 C 
ATOM     38  C   LIG    1       29.350 -18.984   6.798  0.00  0.00    +0.018 C 
ENDBRANCH  29  31
ENDBRANCH  20  27
ENDBRANCH   1  20
TORSDOF 8
ENDMDL
MODEL 3
REMARK VINA RESULT:      -9.4      3.580      9.343
REMARK  Name = *****
REMARK                            x       y       z     vdW  Elec       q    Type
REMARK                         _______ _______ _______ _____ _____    ______ ____
ROOT
ATOM      1  C   LIG    1       25.292 -29.205   5.414  0.00  0.00    +0.042 C 
ENDROOT
BRANCH   1   2
ATOM      2  C   LIG    1       24.095 -28.252   5.649  0.00  0.00    +0.087 C 
BRANCH   2   6
ATOM      3  C   LIG    1       25.530 -24.135   6.255  0.00  0.00    +0.093 C 
ATOM      4  C   LIG    1       25.615 -25.239   7.321  0.00  0.00    +0.044 C 
ATOM      5  C   LIG    1       25.665 -26.670   6.760  0.00  0.00    +0.059 C 
ATOM      6  N   LIG    1       24.442 -26.834   5.954  0.00  0.00    -0.296 NA
ATOM      7  C   LIG    1       24.799 -26.089   4.717  0.00  0.00    +0.059 C 
ATOM      8  C   LIG    1       26.231 -26.543   4.411  0.00  0.00    +0.020 C 
ATOM      9  C   LIG    1       26.810 -26.911   5.776  0.00  0.00    +0.020 C 
ATOM     10  C   LIG    1       24.741 -24.566   4.995  0.00  0.00    +0.044 C 
BRANCH   3  13
ATOM     11  C   LIG    1       22.590 -23.192   6.856  0.00  0.00    +0.088 C 
ATOM     12  C   LIG    1       23.841 -22.452   7.141  0.00  0.00    +0.131 A 
ATOM     13  N   LIG    1       25.133 -22.830   6.804  0.00  0.00    -0.312 N 
ATOM     14  C   LIG    1       25.903 -21.705   7.069  0.00  0.00    +0.136 A 
ATOM     15  N   LIG    1       25.143 -20.808   7.669  0.00  0.00    -0.134 NA
ATOM     16  N   LIG    1       23.868 -21.272   7.717  0.00  0.00    -0.135 NA
BRANCH  14  17
ATOM     17  C   LIG    1       27.342 -21.452   6.720  0.00  0.00    +0.051 C 
ATOM     18  C   LIG    1       28.202 -21.382   7.994  0.00  0.00    +0.015 C 
ATOM     19  C   LIG    1       27.502 -20.124   5.974  0.00  0.00    +0.015 C 
ENDBRANCH  14  17
ENDBRANCH   3  13
ENDBRANCH   2   6
ENDBRANCH   1   2
BRANCH   1  20
ATOM     20  C   LIG    1       25.225 -30.507   6.262  0.00  0.00    +0.104 C 
BRANCH  20  21
ATOM     21  C   LIG    1       26.000 -31.677   5.647  0.00  0.00    -0.027 A 
ATOM     22  C   LIG    1       25.829 -32.071   4.308  0.00  0.00    +0.005 A 
ATOM     23  C   LIG    1       26.614 -33.088   3.751  0.00  0.00    +0.000 A 
ATOM     24  C   LIG    1       27.594 -33.718   4.514  0.00  0.00    +0.000 A 
ATOM     25  C   LIG    1       27.751 -33.367   5.852  0.00  0.00    +0.000 A 
ATOM     26  C   LIG    1       26.945 -32.374   6.419  0.00  0.00    +0.005 A 
ENDBRANCH  20  21
BRANCH  20  27
ATOM     27  N   LIG    1       25.745 -30.248   7.617  0.00  0.00    -0.308 N 
ATOM     28  H   LIG    1       26.737 -30.350   7.719  0.00  0.00    +0.149 HD
ATOM     29  C   LIG    1       24.946 -30.023   8.722  0.00  0.00    +0.217 C 
ATOM     30  O   LIG    1       23.731 -30.047   8.653  0.00  0.00    -0.276 OA
BRANCH  29  31
ATOM     31  C   LIG    1       25.653 -29.748  10.084  0.00  0.00    +0.075 C 
ATOM     32  C   LIG    1       26.776 -28.692  10.072  0.00  0.00    +0.018 C 
ATOM     33  C   LIG    1       26.793 -27.756  11.274  0.00  0.00    +0.076 C 
ATOM     34  C   LIG    1       26.530 -28.504  12.557  0.00  0.00    +0.249 C 
ATOM     35  F   LIG    1       27.509 -29.431  12.728  0.00  0.00    -0.206 F 
ATOM     36  F   LIG    1       26.622 -27.651  13.606  0.00  0.00    -0.206 F 
ATOM     37  C   LIG    1       25.175 -29.192  12.567  0.00  0.00    +0.076 C 
ATOM     38  C   LIG    1       24.594 -29.439  11.165  0.00  0.00    +0.018 C 
ENDBRANCH  29  31
ENDBRANCH  20  27
ENDBRANCH   1  20
TORSDOF 8
ENDMDL
MODEL 4
REMARK VINA RESULT:      -8.8      4.437      8.911
REMARK  Name = *****
REMARK                            x       y       z     vdW  Elec       q    Type
REMARK                         _______ _______ _______ _____ _____    ______ ____
ROOT
ATOM      1  C   LIG    1       24.071 -21.247   7.802  0.00  0.00    +0.042 C 
ENDROOT
BRANCH   1   2
ATOM      2  C   LIG    1       25.178 -22.233   8.246  0.00  0.00    +0.087 C 
BRANCH   2   6
ATOM      3  C   LIG    1       29.143 -20.360   7.858  0.00  0.00    +0.093 C 
ATOM      4  C   LIG    1       28.839 -21.815   7.465  0.00  0.00    +0.044 C 
ATOM      5  C   LIG    1       27.374 -22.082   7.080  0.00  0.00    +0.059 C 
ATOM      6  N   LIG    1       26.568 -21.692   8.251  0.00  0.00    -0.296 NA
ATOM      7  C   LIG    1       26.570 -20.210   8.134  0.00  0.00    +0.059 C 
ATOM      8  C   LIG    1       26.304 -19.956   6.645  0.00  0.00    +0.020 C 
ATOM      9  C   LIG    1       26.858 -21.197   5.946  0.00  0.00    +0.020 C 
ATOM     10  C   LIG    1       27.954 -19.658   8.557  0.00  0.00    +0.044 C 
BRANCH   3  13
ATOM     11  C   LIG    1       31.056 -22.688   8.757  0.00  0.00    +0.088 C 
ATOM     12  C   LIG    1       31.308 -21.233   8.868  0.00  0.00    +0.131 A 
ATOM     13  N   LIG    1       30.432 -20.205   8.546  0.00  0.00    -0.312 N 
ATOM     14  C   LIG    1       31.040 -19.063   9.051  0.00  0.00    +0.136 A 
ATOM     15  N   LIG    1       32.247 -19.383   9.479  0.00  0.00    -0.134 NA
ATOM     16  N   LIG    1       32.413 -20.725   9.362  0.00  0.00    -0.135 NA
BRANCH  14  17
ATOM     17  C   LIG    1       30.473 -17.677   9.173  0.00  0.00    +0.051 C 
ATOM     18  C   LIG    1       31.565 -16.623   8.922  0.00  0.00    +0.015 C 
ATOM     19  C   LIG    1       29.904 -17.436  10.574  0.00  0.00    +0.015 C 
ENDBRANCH  14  17
ENDBRANCH   3  13
ENDBRANCH   2   6
ENDBRANCH   1   2
BRANCH   1  20
ATOM     20  C   LIG    1       23.303 -21.707   6.531  0.00  0.00    +0.104 C 
BRANCH  20  21
ATOM     21  C   LIG    1       23.197 -20.622   5.454  0.00  0.00    -0.027 A 
ATOM     22  C   LIG    1       22.412 -19.468   5.623  0.00  0.00    +0.005 A 
ATOM     23  C   LIG    1       22.403 -18.455   4.657  0.00  0.00    +0.000 A 
ATOM     24  C   LIG    1       23.192 -18.566   3.515  0.00  0.00    +0.000 A 
ATOM     25  C   LIG    1       23.947 -19.718   3.313  0.00  0.00    +0.000 A 
ATOM     26  C   LIG    1       23.930 -20.747   4.261  0.00  0.00    +0.005 A 
ENDBRANCH  20  21
BRANCH  20  27
ATOM     27  N   LIG    1       23.959 -22.894   5.952  0.00  0.00    -0.308 N 
ATOM     28  H   LIG    1       24.670 -22.698   5.274  0.00  0.00    +0.149 HD
ATOM     29  C   LIG    1       23.555 -24.194   6.190  0.00  0.00    +0.217 C 
ATOM     30  O   LIG    1       22.594 -24.451   6.892  0.00  0.00    -0.276 OA
BRANCH  29  31
ATOM     31  C   LIG    1       24.367 -25.341   5.515  0.00  0.00    +0.075 C 
ATOM     32  C   LIG    1       25.901 -25.266   5.651  0.00  0.00    +0.018 C 
ATOM     33  C   LIG    1       26.590 -26.599   5.918  0.00  0.00    +0.076 C 
ATOM     34  C   LIG    1       26.000 -27.700   5.073  0.00  0.00    +0.249 C 
ATOM     35  F   LIG    1       26.179 -27.386   3.763  0.00  0.00    -0.206 F 
ATOM     36  F   LIG    1       26.685 -28.851   5.289  0.00  0.00    -0.206 F 
ATOM     37  C   LIG    1       24.521 -27.919   5.345  0.00  0.00    +0.076 C 
ATOM     38  C   LIG    1       23.821 -26.707   5.981  0.00  0.00    +0.018 C 
ENDBRANCH  29  31
ENDBRANCH  20  27
ENDBRANCH   1  20
TORSDOF 8
ENDMDL
MODEL 5
REMARK VINA RESULT:      -8.7      5.010      8.908
REMARK  Name = *****
REMARK                            x       y       z     vdW  Elec       q    Type
REMARK                         _______ _______ _______ _____ _____    ______ ____
ROOT
ATOM      1  C   LIG    1       24.354 -32.877   7.227  0.00  0.00    +0.042 C 
ENDROOT
BRANCH   1   2
ATOM      2  C   LIG    1       24.438 -33.241   8.728  0.00  0.00    +0.087 C 
BRANCH   2   6
ATOM      3  C   LIG    1       23.182 -30.251  11.705  0.00  0.00    +0.093 C 
ATOM      4  C   LIG    1       22.980 -30.090  10.190  0.00  0.00    +0.044 C 
ATOM      5  C   LIG    1       22.889 -31.415   9.411  0.00  0.00    +0.059 C 
ATOM      6  N   LIG    1       24.147 -32.133   9.684  0.00  0.00    -0.296 NA
ATOM      7  C   LIG    1       23.900 -32.655  11.055  0.00  0.00    +0.059 C 
ATOM      8  C   LIG    1       22.467 -33.196  10.993  0.00  0.00    +0.020 C 
ATOM      9  C   LIG    1       21.792 -32.355   9.911  0.00  0.00    +0.020 C 
ATOM     10  C   LIG    1       24.018 -31.498  12.079  0.00  0.00    +0.044 C 
BRANCH   3  13
ATOM     11  C   LIG    1       21.294 -28.016  12.860  0.00  0.00    +0.088 C 
ATOM     12  C   LIG    1       22.772 -28.067  12.943  0.00  0.00    +0.131 A 
ATOM     13  N   LIG    1       23.611 -29.010  12.365  0.00  0.00    -0.312 N 
ATOM     14  C   LIG    1       24.886 -28.484  12.530  0.00  0.00    +0.136 A 
ATOM     15  N   LIG    1       24.802 -27.409  13.291  0.00  0.00    -0.134 NA
ATOM     16  N   LIG    1       23.495 -27.153  13.548  0.00  0.00    -0.135 NA
BRANCH  14  17
ATOM     17  C   LIG    1       26.180 -28.966  11.939  0.00  0.00    +0.051 C 
ATOM     18  C   LIG    1       27.128 -29.463  13.044  0.00  0.00    +0.015 C 
ATOM     19  C   LIG    1       26.893 -27.840  11.184  0.00  0.00    +0.015 C 
ENDBRANCH  14  17
ENDBRANCH   3  13
ENDBRANCH   2   6
ENDBRANCH   1   2
BRANCH   1  20
ATOM     20  C   LIG    1       25.582 -32.074   6.713  0.00  0.00    +0.104 C 
BRANCH  20  21
ATOM     21  C   LIG    1       26.178 -32.633   5.416  0.00  0.00    -0.027 A 
ATOM     22  C   LIG    1       25.603 -32.386   4.157  0.00  0.00    +0.005 A 
ATOM     23  C   LIG    1       26.218 -32.838   2.983  0.00  0.00    +0.000 A 
ATOM     24  C   LIG    1       27.426 -33.528   3.043  0.00  0.00    +0.000 A 
ATOM     25  C   LIG    1       27.991 -33.814   4.283  0.00  0.00    +0.000 A 
ATOM     26  C   LIG    1       27.359 -33.393   5.459  0.00  0.00    +0.005 A 
ENDBRANCH  20  21
BRANCH  20  27
ATOM     27  N   LIG    1       25.205 -30.665   6.498  0.00  0.00    -0.308 N 
ATOM     28  H   LIG    1       24.803 -30.465   5.602  0.00  0.00    +0.149 HD
ATOM     29  C   LIG    1       25.499 -29.643   7.380  0.00  0.00    +0.217 C 
ATOM     30  O   LIG    1       26.125 -29.838   8.406  0.00  0.00    -0.276 OA
BRANCH  29  31
ATOM     31  C   LIG    1       25.014 -28.207   7.014  0.00  0.00    +0.075 C 
ATOM     32  C   LIG    1       25.904 -27.042   7.489  0.00  0.00    +0.018 C 
ATOM     33  C   LIG    1       26.077 -25.912   6.482  0.00  0.00    +0.076 C 
ATOM     34  C   LIG    1       24.775 -25.582   5.796  0.00  0.00    +0.249 C 
ATOM     35  F   LIG    1       23.879 -25.180   6.734  0.00  0.00    -0.206 F 
ATOM     36  F   LIG    1       24.957 -24.529   4.962  0.00  0.00    -0.206 F 
ATOM     37  C   LIG    1       24.205 -26.761   5.024  0.00  0.00    +0.076 C 
ATOM     38  C   LIG    1       24.733 -28.126   5.498  0.00  0.00    +0.018 C 
ENDBRANCH  29  31
ENDBRANCH  20  27
ENDBRANCH   1  20
TORSDOF 8
ENDMDL
MODEL 6
REMARK VINA RESULT:      -8.7      4.490     10.396
REMARK  Name = *****
REMARK                            x       y       z     vdW  Elec       q    Type
REMARK                         _______ _______ _______ _____ _____    ______ ____
ROOT
ATOM      1  C   LIG    1       25.389 -29.206   7.196  0.00  0.00    +0.042 C 
ENDROOT
BRANCH   1   2
ATOM      2  C   LIG    1       24.379 -28.360   6.385  0.00  0.00    +0.087 C 
BRANCH   2   6
ATOM      3  C   LIG    1       25.208 -24.039   6.242  0.00  0.00    +0.093 C 
ATOM      4  C   LIG    1       25.775 -24.986   7.311  0.00  0.00    +0.044 C 
ATOM      5  C   LIG    1       25.907 -26.452   6.864  0.00  0.00    +0.059 C 
ATOM      6  N   LIG    1       24.552 -26.881   6.471  0.00  0.00    -0.296 NA
ATOM      7  C   LIG    1       24.415 -26.243   5.134  0.00  0.00    +0.059 C 
ATOM      8  C   LIG    1       25.758 -26.525   4.450  0.00  0.00    +0.020 C 
ATOM      9  C   LIG    1       26.752 -26.644   5.604  0.00  0.00    +0.020 C 
ATOM     10  C   LIG    1       24.182 -24.721   5.307  0.00  0.00    +0.044 C 
BRANCH   3  13
ATOM     11  C   LIG    1       22.234 -23.170   6.780  0.00  0.00    +0.088 C 
ATOM     12  C   LIG    1       23.460 -22.402   7.098  0.00  0.00    +0.131 A 
ATOM     13  N   LIG    1       24.768 -22.748   6.789  0.00  0.00    -0.312 N 
ATOM     14  C   LIG    1       25.504 -21.605   7.078  0.00  0.00    +0.136 A 
ATOM     15  N   LIG    1       24.709 -20.731   7.666  0.00  0.00    -0.134 NA
ATOM     16  N   LIG    1       23.446 -21.226   7.681  0.00  0.00    -0.135 NA
BRANCH  14  17
ATOM     17  C   LIG    1       26.944 -21.316   6.765  0.00  0.00    +0.051 C 
ATOM     18  C   LIG    1       27.718 -20.970   8.049  0.00  0.00    +0.015 C 
ATOM     19  C   LIG    1       27.071 -20.127   5.807  0.00  0.00    +0.015 C 
ENDBRANCH  14  17
ENDBRANCH   3  13
ENDBRANCH   2   6
ENDBRANCH   1   2
BRANCH   1  20
ATOM     20  C   LIG    1       24.799 -30.550   7.710  0.00  0.00    +0.104 C 
BRANCH  20  21
ATOM     21  C   LIG    1       25.816 -31.697   7.726  0.00  0.00    -0.027 A 
ATOM     22  C   LIG    1       26.462 -32.146   6.560  0.00  0.00    +0.005 A 
ATOM     23  C   LIG    1       27.448 -33.138   6.620  0.00  0.00    +0.000 A 
ATOM     24  C   LIG    1       27.821 -33.686   7.845  0.00  0.00    +0.000 A 
ATOM     25  C   LIG    1       27.166 -33.280   9.005  0.00  0.00    +0.000 A 
ATOM     26  C   LIG    1       26.156 -32.314   8.942  0.00  0.00    +0.005 A 
ENDBRANCH  20  21
BRANCH  20  27
ATOM     27  N   LIG    1       24.258 -30.372   9.070  0.00  0.00    -0.308 N 
ATOM     28  H   LIG    1       24.831 -29.829   9.688  0.00  0.00    +0.149 HD
ATOM     29  C   LIG    1       23.125 -31.007   9.541  0.00  0.00    +0.217 C 
ATOM     30  O   LIG    1       22.496 -31.793   8.856  0.00  0.00    -0.276 OA
BRANCH  29  31
ATOM     31  C   LIG    1       22.674 -30.697  11.001  0.00  0.00    +0.075 C 
ATOM     32  C   LIG    1       23.483 -29.623  11.754  0.00  0.00    +0.018 C 
ATOM     33  C   LIG    1       22.652 -28.666  12.601  0.00  0.00    +0.076 C 
ATOM     34  C   LIG    1       21.565 -29.397  13.348  0.00  0.00    +0.249 C 
ATOM     35  F   LIG    1       22.142 -30.305  14.178  0.00  0.00    -0.206 F 
ATOM     36  F   LIG    1       20.895 -28.524  14.140  0.00  0.00    -0.206 F 
ATOM     37  C   LIG    1       20.592 -30.106  12.421  0.00  0.00    +0.076 C 
ATOM     38  C   LIG    1       21.161 -30.388  11.021  0.00  0.00    +0.018 C 
ENDBRANCH  29  31
ENDBRANCH  20  27
ENDBRANCH   1  20
TORSDOF 8
ENDMDL
MODEL 7
REMARK VINA RESULT:      -8.5      5.069      8.826
REMARK  Name = *****
REMARK                            x       y       z     vdW  Elec       q    Type
REMARK                         _______ _______ _______ _____ _____    ______ ____
ROOT
ATOM      1  C   LIG    1       24.547 -32.924   7.072  0.00  0.00    +0.042 C 
ENDROOT
BRANCH   1   2
ATOM      2  C   LIG    1       24.577 -33.265   8.581  0.00  0.00    +0.087 C 
BRANCH   2   6
ATOM      3  C   LIG    1       24.412 -30.062  11.597  0.00  0.00    +0.093 C 
ATOM      4  C   LIG    1       23.826 -29.939  10.181  0.00  0.00    +0.044 C 
ATOM      5  C   LIG    1       23.422 -31.276   9.536  0.00  0.00    +0.059 C 
ATOM      6  N   LIG    1       24.644 -32.100   9.511  0.00  0.00    -0.296 NA
ATOM      7  C   LIG    1       24.732 -32.545  10.927  0.00  0.00    +0.059 C 
ATOM      8  C   LIG    1       23.295 -32.950  11.278  0.00  0.00    +0.020 C 
ATOM      9  C   LIG    1       22.426 -32.089  10.363  0.00  0.00    +0.020 C 
ATOM     10  C   LIG    1       25.214 -31.368  11.812  0.00  0.00    +0.044 C 
BRANCH   3  13
ATOM     11  C   LIG    1       27.384 -29.270  10.942  0.00  0.00    +0.088 C 
ATOM     12  C   LIG    1       26.388 -28.463  11.685  0.00  0.00    +0.131 A 
ATOM     13  N   LIG    1       25.103 -28.844  12.044  0.00  0.00    -0.312 N 
ATOM     14  C   LIG    1       24.680 -27.850  12.917  0.00  0.00    +0.136 A 
ATOM     15  N   LIG    1       25.583 -26.887  12.928  0.00  0.00    -0.134 NA
ATOM     16  N   LIG    1       26.638 -27.266  12.162  0.00  0.00    -0.135 NA
BRANCH  14  17
ATOM     17  C   LIG    1       23.448 -27.821  13.776  0.00  0.00    +0.051 C 
ATOM     18  C   LIG    1       22.414 -26.835  13.205  0.00  0.00    +0.015 C 
ATOM     19  C   LIG    1       23.781 -27.375  15.202  0.00  0.00    +0.015 C 
ENDBRANCH  14  17
ENDBRANCH   3  13
ENDBRANCH   2   6
ENDBRANCH   1   2
BRANCH   1  20
ATOM     20  C   LIG    1       25.862 -32.271   6.558  0.00  0.00    +0.104 C 
BRANCH  20  21
ATOM     21  C   LIG    1       26.255 -32.719   5.147  0.00  0.00    -0.027 A 
ATOM     22  C   LIG    1       25.519 -32.348   4.007  0.00  0.00    +0.005 A 
ATOM     23  C   LIG    1       25.952 -32.703   2.723  0.00  0.00    +0.000 A 
ATOM     24  C   LIG    1       27.135 -33.417   2.552  0.00  0.00    +0.000 A 
ATOM     25  C   LIG    1       27.857 -33.825   3.671  0.00  0.00    +0.000 A 
ATOM     26  C   LIG    1       27.407 -33.501   4.956  0.00  0.00    +0.005 A 
ENDBRANCH  20  21
BRANCH  20  27
ATOM     27  N   LIG    1       25.730 -30.802   6.574  0.00  0.00    -0.308 N 
ATOM     28  H   LIG    1       26.539 -30.306   6.895  0.00  0.00    +0.149 HD
ATOM     29  C   LIG    1       24.552 -30.129   6.313  0.00  0.00    +0.217 C 
ATOM     30  O   LIG    1       23.514 -30.718   6.070  0.00  0.00    -0.276 OA
BRANCH  29  31
ATOM     31  C   LIG    1       24.583 -28.571   6.352  0.00  0.00    +0.075 C 
ATOM     32  C   LIG    1       25.405 -27.931   7.488  0.00  0.00    +0.018 C 
ATOM     33  C   LIG    1       26.226 -26.713   7.083  0.00  0.00    +0.076 C 
ATOM     34  C   LIG    1       25.445 -25.804   6.167  0.00  0.00    +0.249 C 
ATOM     35  F   LIG    1       24.339 -25.369   6.826  0.00  0.00    -0.206 F 
ATOM     36  F   LIG    1       26.182 -24.702   5.886  0.00  0.00    -0.206 F 
ATOM     37  C   LIG    1       25.028 -26.490   4.877  0.00  0.00    +0.076 C 
ATOM     38  C   LIG    1       25.003 -28.025   4.970  0.00  0.00    +0.018 C 
ENDBRANCH  29  31
ENDBRANCH  20  27
ENDBRANCH   1  20
TORSDOF 8
ENDMDL
MODEL 8
REMARK VINA RESULT:      -8.4      4.407      8.597
REMARK  Name = *****
REMARK                            x       y       z     vdW  Elec       q    Type
REMARK                         _______ _______ _______ _____ _____    ______ ____
ROOT
ATOM      1  C   LIG    1       24.056 -31.691   6.924  0.00  0.00    +0.042 C 
ENDROOT
BRANCH   1   2
ATOM      2  C   LIG    1       23.922 -32.575   8.186  0.00  0.00    +0.087 C 
BRANCH   2   6
ATOM      3  C   LIG    1       24.016 -30.740  12.187  0.00  0.00    +0.093 C 
ATOM      4  C   LIG    1       23.653 -29.978  10.902  0.00  0.00    +0.044 C 
ATOM      5  C   LIG    1       23.076 -30.856   9.778  0.00  0.00    +0.059 C 
ATOM      6  N   LIG    1       24.101 -31.877   9.492  0.00  0.00    -0.296 NA
ATOM      7  C   LIG    1       23.914 -32.812  10.634  0.00  0.00    +0.059 C 
ATOM      8  C   LIG    1       22.393 -32.968  10.740  0.00  0.00    +0.020 C 
ATOM      9  C   LIG    1       21.839 -31.656  10.187  0.00  0.00    +0.020 C 
ATOM     10  C   LIG    1       24.505 -32.184  11.921  0.00  0.00    +0.044 C 
BRANCH   3  13
ATOM     11  C   LIG    1       23.317 -29.911  15.139  0.00  0.00    +0.088 C 
ATOM     12  C   LIG    1       24.591 -29.672  14.422  0.00  0.00    +0.131 A 
ATOM     13  N   LIG    1       24.873 -29.965  13.095  0.00  0.00    -0.312 N 
ATOM     14  C   LIG    1       26.088 -29.337  12.853  0.00  0.00    +0.136 A 
ATOM     15  N   LIG    1       26.551 -28.864  13.995  0.00  0.00    -0.134 NA
ATOM     16  N   LIG    1       25.626 -29.074  14.966  0.00  0.00    -0.135 NA
BRANCH  14  17
ATOM     17  C   LIG    1       26.797 -29.143  11.543  0.00  0.00    +0.051 C 
ATOM     18  C   LIG    1       28.259 -29.611  11.645  0.00  0.00    +0.015 C 
ATOM     19  C   LIG    1       26.806 -27.666  11.136  0.00  0.00    +0.015 C 
ENDBRANCH  14  17
ENDBRANCH   3  13
ENDBRANCH   2   6
ENDBRANCH   1   2
BRANCH   1  20
ATOM     20  C   LIG    1       25.505 -31.184   6.672  0.00  0.00    +0.104 C 
BRANCH  20  21
ATOM     21  C   LIG    1       26.296 -32.058   5.694  0.00  0.00    -0.027 A 
ATOM     22  C   LIG    1       27.381 -32.855   6.105  0.00  0.00    +0.005 A 
ATOM     23  C   LIG    1       28.030 -33.708   5.205  0.00  0.00    +0.000 A 
ATOM     24  C   LIG    1       27.598 -33.796   3.884  0.00  0.00    +0.000 A 
ATOM     25  C   LIG    1       26.551 -32.988   3.450  0.00  0.00    +0.000 A 
ATOM     26  C   LIG    1       25.923 -32.109   4.340  0.00  0.00    +0.005 A 
ENDBRANCH  20  21
BRANCH  20  27
ATOM     27  N   LIG    1       25.470 -29.803   6.158  0.00  0.00    -0.308 N 
ATOM     28  H   LIG    1       25.549 -29.717   5.162  0.00  0.00    +0.149 HD
ATOM     29  C   LIG    1       25.474 -28.678   6.960  0.00  0.00    +0.217 C 
ATOM     30  O   LIG    1       25.533 -28.754   8.175  0.00  0.00    -0.276 OA
BRANCH  29  31
ATOM     31  C   LIG    1       25.416 -27.286   6.260  0.00  0.00    +0.075 C 
ATOM     32  C   LIG    1       24.021 -26.797   5.824  0.00  0.00    +0.018 C 
ATOM     33  C   LIG    1       23.754 -25.317   6.065  0.00  0.00    +0.076 C 
ATOM     34  C   LIG    1       24.951 -24.475   5.702  0.00  0.00    +0.249 C 
ATOM     35  F   LIG    1       25.219 -24.648   4.381  0.00  0.00    -0.206 F 
ATOM     36  F   LIG    1       24.649 -23.164   5.864  0.00  0.00    -0.206 F 
ATOM     37  C   LIG    1       26.184 -24.827   6.518  0.00  0.00    +0.076 C 
ATOM     38  C   LIG    1       26.140 -26.237   7.131  0.00  0.00    +0.018 C 
ENDBRANCH  29  31
ENDBRANCH  20  27
ENDBRANCH   1  20
TORSDOF 8
ENDMDL
MODEL 9
REMARK VINA RESULT:      -8.4      5.324      9.152
REMARK  Name = *****
REMARK                            x       y       z     vdW  Elec       q    Type
REMARK                         _______ _______ _______ _____ _____    ______ ____
ROOT
ATOM      1  C   LIG    1       25.391 -31.623  10.107  0.00  0.00    +0.042 C 
ENDROOT
BRANCH   1   2
ATOM      2  C   LIG    1       24.190 -32.551  10.408  0.00  0.00    +0.087 C 
BRANCH   2   6
ATOM      3  C   LIG    1       20.514 -31.104  12.349  0.00  0.00    +0.093 C 
ATOM      4  C   LIG    1       20.974 -30.667  10.948  0.00  0.00    +0.044 C 
ATOM      5  C   LIG    1       21.861 -31.689  10.218  0.00  0.00    +0.059 C 
ATOM      6  N   LIG    1       23.028 -31.912  11.090  0.00  0.00    -0.296 NA
ATOM      7  C   LIG    1       22.455 -32.807  12.131  0.00  0.00    +0.059 C 
ATOM      8  C   LIG    1       21.633 -33.825  11.332  0.00  0.00    +0.020 C 
ATOM      9  C   LIG    1       21.224 -33.071  10.068  0.00  0.00    +0.020 C 
ATOM     10  C   LIG    1       21.554 -31.983  13.084  0.00  0.00    +0.044 C 
BRANCH   3  13
ATOM     11  C   LIG    1       17.577 -30.863  13.447  0.00  0.00    +0.088 C 
ATOM     12  C   LIG    1       18.703 -29.935  13.700  0.00  0.00    +0.131 A 
ATOM     13  N   LIG    1       19.977 -29.996  13.152  0.00  0.00    -0.312 N 
ATOM     14  C   LIG    1       20.563 -28.788  13.508  0.00  0.00    +0.136 A 
ATOM     15  N   LIG    1       19.754 -28.155  14.336  0.00  0.00    -0.134 NA
ATOM     16  N   LIG    1       18.605 -28.867  14.457  0.00  0.00    -0.135 NA
BRANCH  14  17
ATOM     17  C   LIG    1       21.865 -28.206  13.037  0.00  0.00    +0.051 C 
ATOM     18  C   LIG    1       23.036 -28.760  13.867  0.00  0.00    +0.015 C 
ATOM     19  C   LIG    1       21.871 -26.681  13.180  0.00  0.00    +0.015 C 
ENDBRANCH  14  17
ENDBRANCH   3  13
ENDBRANCH   2   6
ENDBRANCH   1   2
BRANCH   1  20
ATOM     20  C   LIG    1       25.103 -30.122  10.396  0.00  0.00    +0.104 C 
BRANCH  20  21
ATOM     21  C   LIG    1       25.895 -29.566  11.584  0.00  0.00    -0.027 A 
ATOM     22  C   LIG    1       26.345 -28.234  11.630  0.00  0.00    +0.005 A 
ATOM     23  C   LIG    1       26.991 -27.731  12.766  0.00  0.00    +0.000 A 
ATOM     24  C   LIG    1       27.183 -28.541  13.882  0.00  0.00    +0.000 A 
ATOM     25  C   LIG    1       26.778 -29.872  13.840  0.00  0.00    +0.000 A 
ATOM     26  C   LIG    1       26.163 -30.386  12.693  0.00  0.00    +0.005 A 
ENDBRANCH  20  21
BRANCH  20  27
ATOM     27  N   LIG    1       25.406 -29.316   9.199  0.00  0.00    -0.308 N 
ATOM     28  H   LIG    1       26.118 -28.621   9.324  0.00  0.00    +0.149 HD
ATOM     29  C   LIG    1       24.689 -29.381   8.020  0.00  0.00    +0.217 C 
ATOM     30  O   LIG    1       23.721 -30.110   7.896  0.00  0.00    -0.276 OA
BRANCH  29  31
ATOM     31  C   LIG    1       25.149 -28.473   6.839  0.00  0.00    +0.075 C 
ATOM     32  C   LIG    1       24.063 -28.074   5.821  0.00  0.00    +0.018 C 
ATOM     33  C   LIG    1       24.130 -26.628   5.342  0.00  0.00    +0.076 C 
ATOM     34  C   LIG    1       25.552 -26.202   5.076  0.00  0.00    +0.249 C 
ATOM     35  F   LIG    1       26.067 -26.995   4.100  0.00  0.00    -0.206 F 
ATOM     36  F   LIG    1       25.562 -24.938   4.588  0.00  0.00    -0.206 F 
ATOM     37  C   LIG    1       26.430 -26.286   6.313  0.00  0.00    +0.076 C 
ATOM     38  C   LIG    1       25.891 -27.238   7.393  0.00  0.00    +0.018 C 
ENDBRANCH  29  31
ENDBRANCH  20  27
ENDBRANCH   1  20
TORSDOF 8
ENDMDL
