MODEL 1
REMARK VINA RESULT:      -3.8      0.000      0.000
REMARK  Name = *****
REMARK                            x       y       z     vdW  Elec       q    Type
REMARK                         _______ _______ _______ _____ _____    ______ ____
ROOT
ATOM      1  C   LIG    1       26.921 -13.481   5.113  0.00  0.00    +0.049 C 
ATOM      2  C   LIG    1       27.776 -14.141   4.049  0.00  0.00    +0.219 C 
ENDROOT
BRANCH   2   3
ATOM      3  O   LIG    1       28.554 -13.130   3.389  0.00  0.00    -0.381 OA
ATOM      4  H   LIG    1       29.348 -12.989   3.940  0.00  0.00    +0.210 HD
ENDBRANCH   2   3
BRANCH   2   5
ATOM      5  C   LIG    1       26.892 -14.835   3.015  0.00  0.00    +0.333 C 
ATOM      6  O   LIG    1       26.310 -15.894   3.185  0.00  0.00    -0.248 OA
BRANCH   5   7
ATOM      7  O   LIG    1       26.814 -14.114   1.867  0.00  0.00    -0.479 OA
ATOM      8  H   LIG    1       26.316 -14.648   1.205  0.00  0.00    +0.295 HD
ENDBRANCH   5   7
ENDBRANCH   2   5
TORSDOF 3
ENDMDL
MODEL 2
REMARK VINA RESULT:      -3.7      1.486      1.973
REMARK  Name = *****
REMARK                            x       y       z     vdW  Elec       q    Type
REMARK                         _______ _______ _______ _____ _____    ______ ____
ROOT
ATOM      1  C   LIG    1       24.952 -13.604   4.175  0.00  0.00    +0.049 C 
ATOM      2  C   LIG    1       26.396 -14.033   4.349  0.00  0.00    +0.219 C 
ENDROOT
BRANCH   2   3
ATOM      3  O   LIG    1       27.009 -13.197   5.342  0.00  0.00    -0.381 OA
ATOM      4  H   LIG    1       27.481 -13.795   5.954  0.00  0.00    +0.210 HD
ENDBRANCH   2   3
BRANCH   2   5
ATOM      5  C   LIG    1       27.157 -13.877   3.034  0.00  0.00    +0.333 C 
ATOM      6  O   LIG    1       26.759 -14.249   1.943  0.00  0.00    -0.248 OA
BRANCH   5   7
ATOM      7  O   LIG    1       28.346 -13.248   3.223  0.00  0.00    -0.479 OA
ATOM      8  H   LIG    1       28.245 -12.311   2.936  0.00  0.00    +0.295 HD
ENDBRANCH   5   7
ENDBRANCH   2   5
TORSDOF 3
ENDMDL
MODEL 3
REMARK VINA RESULT:      -3.6      1.333      2.576
REMARK  Name = *****
REMARK                            x       y       z     vdW  Elec       q    Type
REMARK                         _______ _______ _______ _____ _____    ______ ____
ROOT
ATOM      1  C   LIG    1       25.460 -13.832   3.928  0.00  0.00    +0.049 C 
ATOM      2  C   LIG    1       26.615 -13.477   3.012  0.00  0.00    +0.219 C 
ENDROOT
BRANCH   2   3
ATOM      3  O   LIG    1       26.511 -14.262   1.814  0.00  0.00    -0.381 OA
ATOM      4  H   LIG    1       25.691 -13.977   1.368  0.00  0.00    +0.210 HD
ENDBRANCH   2   3
BRANCH   2   5
ATOM      5  C   LIG    1       27.945 -13.791   3.694  0.00  0.00    +0.333 C 
ATOM      6  O   LIG    1       28.853 -12.994   3.866  0.00  0.00    -0.248 OA
BRANCH   5   7
ATOM      7  O   LIG    1       27.996 -15.084   4.109  0.00  0.00    -0.479 OA
ATOM      8  H   LIG    1       27.242 -15.566   3.696  0.00  0.00    +0.295 HD
ENDBRANCH   5   7
ENDBRANCH   2   5
TORSDOF 3
ENDMDL
MODEL 4
REMARK VINA RESULT:      -3.4      2.264      2.646
REMARK  Name = *****
REMARK                            x       y       z     vdW  Elec       q    Type
REMARK                         _______ _______ _______ _____ _____    ______ ____
ROOT
ATOM      1  C   LIG    1       23.947 -14.414   4.110  0.00  0.00    +0.049 C 
ATOM      2  C   LIG    1       25.445 -14.267   3.927  0.00  0.00    +0.219 C 
ENDROOT
BRANCH   2   3
ATOM      3  O   LIG    1       25.964 -13.459   4.994  0.00  0.00    -0.381 OA
ATOM      4  H   LIG    1       25.673 -12.544   4.815  0.00  0.00    +0.210 HD
ENDBRANCH   2   3
BRANCH   2   5
ATOM      5  C   LIG    1       25.751 -13.583   2.596  0.00  0.00    +0.333 C 
ATOM      6  O   LIG    1       25.256 -12.535   2.214  0.00  0.00    -0.248 OA
BRANCH   5   7
ATOM      7  O   LIG    1       26.671 -14.281   1.881  0.00  0.00    -0.479 OA
ATOM      8  H   LIG    1       27.189 -14.836   2.509  0.00  0.00    +0.295 HD
ENDBRANCH   5   7
ENDBRANCH   2   5
TORSDOF 3
ENDMDL
MODEL 5
REMARK VINA RESULT:      -3.4      1.677      2.330
REMARK  Name = *****
REMARK                            x       y       z     vdW  Elec       q    Type
REMARK                         _______ _______ _______ _____ _____    ______ ____
ROOT
ATOM      1  C   LIG    1       28.513 -13.221   3.663  0.00  0.00    +0.049 C 
ATOM      2  C   LIG    1       27.392 -14.213   3.421  0.00  0.00    +0.219 C 
ENDROOT
BRANCH   2   3
ATOM      3  O   LIG    1       26.968 -14.105   2.054  0.00  0.00    -0.381 OA
ATOM      4  H   LIG    1       26.858 -15.019   1.726  0.00  0.00    +0.210 HD
ENDBRANCH   2   3
BRANCH   2   5
ATOM      5  C   LIG    1       26.205 -13.902   4.331  0.00  0.00    +0.333 C 
ATOM      6  O   LIG    1       25.045 -14.199   4.100  0.00  0.00    -0.248 OA
BRANCH   5   7
ATOM      7  O   LIG    1       26.602 -13.257   5.459  0.00  0.00    -0.479 OA
ATOM      8  H   LIG    1       27.548 -13.482   5.622  0.00  0.00    +0.295 HD
ENDBRANCH   5   7
ENDBRANCH   2   5
TORSDOF 3
ENDMDL
MODEL 6
REMARK VINA RESULT:      -3.4      2.306      3.039
REMARK  Name = *****
REMARK                            x       y       z     vdW  Elec       q    Type
REMARK                         _______ _______ _______ _____ _____    ______ ____
ROOT
ATOM      1  C   LIG    1       23.973 -14.365   4.062  0.00  0.00    +0.049 C 
ATOM      2  C   LIG    1       24.691 -13.245   3.335  0.00  0.00    +0.219 C 
ENDROOT
BRANCH   2   3
ATOM      3  O   LIG    1       23.955 -12.920   2.147  0.00  0.00    -0.381 OA
ATOM      4  H   LIG    1       24.192 -13.595   1.481  0.00  0.00    +0.210 HD
ENDBRANCH   2   3
BRANCH   2   5
ATOM      5  C   LIG    1       26.098 -13.687   2.938  0.00  0.00    +0.333 C 
ATOM      6  O   LIG    1       26.399 -14.208   1.876  0.00  0.00    -0.248 OA
BRANCH   5   7
ATOM      7  O   LIG    1       26.998 -13.414   3.919  0.00  0.00    -0.479 OA
ATOM      8  H   LIG    1       26.659 -13.800   4.760  0.00  0.00    +0.295 HD
ENDBRANCH   5   7
ENDBRANCH   2   5
TORSDOF 3
ENDMDL
MODEL 7
REMARK VINA RESULT:      -3.3      2.153      2.820
REMARK  Name = *****
REMARK                            x       y       z     vdW  Elec       q    Type
REMARK                         _______ _______ _______ _____ _____    ______ ____
ROOT
ATOM      1  C   LIG    1       24.795 -12.818   1.978  0.00  0.00    +0.049 C 
ATOM      2  C   LIG    1       26.079 -13.214   2.681  0.00  0.00    +0.219 C 
ENDROOT
BRANCH   2   3
ATOM      3  O   LIG    1       26.785 -14.154   1.857  0.00  0.00    -0.381 OA
ATOM      4  H   LIG    1       26.513 -15.043   2.157  0.00  0.00    +0.210 HD
ENDBRANCH   2   3
BRANCH   2   5
ATOM      5  C   LIG    1       25.767 -13.872   4.024  0.00  0.00    +0.333 C 
ATOM      6  O   LIG    1       26.317 -13.610   5.081  0.00  0.00    -0.248 OA
BRANCH   5   7
ATOM      7  O   LIG    1       24.773 -14.790   3.904  0.00  0.00    -0.479 OA
ATOM      8  H   LIG    1       24.193 -14.517   3.155  0.00  0.00    +0.295 HD
ENDBRANCH   5   7
ENDBRANCH   2   5
TORSDOF 3
ENDMDL
MODEL 8
REMARK VINA RESULT:      -3.2      2.438      2.848
REMARK  Name = *****
REMARK                            x       y       z     vdW  Elec       q    Type
REMARK                         _______ _______ _______ _____ _____    ______ ____
ROOT
ATOM      1  C   LIG    1       26.577 -13.823   4.320  0.00  0.00    +0.049 C 
ATOM      2  C   LIG    1       25.622 -14.147   3.187  0.00  0.00    +0.219 C 
ENDROOT
BRANCH   2   3
ATOM      3  O   LIG    1       26.354 -14.146   1.952  0.00  0.00    -0.381 OA
ATOM      4  H   LIG    1       25.720 -14.403   1.255  0.00  0.00    +0.210 HD
ENDBRANCH   2   3
BRANCH   2   5
ATOM      5  C   LIG    1       24.519 -13.094   3.108  0.00  0.00    +0.333 C 
ATOM      6  O   LIG    1       23.983 -12.562   4.066  0.00  0.00    -0.248 OA
BRANCH   5   7
ATOM      7  O   LIG    1       24.209 -12.799   1.818  0.00  0.00    -0.479 OA
ATOM      8  H   LIG    1       23.251 -12.568   1.780  0.00  0.00    +0.295 HD
ENDBRANCH   5   7
ENDBRANCH   2   5
TORSDOF 3
ENDMDL
MODEL 9
REMARK VINA RESULT:      -3.2      1.925      2.173
REMARK  Name = *****
REMARK                            x       y       z     vdW  Elec       q    Type
REMARK                         _______ _______ _______ _____ _____    ______ ____
ROOT
ATOM      1  C   LIG    1       24.689 -12.936   2.705  0.00  0.00    +0.049 C 
ATOM      2  C   LIG    1       25.216 -14.008   3.638  0.00  0.00    +0.219 C 
ENDROOT
BRANCH   2   3
ATOM      3  O   LIG    1       25.741 -13.378   4.816  0.00  0.00    -0.381 OA
ATOM      4  H   LIG    1       25.259 -13.763   5.574  0.00  0.00    +0.210 HD
ENDBRANCH   2   3
BRANCH   2   5
ATOM      5  C   LIG    1       26.335 -14.796   2.959  0.00  0.00    +0.333 C 
ATOM      6  O   LIG    1       26.711 -15.910   3.287  0.00  0.00    -0.248 OA
BRANCH   5   7
ATOM      7  O   LIG    1       26.865 -14.103   1.917  0.00  0.00    -0.479 OA
ATOM      8  H   LIG    1       26.615 -13.156   2.022  0.00  0.00    +0.295 HD
ENDBRANCH   5   7
ENDBRANCH   2   5
TORSDOF 3
ENDMDL
