MODEL 1
REMARK VINA RESULT:      -2.9      0.000      0.000
REMARK  Name = *****
REMARK                            x       y       z     vdW  Elec       q    Type
REMARK                         _______ _______ _______ _____ _____    ______ ____
ROOT
ATOM      1  C   LIG    1       25.861 -15.098   2.961  0.00  0.00    +0.260 C 
ATOM      2  N   LIG    1       25.619 -13.703   2.689  0.00  0.00    -0.235 N 
ATOM      3  C   LIG    1       26.756 -12.958   2.939  0.00  0.00    +0.317 C 
ATOM      4  O   LIG    1       26.891 -11.767   2.652  0.00  0.00    -0.252 OA
ATOM      5  N   LIG    1       27.675 -13.749   3.556  0.00  0.00    -0.199 N 
ATOM      6  C   LIG    1       27.235 -15.041   3.636  0.00  0.00    +0.264 C 
ATOM      7  O   LIG    1       27.816 -15.989   4.150  0.00  0.00    -0.271 OA
ENDROOT
BRANCH   1  10
ATOM      8  O   LIG    1       23.666 -17.674   4.295  0.00  0.00    -0.253 OA
ATOM      9  C   LIG    1       24.661 -17.147   3.789  0.00  0.00    +0.307 C 
ATOM     10  N   LIG    1       24.902 -15.775   3.816  0.00  0.00    -0.235 N 
ATOM     11  N   LIG    1       25.614 -17.886   3.150  0.00  0.00    -0.277 N 
ATOM     12  H   LIG    1       26.351 -17.398   2.684  0.00  0.00    +0.152 HD
BRANCH  10  13
ATOM     13  C   LIG    1       23.965 -14.882   4.457  0.00  0.00    +0.270 C 
BRANCH  13  14
ATOM     14  O   LIG    1       22.697 -15.517   4.452  0.00  0.00    -0.377 OA
ATOM     15  H   LIG    1       22.199 -15.102   5.180  0.00  0.00    +0.211 HD
ENDBRANCH  13  14
ENDBRANCH  10  13
BRANCH  11  16
ATOM     16  C   LIG    1       25.667 -19.293   2.921  0.00  0.00    +0.265 C 
BRANCH  16  17
ATOM     17  O   LIG    1       26.056 -19.848   4.153  0.00  0.00    -0.377 OA
ATOM     18  H   LIG    1       26.975 -19.554   4.265  0.00  0.00    +0.211 HD
ENDBRANCH  16  17
ENDBRANCH  11  16
ENDBRANCH   1  10
BRANCH   2  19
ATOM     19  C   LIG    1       24.570 -13.267   1.812  0.00  0.00    +0.270 C 
BRANCH  19  20
ATOM     20  O   LIG    1       23.949 -12.127   2.372  0.00  0.00    -0.377 OA
ATOM     21  H   LIG    1       23.843 -12.303   3.323  0.00  0.00    +0.211 HD
ENDBRANCH  19  20
ENDBRANCH   2  19
BRANCH   5  22
ATOM     22  C   LIG    1       28.954 -13.316   4.019  0.00  0.00    +0.276 C 
BRANCH  22  23
ATOM     23  O   LIG    1       28.734 -12.291   4.970  0.00  0.00    -0.376 OA
ATOM     24  H   LIG    1       29.351 -11.578   4.741  0.00  0.00    +0.211 HD
ENDBRANCH  22  23
ENDBRANCH   5  22
TORSDOF 9
ENDMDL
MODEL 2
REMARK VINA RESULT:      -2.7      1.107      5.023
REMARK  Name = *****
REMARK                            x       y       z     vdW  Elec       q    Type
REMARK                         _______ _______ _______ _____ _____    ______ ____
ROOT
ATOM      1  C   LIG    1       25.122 -15.149   3.973  0.00  0.00    +0.260 C 
ATOM      2  N   LIG    1       23.760 -15.593   4.122  0.00  0.00    -0.235 N 
ATOM      3  C   LIG    1       23.686 -16.970   4.007  0.00  0.00    +0.317 C 
ATOM      4  O   LIG    1       22.677 -17.639   4.242  0.00  0.00    -0.252 OA
ATOM      5  N   LIG    1       24.889 -17.443   3.587  0.00  0.00    -0.199 N 
ATOM      6  C   LIG    1       25.813 -16.438   3.514  0.00  0.00    +0.264 C 
ATOM      7  O   LIG    1       26.980 -16.530   3.153  0.00  0.00    -0.271 OA
ENDROOT
BRANCH   1  10
ATOM      8  O   LIG    1       26.465 -12.116   2.480  0.00  0.00    -0.253 OA
ATOM      9  C   LIG    1       26.422 -13.179   3.104  0.00  0.00    +0.307 C 
ATOM     10  N   LIG    1       25.362 -14.079   3.021  0.00  0.00    -0.235 N 
ATOM     11  N   LIG    1       27.432 -13.555   3.942  0.00  0.00    -0.277 N 
ATOM     12  H   LIG    1       27.303 -14.383   4.488  0.00  0.00    +0.152 HD
BRANCH  10  13
ATOM     13  C   LIG    1       24.229 -13.793   2.172  0.00  0.00    +0.270 C 
BRANCH  13  14
ATOM     14  O   LIG    1       23.773 -12.489   2.492  0.00  0.00    -0.377 OA
ATOM     15  H   LIG    1       22.865 -12.610   2.828  0.00  0.00    +0.211 HD
ENDBRANCH  13  14
ENDBRANCH  10  13
BRANCH  11  16
ATOM     16  C   LIG    1       28.637 -12.869   4.277  0.00  0.00    +0.265 C 
BRANCH  16  17
ATOM     17  O   LIG    1       29.473 -13.038   3.159  0.00  0.00    -0.377 OA
ATOM     18  H   LIG    1       28.874 -12.949   2.400  0.00  0.00    +0.211 HD
ENDBRANCH  16  17
ENDBRANCH  11  16
ENDBRANCH   1  10
BRANCH   2  19
ATOM     19  C   LIG    1       22.769 -14.807   4.800  0.00  0.00    +0.270 C 
BRANCH  19  20
ATOM     20  O   LIG    1       22.199 -15.582   5.836  0.00  0.00    -0.377 OA
ATOM     21  H   LIG    1       21.742 -16.327   5.410  0.00  0.00    +0.211 HD
ENDBRANCH  19  20
ENDBRANCH   2  19
BRANCH   5  22
ATOM     22  C   LIG    1       25.181 -18.811   3.301  0.00  0.00    +0.276 C 
BRANCH  22  23
ATOM     23  O   LIG    1       26.311 -19.171   4.074  0.00  0.00    -0.376 OA
ATOM     24  H   LIG    1       26.914 -18.412   4.034  0.00  0.00    +0.211 HD
ENDBRANCH  22  23
ENDBRANCH   5  22
TORSDOF 9
ENDMDL
MODEL 3
REMARK VINA RESULT:      -2.3      1.948      3.739
REMARK  Name = *****
REMARK                            x       y       z     vdW  Elec       q    Type
REMARK                         _______ _______ _______ _____ _____    ______ ____
ROOT
ATOM      1  C   LIG    1       25.104 -14.743   4.414  0.00  0.00    +0.260 C 
ATOM      2  N   LIG    1       25.953 -13.732   4.991  0.00  0.00    -0.235 N 
ATOM      3  C   LIG    1       25.386 -12.480   4.837  0.00  0.00    +0.317 C 
ATOM      4  O   LIG    1       25.811 -11.449   5.363  0.00  0.00    -0.252 OA
ATOM      5  N   LIG    1       24.311 -12.581   4.012  0.00  0.00    -0.199 N 
ATOM      6  C   LIG    1       24.065 -13.885   3.684  0.00  0.00    +0.264 C 
ATOM      7  O   LIG    1       23.183 -14.309   2.947  0.00  0.00    -0.271 OA
ENDROOT
BRANCH   1  10
ATOM      8  O   LIG    1       26.058 -17.863   2.806  0.00  0.00    -0.253 OA
ATOM      9  C   LIG    1       25.357 -17.013   3.362  0.00  0.00    +0.307 C 
ATOM     10  N   LIG    1       25.728 -15.677   3.494  0.00  0.00    -0.235 N 
ATOM     11  N   LIG    1       24.144 -17.329   3.901  0.00  0.00    -0.277 N 
ATOM     12  H   LIG    1       23.661 -16.621   4.414  0.00  0.00    +0.152 HD
BRANCH  10  13
ATOM     13  C   LIG    1       26.994 -15.216   2.970  0.00  0.00    +0.270 C 
BRANCH  13  14
ATOM     14  O   LIG    1       26.716 -14.352   1.880  0.00  0.00    -0.377 OA
ATOM     15  H   LIG    1       25.987 -14.780   1.393  0.00  0.00    +0.211 HD
ENDBRANCH  13  14
ENDBRANCH  10  13
BRANCH  11  16
ATOM     16  C   LIG    1       23.480 -18.590   3.963  0.00  0.00    +0.265 C 
BRANCH  16  17
ATOM     17  O   LIG    1       22.283 -18.337   4.656  0.00  0.00    -0.377 OA
ATOM     18  H   LIG    1       21.691 -17.968   3.980  0.00  0.00    +0.211 HD
ENDBRANCH  16  17
ENDBRANCH  11  16
ENDBRANCH   1  10
BRANCH   2  19
ATOM     19  C   LIG    1       26.925 -14.036   6.003  0.00  0.00    +0.270 C 
BRANCH  19  20
ATOM     20  O   LIG    1       27.889 -13.003   6.037  0.00  0.00    -0.377 OA
ATOM     21  H   LIG    1       28.268 -13.001   6.933  0.00  0.00    +0.211 HD
ENDBRANCH  19  20
ENDBRANCH   2  19
BRANCH   5  22
ATOM     22  C   LIG    1       23.503 -11.488   3.575  0.00  0.00    +0.276 C 
BRANCH  22  23
ATOM     23  O   LIG    1       23.576 -11.448   2.162  0.00  0.00    -0.376 OA
ATOM     24  H   LIG    1       22.734 -11.810   1.842  0.00  0.00    +0.211 HD
ENDBRANCH  22  23
ENDBRANCH   5  22
TORSDOF 9
ENDMDL
MODEL 4
REMARK VINA RESULT:      -2.2      4.247      6.352
REMARK  Name = *****
REMARK                            x       y       z     vdW  Elec       q    Type
REMARK                         _______ _______ _______ _____ _____    ______ ____
ROOT
ATOM      1  C   LIG    1       25.040 -19.439   5.357  0.00  0.00    +0.260 C 
ATOM      2  N   LIG    1       25.330 -20.604   6.153  0.00  0.00    -0.235 N 
ATOM      3  C   LIG    1       26.695 -20.756   6.307  0.00  0.00    +0.317 C 
ATOM      4  O   LIG    1       27.229 -21.571   7.062  0.00  0.00    -0.252 OA
ATOM      5  N   LIG    1       27.332 -19.876   5.488  0.00  0.00    -0.199 N 
ATOM      6  C   LIG    1       26.438 -19.056   4.860  0.00  0.00    +0.264 C 
ATOM      7  O   LIG    1       26.687 -18.173   4.048  0.00  0.00    -0.271 OA
ENDROOT
BRANCH   1  10
ATOM      8  O   LIG    1       22.109 -19.133   3.223  0.00  0.00    -0.253 OA
ATOM      9  C   LIG    1       23.025 -18.815   3.988  0.00  0.00    +0.307 C 
ATOM     10  N   LIG    1       24.134 -19.619   4.236  0.00  0.00    -0.235 N 
ATOM     11  N   LIG    1       23.012 -17.628   4.661  0.00  0.00    -0.277 N 
ATOM     12  H   LIG    1       23.734 -17.463   5.332  0.00  0.00    +0.152 HD
BRANCH  10  13
ATOM     13  C   LIG    1       24.263 -20.905   3.588  0.00  0.00    +0.270 C 
BRANCH  13  14
ATOM     14  O   LIG    1       23.018 -21.572   3.711  0.00  0.00    -0.377 OA
ATOM     15  H   LIG    1       23.089 -22.356   3.135  0.00  0.00    +0.211 HD
ENDBRANCH  13  14
ENDBRANCH  10  13
BRANCH  11  16
ATOM     16  C   LIG    1       22.029 -16.594   4.658  0.00  0.00    +0.265 C 
BRANCH  16  17
ATOM     17  O   LIG    1       22.758 -15.399   4.791  0.00  0.00    -0.377 OA
ATOM     18  H   LIG    1       22.978 -15.360   5.736  0.00  0.00    +0.211 HD
ENDBRANCH  16  17
ENDBRANCH  11  16
ENDBRANCH   1  10
BRANCH   2  19
ATOM     19  C   LIG    1       24.369 -21.170   7.057  0.00  0.00    +0.270 C 
BRANCH  19  20
ATOM     20  O   LIG    1       23.118 -20.545   6.847  0.00  0.00    -0.377 OA
ATOM     21  H   LIG    1       22.436 -21.215   7.024  0.00  0.00    +0.211 HD
ENDBRANCH  19  20
ENDBRANCH   2  19
BRANCH   5  22
ATOM     22  C   LIG    1       28.748 -19.776   5.330  0.00  0.00    +0.276 C 
BRANCH  22  23
ATOM     23  O   LIG    1       29.100 -18.421   5.536  0.00  0.00    -0.376 OA
ATOM     24  H   LIG    1       28.458 -17.899   5.029  0.00  0.00    +0.211 HD
ENDBRANCH  22  23
ENDBRANCH   5  22
TORSDOF 9
ENDMDL
MODEL 5
REMARK VINA RESULT:      -1.9      1.856      3.157
REMARK  Name = *****
REMARK                            x       y       z     vdW  Elec       q    Type
REMARK                         _______ _______ _______ _____ _____    ______ ____
ROOT
ATOM      1  C   LIG    1       25.371 -15.725   2.997  0.00  0.00    +0.260 C 
ATOM      2  N   LIG    1       24.426 -15.169   3.932  0.00  0.00    -0.235 N 
ATOM      3  C   LIG    1       24.441 -13.788   3.869  0.00  0.00    +0.317 C 
ATOM      4  O   LIG    1       23.634 -13.052   4.441  0.00  0.00    -0.252 OA
ATOM      5  N   LIG    1       25.486 -13.392   3.094  0.00  0.00    -0.199 N 
ATOM      6  C   LIG    1       26.121 -14.469   2.540  0.00  0.00    +0.264 C 
ATOM      7  O   LIG    1       27.106 -14.453   1.812  0.00  0.00    -0.271 OA
ENDROOT
BRANCH   1  10
ATOM      8  O   LIG    1       26.665 -18.793   4.462  0.00  0.00    -0.253 OA
ATOM      9  C   LIG    1       25.977 -18.042   3.766  0.00  0.00    +0.307 C 
ATOM     10  N   LIG    1       26.303 -16.711   3.515  0.00  0.00    -0.235 N 
ATOM     11  N   LIG    1       24.819 -18.470   3.183  0.00  0.00    -0.277 N 
ATOM     12  H   LIG    1       24.259 -17.795   2.704  0.00  0.00    +0.152 HD
BRANCH  10  13
ATOM     13  C   LIG    1       27.502 -16.135   4.081  0.00  0.00    +0.270 C 
BRANCH  13  14
ATOM     14  O   LIG    1       28.354 -17.205   4.455  0.00  0.00    -0.377 OA
ATOM     15  H   LIG    1       27.989 -17.542   5.294  0.00  0.00    +0.211 HD
ENDBRANCH  13  14
ENDBRANCH  10  13
BRANCH  11  16
ATOM     16  C   LIG    1       24.187 -19.747   3.252  0.00  0.00    +0.265 C 
BRANCH  16  17
ATOM     17  O   LIG    1       24.171 -20.071   4.621  0.00  0.00    -0.377 OA
ATOM     18  H   LIG    1       24.949 -20.641   4.737  0.00  0.00    +0.211 HD
ENDBRANCH  16  17
ENDBRANCH  11  16
ENDBRANCH   1  10
BRANCH   2  19
ATOM     19  C   LIG    1       23.310 -15.922   4.428  0.00  0.00    +0.270 C 
BRANCH  19  20
ATOM     20  O   LIG    1       22.677 -15.181   5.453  0.00  0.00    -0.377 OA
ATOM     21  H   LIG    1       22.981 -14.262   5.364  0.00  0.00    +0.211 HD
ENDBRANCH  19  20
ENDBRANCH   2  19
BRANCH   5  22
ATOM     22  C   LIG    1       25.856 -12.036   2.842  0.00  0.00    +0.276 C 
BRANCH  22  23
ATOM     23  O   LIG    1       24.820 -11.452   2.075  0.00  0.00    -0.376 OA
ATOM     24  H   LIG    1       24.714 -12.020   1.295  0.00  0.00    +0.211 HD
ENDBRANCH  22  23
ENDBRANCH   5  22
TORSDOF 9
ENDMDL
MODEL 6
REMARK VINA RESULT:      -1.7      2.819      4.599
REMARK  Name = *****
REMARK                            x       y       z     vdW  Elec       q    Type
REMARK                         _______ _______ _______ _____ _____    ______ ____
ROOT
ATOM      1  C   LIG    1       23.533 -17.762   4.694  0.00  0.00    +0.260 C 
ATOM      2  N   LIG    1       24.611 -17.678   3.741  0.00  0.00    -0.235 N 
ATOM      3  C   LIG    1       24.884 -16.358   3.436  0.00  0.00    +0.317 C 
ATOM      4  O   LIG    1       25.850 -15.977   2.772  0.00  0.00    -0.252 OA
ATOM      5  N   LIG    1       23.914 -15.571   3.975  0.00  0.00    -0.199 N 
ATOM      6  C   LIG    1       23.046 -16.310   4.730  0.00  0.00    +0.264 C 
ATOM      7  O   LIG    1       22.058 -15.905   5.329  0.00  0.00    -0.271 OA
ENDROOT
BRANCH   1  10
ATOM      8  O   LIG    1       21.537 -20.790   4.414  0.00  0.00    -0.253 OA
ATOM      9  C   LIG    1       22.286 -19.937   4.897  0.00  0.00    +0.307 C 
ATOM     10  N   LIG    1       22.437 -18.658   4.367  0.00  0.00    -0.235 N 
ATOM     11  N   LIG    1       23.039 -20.194   6.006  0.00  0.00    -0.277 N 
ATOM     12  H   LIG    1       23.692 -19.496   6.300  0.00  0.00    +0.152 HD
BRANCH  10  13
ATOM     13  C   LIG    1       21.699 -18.264   3.189  0.00  0.00    +0.270 C 
BRANCH  13  14
ATOM     14  O   LIG    1       20.326 -18.505   3.445  0.00  0.00    -0.377 OA
ATOM     15  H   LIG    1       20.078 -17.866   4.139  0.00  0.00    +0.211 HD
ENDBRANCH  13  14
ENDBRANCH  10  13
BRANCH  11  16
ATOM     16  C   LIG    1       23.144 -21.391   6.774  0.00  0.00    +0.265 C 
BRANCH  16  17
ATOM     17  O   LIG    1       24.522 -21.569   6.985  0.00  0.00    -0.377 OA
ATOM     18  H   LIG    1       24.686 -22.487   6.713  0.00  0.00    +0.211 HD
ENDBRANCH  16  17
ENDBRANCH  11  16
ENDBRANCH   1  10
BRANCH   2  19
ATOM     19  C   LIG    1       25.565 -18.738   3.571  0.00  0.00    +0.270 C 
BRANCH  19  20
ATOM     20  O   LIG    1       26.849 -18.257   3.914  0.00  0.00    -0.377 OA
ATOM     21  H   LIG    1       27.448 -19.023   3.904  0.00  0.00    +0.211 HD
ENDBRANCH  19  20
ENDBRANCH   2  19
BRANCH   5  22
ATOM     22  C   LIG    1       23.826 -14.154   3.825  0.00  0.00    +0.276 C 
BRANCH  22  23
ATOM     23  O   LIG    1       25.018 -13.599   4.348  0.00  0.00    -0.376 OA
ATOM     24  H   LIG    1       24.865 -13.491   5.300  0.00  0.00    +0.211 HD
ENDBRANCH  22  23
ENDBRANCH   5  22
TORSDOF 9
ENDMDL
MODEL 7
REMARK VINA RESULT:      -1.6      1.851      5.792
REMARK  Name = *****
REMARK                            x       y       z     vdW  Elec       q    Type
REMARK                         _______ _______ _______ _____ _____    ______ ____
ROOT
ATOM      1  C   LIG    1       25.399 -17.694   3.352  0.00  0.00    +0.260 C 
ATOM      2  N   LIG    1       26.516 -18.084   4.174  0.00  0.00    -0.235 N 
ATOM      3  C   LIG    1       26.371 -19.392   4.597  0.00  0.00    +0.317 C 
ATOM      4  O   LIG    1       27.241 -20.040   5.183  0.00  0.00    -0.252 OA
ATOM      5  N   LIG    1       25.123 -19.825   4.272  0.00  0.00    -0.199 N 
ATOM      6  C   LIG    1       24.451 -18.883   3.544  0.00  0.00    +0.264 C 
ATOM      7  O   LIG    1       23.306 -18.957   3.117  0.00  0.00    -0.271 OA
ENDROOT
BRANCH   1  10
ATOM      8  O   LIG    1       24.871 -14.190   4.171  0.00  0.00    -0.253 OA
ATOM      9  C   LIG    1       25.323 -15.194   3.615  0.00  0.00    +0.307 C 
ATOM     10  N   LIG    1       24.731 -16.452   3.699  0.00  0.00    -0.235 N 
ATOM     11  N   LIG    1       26.462 -15.144   2.866  0.00  0.00    -0.277 N 
ATOM     12  H   LIG    1       26.829 -16.004   2.513  0.00  0.00    +0.152 HD
BRANCH  10  13
ATOM     13  C   LIG    1       23.522 -16.640   4.469  0.00  0.00    +0.270 C 
BRANCH  13  14
ATOM     14  O   LIG    1       22.741 -15.464   4.330  0.00  0.00    -0.377 OA
ATOM     15  H   LIG    1       23.272 -14.868   3.769  0.00  0.00    +0.211 HD
ENDBRANCH  13  14
ENDBRANCH  10  13
BRANCH  11  16
ATOM     16  C   LIG    1       27.322 -14.037   2.595  0.00  0.00    +0.265 C 
BRANCH  16  17
ATOM     17  O   LIG    1       27.874 -13.693   3.842  0.00  0.00    -0.377 OA
ATOM     18  H   LIG    1       27.370 -12.909   4.115  0.00  0.00    +0.211 HD
ENDBRANCH  16  17
ENDBRANCH  11  16
ENDBRANCH   1  10
BRANCH   2  19
ATOM     19  C   LIG    1       27.784 -17.416   4.105  0.00  0.00    +0.270 C 
BRANCH  19  20
ATOM     20  O   LIG    1       28.739 -18.170   4.826  0.00  0.00    -0.377 OA
ATOM     21  H   LIG    1       28.277 -18.547   5.594  0.00  0.00    +0.211 HD
ENDBRANCH  19  20
ENDBRANCH   2  19
BRANCH   5  22
ATOM     22  C   LIG    1       24.587 -21.108   4.597  0.00  0.00    +0.276 C 
BRANCH  22  23
ATOM     23  O   LIG    1       23.883 -21.571   3.460  0.00  0.00    -0.376 OA
ATOM     24  H   LIG    1       23.017 -21.865   3.785  0.00  0.00    +0.211 HD
ENDBRANCH  22  23
ENDBRANCH   5  22
TORSDOF 9
ENDMDL
MODEL 8
REMARK VINA RESULT:      -1.6      3.534      6.039
REMARK  Name = *****
REMARK                            x       y       z     vdW  Elec       q    Type
REMARK                         _______ _______ _______ _____ _____    ______ ____
ROOT
ATOM      1  C   LIG    1       25.540 -20.196   4.402  0.00  0.00    +0.260 C 
ATOM      2  N   LIG    1       24.108 -20.205   4.246  0.00  0.00    -0.235 N 
ATOM      3  C   LIG    1       23.671 -18.999   3.729  0.00  0.00    +0.317 C 
ATOM      4  O   LIG    1       22.520 -18.775   3.349  0.00  0.00    -0.252 OA
ATOM      5  N   LIG    1       24.707 -18.119   3.726  0.00  0.00    -0.199 N 
ATOM      6  C   LIG    1       25.866 -18.724   4.127  0.00  0.00    +0.264 C 
ATOM      7  O   LIG    1       26.968 -18.203   4.251  0.00  0.00    -0.271 OA
ENDROOT
BRANCH   1  10
ATOM      8  O   LIG    1       27.889 -21.006   7.059  0.00  0.00    -0.253 OA
ATOM      9  C   LIG    1       27.383 -20.418   6.099  0.00  0.00    +0.307 C 
ATOM     10  N   LIG    1       26.061 -20.598   5.697  0.00  0.00    -0.235 N 
ATOM     11  N   LIG    1       28.099 -19.535   5.345  0.00  0.00    -0.277 N 
ATOM     12  H   LIG    1       27.665 -19.157   4.528  0.00  0.00    +0.152 HD
BRANCH  10  13
ATOM     13  C   LIG    1       25.199 -21.512   6.410  0.00  0.00    +0.270 C 
BRANCH  13  14
ATOM     14  O   LIG    1       24.197 -20.741   7.052  0.00  0.00    -0.377 OA
ATOM     15  H   LIG    1       24.345 -19.825   6.750  0.00  0.00    +0.211 HD
ENDBRANCH  13  14
ENDBRANCH  10  13
BRANCH  11  16
ATOM     16  C   LIG    1       29.465 -19.141   5.462  0.00  0.00    +0.265 C 
BRANCH  16  17
ATOM     17  O   LIG    1       29.453 -17.741   5.331  0.00  0.00    -0.377 OA
ATOM     18  H   LIG    1       29.042 -17.430   6.154  0.00  0.00    +0.211 HD
ENDBRANCH  16  17
ENDBRANCH  11  16
ENDBRANCH   1  10
BRANCH   2  19
ATOM     19  C   LIG    1       23.359 -21.424   4.137  0.00  0.00    +0.270 C 
BRANCH  19  20
ATOM     20  O   LIG    1       22.266 -21.372   5.033  0.00  0.00    -0.377 OA
ATOM     21  H   LIG    1       22.321 -20.518   5.494  0.00  0.00    +0.211 HD
ENDBRANCH  19  20
ENDBRANCH   2  19
BRANCH   5  22
ATOM     22  C   LIG    1       24.627 -16.754   3.316  0.00  0.00    +0.276 C 
BRANCH  22  23
ATOM     23  O   LIG    1       25.945 -16.316   3.045  0.00  0.00    -0.376 OA
ATOM     24  H   LIG    1       26.509 -17.100   3.134  0.00  0.00    +0.211 HD
ENDBRANCH  22  23
ENDBRANCH   5  22
TORSDOF 9
ENDMDL
MODEL 9
REMARK VINA RESULT:      -1.6      2.290      4.440
REMARK  Name = *****
REMARK                            x       y       z     vdW  Elec       q    Type
REMARK                         _______ _______ _______ _____ _____    ______ ____
ROOT
ATOM      1  C   LIG    1       25.149 -18.330   3.487  0.00  0.00    +0.260 C 
ATOM      2  N   LIG    1       23.956 -17.674   3.960  0.00  0.00    -0.235 N 
ATOM      3  C   LIG    1       24.102 -16.300   3.892  0.00  0.00    +0.317 C 
ATOM      4  O   LIG    1       23.193 -15.489   4.085  0.00  0.00    -0.252 OA
ATOM      5  N   LIG    1       25.396 -16.008   3.595  0.00  0.00    -0.199 N 
ATOM      6  C   LIG    1       26.113 -17.146   3.353  0.00  0.00    +0.264 C 
ATOM      7  O   LIG    1       27.304 -17.226   3.079  0.00  0.00    -0.271 OA
ENDROOT
BRANCH   1  10
ATOM      8  O   LIG    1       25.398 -21.083   5.851  0.00  0.00    -0.253 OA
ATOM      9  C   LIG    1       24.989 -20.397   4.911  0.00  0.00    +0.307 C 
ATOM     10  N   LIG    1       25.719 -19.353   4.346  0.00  0.00    -0.235 N 
ATOM     11  N   LIG    1       23.765 -20.615   4.348  0.00  0.00    -0.277 N 
ATOM     12  H   LIG    1       23.451 -19.973   3.649  0.00  0.00    +0.152 HD
BRANCH  10  13
ATOM     13  C   LIG    1       27.028 -19.018   4.857  0.00  0.00    +0.270 C 
BRANCH  13  14
ATOM     14  O   LIG    1       27.783 -20.217   4.916  0.00  0.00    -0.377 OA
ATOM     15  H   LIG    1       27.549 -20.626   5.770  0.00  0.00    +0.211 HD
ENDBRANCH  13  14
ENDBRANCH  10  13
BRANCH  11  16
ATOM     16  C   LIG    1       22.765 -21.572   4.693  0.00  0.00    +0.265 C 
BRANCH  16  17
ATOM     17  O   LIG    1       22.667 -21.506   6.094  0.00  0.00    -0.377 OA
ATOM     18  H   LIG    1       23.540 -21.187   6.378  0.00  0.00    +0.211 HD
ENDBRANCH  16  17
ENDBRANCH  11  16
ENDBRANCH   1  10
BRANCH   2  19
ATOM     19  C   LIG    1       22.679 -18.329   3.978  0.00  0.00    +0.270 C 
BRANCH  19  20
ATOM     20  O   LIG    1       22.076 -18.124   5.240  0.00  0.00    -0.377 OA
ATOM     21  H   LIG    1       21.290 -17.572   5.090  0.00  0.00    +0.211 HD
ENDBRANCH  19  20
ENDBRANCH   2  19
BRANCH   5  22
ATOM     22  C   LIG    1       25.940 -14.691   3.495  0.00  0.00    +0.276 C 
BRANCH  22  23
ATOM     23  O   LIG    1       26.463 -14.549   2.188  0.00  0.00    -0.376 OA
ATOM     24  H   LIG    1       25.826 -13.998   1.705  0.00  0.00    +0.211 HD
ENDBRANCH  22  23
ENDBRANCH   5  22
TORSDOF 9
ENDMDL
