MODEL 1
REMARK VINA RESULT:      -3.8      0.000      0.000
REMARK  Name = *****
REMARK                            x       y       z     vdW  Elec       q    Type
REMARK                         _______ _______ _______ _____ _____    ______ ____
ROOT
ATOM      1  CA  SER A  1       27.662 -14.194   4.076  0.00  0.00    +0.186 C 
ENDROOT
BRANCH   1   2
ATOM      2  N   SER A  1       28.490 -13.177   3.345  0.00  0.00    -0.317 NA
ATOM      3  H1  SER A  1       27.803 -12.646   2.781  0.00  0.00    +0.119 HD
ATOM      4  H2  SER A  1       28.785 -12.480   4.035  0.00  0.00    +0.119 HD
ENDBRANCH   1   2
BRANCH   1   5
ATOM      5  C   SER A  1       26.805 -14.954   3.056  0.00  0.00    +0.324 C 
ATOM      6  O   SER A  1       26.392 -16.098   3.196  0.00  0.00    -0.249 OA
BRANCH   5   7
ATOM      7  OXT SER A  1       26.583 -14.210   1.941  0.00  0.00    -0.479 OA
ATOM      8  HXT SER A  1       26.219 -13.350   2.272  0.00  0.00    +0.295 HD
ENDBRANCH   5   7
ENDBRANCH   1   5
BRANCH   1   9
ATOM      9  CB  SER A  1       26.756 -13.523   5.116  0.00  0.00    +0.185 C 
BRANCH   9  10
ATOM     10  OG  SER A  1       25.390 -13.626   4.693  0.00  0.00    -0.393 OA
ATOM     11  H   SER A  1       25.182 -12.806   4.208  0.00  0.00    +0.209 HD
ENDBRANCH   9  10
ENDBRANCH   1   9
TORSDOF 5
ENDMDL
MODEL 2
REMARK VINA RESULT:      -3.5      2.068      2.434
REMARK  Name = *****
REMARK                            x       y       z     vdW  Elec       q    Type
REMARK                         _______ _______ _______ _____ _____    ______ ____
ROOT
ATOM      1  CA  SER A  1       26.710 -13.346   3.088  0.00  0.00    +0.186 C 
ENDROOT
BRANCH   1   2
ATOM      2  N   SER A  1       26.362 -14.305   1.986  0.00  0.00    -0.317 NA
ATOM      3  H1  SER A  1       25.807 -15.043   2.455  0.00  0.00    +0.119 HD
ATOM      4  H2  SER A  1       25.658 -13.846   1.401  0.00  0.00    +0.119 HD
ENDBRANCH   1   2
BRANCH   1   5
ATOM      5  C   SER A  1       28.057 -13.760   3.692  0.00  0.00    +0.324 C 
ATOM      6  O   SER A  1       29.026 -13.024   3.825  0.00  0.00    -0.249 OA
BRANCH   5   7
ATOM      7  OXT SER A  1       28.065 -15.075   4.035  0.00  0.00    -0.479 OA
ATOM      8  HXT SER A  1       29.000 -15.373   3.895  0.00  0.00    +0.295 HD
ENDBRANCH   5   7
ENDBRANCH   1   5
BRANCH   1   9
ATOM      9  CB  SER A  1       25.632 -13.346   4.179  0.00  0.00    +0.185 C 
BRANCH   9  10
ATOM     10  OG  SER A  1       26.250 -13.160   5.458  0.00  0.00    -0.393 OA
ATOM     11  H   SER A  1       26.063 -12.244   5.733  0.00  0.00    +0.209 HD
ENDBRANCH   9  10
ENDBRANCH   1   9
TORSDOF 5
ENDMDL
MODEL 3
REMARK VINA RESULT:      -3.5      2.021      2.255
REMARK  Name = *****
REMARK                            x       y       z     vdW  Elec       q    Type
REMARK                         _______ _______ _______ _____ _____    ______ ____
ROOT
ATOM      1  CA  SER A  1       25.772 -13.756   4.171  0.00  0.00    +0.186 C 
ENDROOT
BRANCH   1   2
ATOM      2  N   SER A  1       26.567 -13.305   5.363  0.00  0.00    -0.317 NA
ATOM      3  H1  SER A  1       26.374 -12.290   5.430  0.00  0.00    +0.119 HD
ATOM      4  H2  SER A  1       26.092 -13.668   6.195  0.00  0.00    +0.119 HD
ENDBRANCH   1   2
BRANCH   1   5
ATOM      5  C   SER A  1       26.677 -13.712   2.934  0.00  0.00    +0.324 C 
ATOM      6  O   SER A  1       26.431 -14.252   1.863  0.00  0.00    -0.249 OA
BRANCH   5   7
ATOM      7  OXT SER A  1       27.822 -13.023   3.178  0.00  0.00    -0.479 OA
ATOM      8  HXT SER A  1       28.231 -12.877   2.288  0.00  0.00    +0.295 HD
ENDBRANCH   5   7
ENDBRANCH   1   5
BRANCH   1   9
ATOM      9  CB  SER A  1       24.550 -12.857   3.952  0.00  0.00    +0.185 C 
BRANCH   9  10
ATOM     10  OG  SER A  1       23.842 -13.294   2.785  0.00  0.00    -0.393 OA
ATOM     11  H   SER A  1       23.295 -12.544   2.488  0.00  0.00    +0.209 HD
ENDBRANCH   9  10
ENDBRANCH   1   9
TORSDOF 5
ENDMDL
MODEL 4
REMARK VINA RESULT:      -3.5      2.341      3.097
REMARK  Name = *****
REMARK                            x       y       z     vdW  Elec       q    Type
REMARK                         _______ _______ _______ _____ _____    ______ ____
ROOT
ATOM      1  CA  SER A  1       27.217 -13.702   4.210  0.00  0.00    +0.186 C 
ENDROOT
BRANCH   1   2
ATOM      2  N   SER A  1       26.478 -13.300   5.454  0.00  0.00    -0.317 NA
ATOM      3  H1  SER A  1       26.385 -12.272   5.375  0.00  0.00    +0.119 HD
ATOM      4  H2  SER A  1       25.509 -13.612   5.341  0.00  0.00    +0.119 HD
ENDBRANCH   1   2
BRANCH   1   5
ATOM      5  C   SER A  1       28.553 -12.951   4.170  0.00  0.00    +0.324 C 
ATOM      6  O   SER A  1       28.898 -12.083   4.962  0.00  0.00    -0.249 OA
BRANCH   5   7
ATOM      7  OXT SER A  1       29.311 -13.340   3.112  0.00  0.00    -0.479 OA
ATOM      8  HXT SER A  1       28.789 -13.082   2.310  0.00  0.00    +0.295 HD
ENDBRANCH   5   7
ENDBRANCH   1   5
BRANCH   1   9
ATOM      9  CB  SER A  1       26.400 -13.372   2.954  0.00  0.00    +0.185 C 
BRANCH   9  10
ATOM     10  OG  SER A  1       26.731 -14.302   1.915  0.00  0.00    -0.393 OA
ATOM     11  H   SER A  1       27.641 -14.097   1.632  0.00  0.00    +0.209 HD
ENDBRANCH   9  10
ENDBRANCH   1   9
TORSDOF 5
ENDMDL
MODEL 5
REMARK VINA RESULT:      -3.4      1.846      2.388
REMARK  Name = *****
REMARK                            x       y       z     vdW  Elec       q    Type
REMARK                         _______ _______ _______ _____ _____    ______ ____
ROOT
ATOM      1  CA  SER A  1       27.144 -13.953   4.178  0.00  0.00    +0.186 C 
ENDROOT
BRANCH   1   2
ATOM      2  N   SER A  1       27.660 -15.358   4.059  0.00  0.00    -0.317 NA
ATOM      3  H1  SER A  1       26.973 -15.833   3.447  0.00  0.00    +0.119 HD
ATOM      4  H2  SER A  1       28.491 -15.323   3.461  0.00  0.00    +0.119 HD
ENDBRANCH   1   2
BRANCH   1   5
ATOM      5  C   SER A  1       26.319 -13.627   2.927  0.00  0.00    +0.324 C 
ATOM      6  O   SER A  1       25.284 -12.973   2.917  0.00  0.00    -0.249 OA
BRANCH   5   7
ATOM      7  OXT SER A  1       26.858 -14.189   1.814  0.00  0.00    -0.479 OA
ATOM      8  HXT SER A  1       27.793 -13.859   1.785  0.00  0.00    +0.295 HD
ENDBRANCH   5   7
ENDBRANCH   1   5
BRANCH   1   9
ATOM      9  CB  SER A  1       28.298 -12.952   4.312  0.00  0.00    +0.185 C 
BRANCH   9  10
ATOM     10  OG  SER A  1       29.238 -13.165   3.250  0.00  0.00    -0.393 OA
ATOM     11  H   SER A  1       30.092 -13.380   3.667  0.00  0.00    +0.209 HD
ENDBRANCH   9  10
ENDBRANCH   1   9
TORSDOF 5
ENDMDL
MODEL 6
REMARK VINA RESULT:      -3.3      2.416      2.586
REMARK  Name = *****
REMARK                            x       y       z     vdW  Elec       q    Type
REMARK                         _______ _______ _______ _____ _____    ______ ____
ROOT
ATOM      1  CA  SER A  1       25.217 -12.672   2.908  0.00  0.00    +0.186 C 
ENDROOT
BRANCH   1   2
ATOM      2  N   SER A  1       24.202 -12.825   1.812  0.00  0.00    -0.317 NA
ATOM      3  H1  SER A  1       24.107 -11.873   1.417  0.00  0.00    +0.119 HD
ATOM      4  H2  SER A  1       24.660 -13.329   1.047  0.00  0.00    +0.119 HD
ENDBRANCH   1   2
BRANCH   1   5
ATOM      5  C   SER A  1       26.486 -13.437   2.511  0.00  0.00    +0.324 C 
ATOM      6  O   SER A  1       26.506 -14.515   1.931  0.00  0.00    -0.249 OA
BRANCH   5   7
ATOM      7  OXT SER A  1       27.607 -12.786   2.918  0.00  0.00    -0.479 OA
ATOM      8  HXT SER A  1       27.466 -12.606   3.882  0.00  0.00    +0.295 HD
ENDBRANCH   5   7
ENDBRANCH   1   5
BRANCH   1   9
ATOM      9  CB  SER A  1       24.679 -13.217   4.237  0.00  0.00    +0.185 C 
BRANCH   9  10
ATOM     10  OG  SER A  1       25.725 -13.920   4.920  0.00  0.00    -0.393 OA
ATOM     11  H   SER A  1       25.438 -14.021   5.847  0.00  0.00    +0.209 HD
ENDBRANCH   9  10
ENDBRANCH   1   9
TORSDOF 5
ENDMDL
MODEL 7
REMARK VINA RESULT:      -3.3      1.852      2.762
REMARK  Name = *****
REMARK                            x       y       z     vdW  Elec       q    Type
REMARK                         _______ _______ _______ _____ _____    ______ ____
ROOT
ATOM      1  CA  SER A  1       26.522 -14.371   3.283  0.00  0.00    +0.186 C 
ENDROOT
BRANCH   1   2
ATOM      2  N   SER A  1       26.686 -14.029   1.830  0.00  0.00    -0.317 NA
ATOM      3  H1  SER A  1       26.803 -13.000   1.822  0.00  0.00    +0.119 HD
ATOM      4  H2  SER A  1       27.616 -14.353   1.550  0.00  0.00    +0.119 HD
ENDBRANCH   1   2
BRANCH   1   5
ATOM      5  C   SER A  1       27.539 -13.560   4.096  0.00  0.00    +0.324 C 
ATOM      6  O   SER A  1       27.403 -13.234   5.268  0.00  0.00    -0.249 OA
BRANCH   5   7
ATOM      7  OXT SER A  1       28.611 -13.207   3.341  0.00  0.00    -0.479 OA
ATOM      8  HXT SER A  1       29.335 -13.018   3.991  0.00  0.00    +0.295 HD
ENDBRANCH   5   7
ENDBRANCH   1   5
BRANCH   1   9
ATOM      9  CB  SER A  1       26.743 -15.869   3.524  0.00  0.00    +0.185 C 
BRANCH   9  10
ATOM     10  OG  SER A  1       27.996 -16.063   4.193  0.00  0.00    -0.393 OA
ATOM     11  H   SER A  1       27.985 -15.494   4.984  0.00  0.00    +0.209 HD
ENDBRANCH   9  10
ENDBRANCH   1   9
TORSDOF 5
ENDMDL
MODEL 8
REMARK VINA RESULT:      -3.3      1.893      2.111
REMARK  Name = *****
REMARK                            x       y       z     vdW  Elec       q    Type
REMARK                         _______ _______ _______ _____ _____    ______ ____
ROOT
ATOM      1  CA  SER A  1       26.360 -14.488   3.426  0.00  0.00    +0.186 C 
ENDROOT
BRANCH   1   2
ATOM      2  N   SER A  1       26.804 -14.129   2.037  0.00  0.00    -0.317 NA
ATOM      3  H1  SER A  1       27.819 -14.338   2.031  0.00  0.00    +0.119 HD
ATOM      4  H2  SER A  1       26.434 -14.848   1.409  0.00  0.00    +0.119 HD
ENDBRANCH   1   2
BRANCH   1   5
ATOM      5  C   SER A  1       24.943 -13.944   3.644  0.00  0.00    +0.324 C 
ATOM      6  O   SER A  1       24.049 -14.526   4.245  0.00  0.00    -0.249 OA
BRANCH   5   7
ATOM      7  OXT SER A  1       24.778 -12.734   3.049  0.00  0.00    -0.479 OA
ATOM      8  HXT SER A  1       23.798 -12.630   2.941  0.00  0.00    +0.295 HD
ENDBRANCH   5   7
ENDBRANCH   1   5
BRANCH   1   9
ATOM      9  CB  SER A  1       27.308 -13.897   4.477  0.00  0.00    +0.185 C 
BRANCH   9  10
ATOM     10  OG  SER A  1       26.543 -13.206   5.473  0.00  0.00    -0.393 OA
ATOM     11  H   SER A  1       26.431 -12.290   5.158  0.00  0.00    +0.209 HD
ENDBRANCH   9  10
ENDBRANCH   1   9
TORSDOF 5
ENDMDL
MODEL 9
REMARK VINA RESULT:      -3.3      2.210      2.868
REMARK  Name = *****
REMARK                            x       y       z     vdW  Elec       q    Type
REMARK                         _______ _______ _______ _____ _____    ______ ____
ROOT
ATOM      1  CA  SER A  1       25.925 -13.169   2.737  0.00  0.00    +0.186 C 
ENDROOT
BRANCH   1   2
ATOM      2  N   SER A  1       26.784 -14.134   1.971  0.00  0.00    -0.317 NA
ATOM      3  H1  SER A  1       27.602 -14.292   2.587  0.00  0.00    +0.119 HD
ATOM      4  H2  SER A  1       26.314 -15.043   2.002  0.00  0.00    +0.119 HD
ENDBRANCH   1   2
BRANCH   1   5
ATOM      5  C   SER A  1       25.569 -13.796   4.090  0.00  0.00    +0.324 C 
ATOM      6  O   SER A  1       26.156 -13.580   5.143  0.00  0.00    -0.249 OA
BRANCH   5   7
ATOM      7  OXT SER A  1       24.532 -14.666   3.979  0.00  0.00    -0.479 OA
ATOM      8  HXT SER A  1       24.019 -14.566   4.820  0.00  0.00    +0.295 HD
ENDBRANCH   5   7
ENDBRANCH   1   5
BRANCH   1   9
ATOM      9  CB  SER A  1       24.641 -12.842   1.964  0.00  0.00    +0.185 C 
BRANCH   9  10
ATOM     10  OG  SER A  1       23.735 -12.140   2.825  0.00  0.00    -0.393 OA
ATOM     11  H   SER A  1       23.657 -11.234   2.474  0.00  0.00    +0.209 HD
ENDBRANCH   9  10
ENDBRANCH   1   9
TORSDOF 5
ENDMDL
