MODEL 1
REMARK VINA RESULT:      -0.9      0.000      0.000
REMARK  Name = *****
REMARK                            x       y       z     vdW  Elec       q    Type
REMARK                         _______ _______ _______ _____ _____    ______ ____
ROOT
ATOM      1  O   LIG    1       26.468 -16.995   3.641  0.00  0.00    -0.461 OA
ENDROOT
BRANCH   1   5
ATOM      2  N   LIG    1       25.907 -12.944   3.732  0.00  0.00    +0.247 N 
ATOM      3  C   LIG    1       26.843 -13.775   2.815  0.00  0.00    +0.070 C 
ATOM      4  C   LIG    1       26.102 -14.994   2.251  0.00  0.00    +0.099 C 
ATOM      5  C   LIG    1       25.521 -15.938   3.321  0.00  0.00    +0.187 C 
ATOM      6  C   LIG    1       25.078 -15.199   4.603  0.00  0.00    +0.099 C 
ATOM      7  C   LIG    1       27.975 -14.218   3.763  0.00  0.00    +0.060 C 
ATOM      8  C   LIG    1       27.359 -14.231   5.163  0.00  0.00    +0.060 C 
ATOM      9  C   LIG    1       25.876 -13.921   4.947  0.00  0.00    +0.070 C 
ATOM     10  C   LIG    1       26.609 -11.609   4.128  0.00  0.00    +0.193 C 
BRANCH   2  12
ATOM     11  C   LIG    1       23.636 -11.837   4.141  0.00  0.00    +0.063 C 
ATOM     12  C   LIG    1       24.500 -12.603   3.133  0.00  0.00    +0.060 C 
ATOM     13  C   LIG    1       24.612 -11.835   1.812  0.00  0.00    +0.063 C 
ENDBRANCH   2  12
ENDBRANCH   1   5
BRANCH   1  14
ATOM     14  C   LIG    1       26.074 -18.257   3.276  0.00  0.00    +0.317 C 
ATOM     15  O   LIG    1       25.459 -18.508   2.231  0.00  0.00    -0.250 OA
BRANCH  14  16
ATOM     16  C   LIG    1       26.548 -19.320   4.267  0.00  0.00    +0.153 C 
BRANCH  16  17
ATOM     17  C   LIG    1       25.384 -19.903   5.062  0.00  0.00    -0.032 A 
ATOM     18  C   LIG    1       24.066 -19.855   4.580  0.00  0.00    +0.004 A 
ATOM     19  C   LIG    1       23.014 -20.378   5.336  0.00  0.00    +0.000 A 
ATOM     20  C   LIG    1       23.266 -20.971   6.571  0.00  0.00    +0.000 A 
ATOM     21  C   LIG    1       24.568 -21.026   7.062  0.00  0.00    +0.000 A 
ATOM     22  C   LIG    1       25.621 -20.487   6.317  0.00  0.00    +0.004 A 
ENDBRANCH  16  17
BRANCH  16  23
ATOM     23  C   LIG    1       27.623 -18.695   5.190  0.00  0.00    +0.175 C 
BRANCH  23  24
ATOM     24  O   LIG    1       28.740 -18.204   4.453  0.00  0.00    -0.394 OA
ATOM     25  H   LIG    1       28.781 -18.701   3.614  0.00  0.00    +0.209 HD
ENDBRANCH  23  24
ENDBRANCH  16  23
ENDBRANCH  14  16
ENDBRANCH   1  14
TORSDOF 7
ENDMDL
MODEL 2
REMARK VINA RESULT:      -0.4      2.152      6.771
REMARK  Name = *****
REMARK                            x       y       z     vdW  Elec       q    Type
REMARK                         _______ _______ _______ _____ _____    ______ ____
ROOT
ATOM      1  O   LIG    1       25.903 -16.741   2.762  0.00  0.00    -0.461 OA
ENDROOT
BRANCH   1   5
ATOM      2  N   LIG    1       24.487 -20.134   4.553  0.00  0.00    +0.247 N 
ATOM      3  C   LIG    1       25.847 -19.906   3.841  0.00  0.00    +0.070 C 
ATOM      4  C   LIG    1       26.477 -18.583   4.293  0.00  0.00    +0.099 C 
ATOM      5  C   LIG    1       25.597 -17.342   4.051  0.00  0.00    +0.187 C 
ATOM      6  C   LIG    1       24.086 -17.641   4.167  0.00  0.00    +0.099 C 
ATOM      7  C   LIG    1       25.465 -19.845   2.349  0.00  0.00    +0.060 C 
ATOM      8  C   LIG    1       24.008 -19.379   2.316  0.00  0.00    +0.060 C 
ATOM      9  C   LIG    1       23.656 -19.072   3.772  0.00  0.00    +0.070 C 
ATOM     10  C   LIG    1       23.964 -21.570   4.241  0.00  0.00    +0.193 C 
BRANCH   2  12
ATOM     11  C   LIG    1       23.154 -20.343   6.728  0.00  0.00    +0.063 C 
ATOM     12  C   LIG    1       24.497 -19.941   6.109  0.00  0.00    +0.060 C 
ATOM     13  C   LIG    1       25.654 -20.696   6.771  0.00  0.00    +0.063 C 
ENDBRANCH   2  12
ENDBRANCH   1   5
BRANCH   1  14
ATOM     14  C   LIG    1       26.378 -15.455   2.819  0.00  0.00    +0.317 C 
ATOM     15  O   LIG    1       26.853 -14.856   1.845  0.00  0.00    -0.250 OA
BRANCH  14  16
ATOM     16  C   LIG    1       26.183 -14.828   4.199  0.00  0.00    +0.153 C 
BRANCH  16  17
ATOM     17  C   LIG    1       25.238 -13.632   4.142  0.00  0.00    -0.032 A 
ATOM     18  C   LIG    1       24.903 -12.903   5.294  0.00  0.00    +0.004 A 
ATOM     19  C   LIG    1       24.019 -11.823   5.220  0.00  0.00    +0.000 A 
ATOM     20  C   LIG    1       23.475 -11.447   3.995  0.00  0.00    +0.000 A 
ATOM     21  C   LIG    1       23.798 -12.161   2.843  0.00  0.00    +0.000 A 
ATOM     22  C   LIG    1       24.667 -13.253   2.917  0.00  0.00    +0.004 A 
ENDBRANCH  16  17
BRANCH  16  23
ATOM     23  C   LIG    1       27.571 -14.441   4.769  0.00  0.00    +0.175 C 
BRANCH  23  24
ATOM     24  O   LIG    1       28.283 -13.570   3.894  0.00  0.00    -0.394 OA
ATOM     25  H   LIG    1       29.214 -13.862   3.881  0.00  0.00    +0.209 HD
ENDBRANCH  23  24
ENDBRANCH  16  23
ENDBRANCH  14  16
ENDBRANCH   1  14
TORSDOF 7
ENDMDL
MODEL 3
REMARK VINA RESULT:      -0.2      1.265      2.883
REMARK  Name = *****
REMARK                            x       y       z     vdW  Elec       q    Type
REMARK                         _______ _______ _______ _____ _____    ______ ____
ROOT
ATOM      1  O   LIG    1       25.620 -16.849   2.927  0.00  0.00    -0.461 OA
ENDROOT
BRANCH   1   5
ATOM      2  N   LIG    1       25.689 -12.881   3.916  0.00  0.00    +0.247 N 
ATOM      3  C   LIG    1       24.914 -14.039   4.598  0.00  0.00    +0.070 C 
ATOM      4  C   LIG    1       25.826 -15.257   4.795  0.00  0.00    +0.099 C 
ATOM      5  C   LIG    1       26.452 -15.800   3.497  0.00  0.00    +0.187 C 
ATOM      6  C   LIG    1       26.729 -14.698   2.451  0.00  0.00    +0.099 C 
ATOM      7  C   LIG    1       23.790 -14.359   3.594  0.00  0.00    +0.060 C 
ATOM      8  C   LIG    1       24.321 -13.921   2.227  0.00  0.00    +0.060 C 
ATOM      9  C   LIG    1       25.766 -13.490   2.483  0.00  0.00    +0.070 C 
ATOM     10  C   LIG    1       24.812 -11.591   3.912  0.00  0.00    +0.193 C 
BRANCH   2  12
ATOM     11  C   LIG    1       27.276 -13.248   5.891  0.00  0.00    +0.063 C 
ATOM     12  C   LIG    1       27.079 -12.530   4.552  0.00  0.00    +0.060 C 
ATOM     13  C   LIG    1       28.237 -12.830   3.594  0.00  0.00    +0.063 C 
ENDBRANCH   2  12
ENDBRANCH   1   5
BRANCH   1  14
ATOM     14  C   LIG    1       25.772 -18.086   3.500  0.00  0.00    +0.317 C 
ATOM     15  O   LIG    1       26.841 -18.497   3.970  0.00  0.00    -0.250 OA
BRANCH  14  16
ATOM     16  C   LIG    1       24.457 -18.863   3.557  0.00  0.00    +0.153 C 
BRANCH  16  17
ATOM     17  C   LIG    1       24.386 -19.754   4.793  0.00  0.00    -0.032 A 
ATOM     18  C   LIG    1       25.525 -20.399   5.302  0.00  0.00    +0.004 A 
ATOM     19  C   LIG    1       25.431 -21.226   6.424  0.00  0.00    +0.000 A 
ATOM     20  C   LIG    1       24.206 -21.405   7.062  0.00  0.00    +0.000 A 
ATOM     21  C   LIG    1       23.067 -20.772   6.568  0.00  0.00    +0.000 A 
ATOM     22  C   LIG    1       23.154 -19.959   5.435  0.00  0.00    +0.004 A 
ENDBRANCH  16  17
BRANCH  16  23
ATOM     23  C   LIG    1       24.303 -19.677   2.248  0.00  0.00    +0.175 C 
BRANCH  23  24
ATOM     24  O   LIG    1       24.152 -21.071   2.502  0.00  0.00    -0.394 OA
ATOM     25  H   LIG    1       23.633 -21.450   1.767  0.00  0.00    +0.209 HD
ENDBRANCH  23  24
ENDBRANCH  16  23
ENDBRANCH  14  16
ENDBRANCH   1  14
TORSDOF 7
ENDMDL
MODEL 4
REMARK VINA RESULT:      -0.2      2.724      7.264
REMARK  Name = *****
REMARK                            x       y       z     vdW  Elec       q    Type
REMARK                         _______ _______ _______ _____ _____    ______ ____
ROOT
ATOM      1  O   LIG    1       23.271 -16.098   3.690  0.00  0.00    -0.461 OA
ENDROOT
BRANCH   1   5
ATOM      2  N   LIG    1       23.144 -20.062   4.691  0.00  0.00    +0.247 N 
ATOM      3  C   LIG    1       23.720 -19.401   3.410  0.00  0.00    +0.070 C 
ATOM      4  C   LIG    1       24.580 -18.183   3.773  0.00  0.00    +0.099 C 
ATOM      5  C   LIG    1       23.841 -17.099   4.579  0.00  0.00    +0.187 C 
ATOM      6  C   LIG    1       22.756 -17.675   5.516  0.00  0.00    +0.099 C 
ATOM      7  C   LIG    1       22.463 -18.966   2.633  0.00  0.00    +0.060 C 
ATOM      8  C   LIG    1       21.372 -18.771   3.689  0.00  0.00    +0.060 C 
ATOM      9  C   LIG    1       22.077 -18.976   5.030  0.00  0.00    +0.070 C 
ATOM     10  C   LIG    1       22.448 -21.408   4.320  0.00  0.00    +0.193 C 
BRANCH   2  12
ATOM     11  C   LIG    1       23.500 -20.957   7.062  0.00  0.00    +0.063 C 
ATOM     12  C   LIG    1       24.179 -20.341   5.834  0.00  0.00    +0.060 C 
ATOM     13  C   LIG    1       25.340 -21.216   5.353  0.00  0.00    +0.063 C 
ENDBRANCH   2  12
ENDBRANCH   1   5
BRANCH   1  14
ATOM     14  C   LIG    1       23.574 -14.799   4.008  0.00  0.00    +0.317 C 
ATOM     15  O   LIG    1       23.172 -14.232   5.033  0.00  0.00    -0.250 OA
BRANCH  14  16
ATOM     16  C   LIG    1       24.522 -14.161   2.992  0.00  0.00    +0.153 C 
BRANCH  16  17
ATOM     17  C   LIG    1       25.860 -13.796   3.627  0.00  0.00    -0.032 A 
ATOM     18  C   LIG    1       25.996 -13.630   5.015  0.00  0.00    +0.004 A 
ATOM     19  C   LIG    1       27.227 -13.276   5.571  0.00  0.00    +0.000 A 
ATOM     20  C   LIG    1       28.341 -13.102   4.753  0.00  0.00    +0.000 A 
ATOM     21  C   LIG    1       28.221 -13.262   3.375  0.00  0.00    +0.000 A 
ATOM     22  C   LIG    1       26.987 -13.598   2.813  0.00  0.00    +0.004 A 
ENDBRANCH  16  17
BRANCH  16  23
ATOM     23  C   LIG    1       23.823 -12.928   2.367  0.00  0.00    +0.175 C 
BRANCH  23  24
ATOM     24  O   LIG    1       23.785 -11.823   3.266  0.00  0.00    -0.394 OA
ATOM     25  H   LIG    1       23.067 -11.989   3.907  0.00  0.00    +0.209 HD
ENDBRANCH  23  24
ENDBRANCH  16  23
ENDBRANCH  14  16
ENDBRANCH   1  14
TORSDOF 7
ENDMDL
MODEL 5
REMARK VINA RESULT:       0.1      2.452      7.223
REMARK  Name = *****
REMARK                            x       y       z     vdW  Elec       q    Type
REMARK                         _______ _______ _______ _____ _____    ______ ____
ROOT
ATOM      1  O   LIG    1       24.865 -17.450   3.315  0.00  0.00    -0.461 OA
ENDROOT
BRANCH   1   5
ATOM      2  N   LIG    1       22.757 -20.668   4.703  0.00  0.00    +0.247 N 
ATOM      3  C   LIG    1       23.247 -20.376   3.260  0.00  0.00    +0.070 C 
ATOM      4  C   LIG    1       24.708 -19.907   3.271  0.00  0.00    +0.099 C 
ATOM      5  C   LIG    1       24.968 -18.653   4.126  0.00  0.00    +0.187 C 
ATOM      6  C   LIG    1       24.041 -18.558   5.358  0.00  0.00    +0.099 C 
ATOM      7  C   LIG    1       22.316 -19.243   2.786  0.00  0.00    +0.060 C 
ATOM      8  C   LIG    1       21.859 -18.526   4.058  0.00  0.00    +0.060 C 
ATOM      9  C   LIG    1       22.642 -19.191   5.191  0.00  0.00    +0.070 C 
ATOM     10  C   LIG    1       21.348 -21.335   4.655  0.00  0.00    +0.193 C 
BRANCH   2  12
ATOM     11  C   LIG    1       25.132 -21.565   5.022  0.00  0.00    +0.063 C 
ATOM     12  C   LIG    1       23.701 -21.570   5.570  0.00  0.00    +0.060 C 
ATOM     13  C   LIG    1       23.678 -21.168   7.047  0.00  0.00    +0.063 C 
ENDBRANCH   2  12
ENDBRANCH   1   5
BRANCH   1  14
ATOM     14  C   LIG    1       25.949 -16.611   3.381  0.00  0.00    +0.317 C 
ATOM     15  O   LIG    1       27.120 -17.008   3.455  0.00  0.00    -0.250 OA
BRANCH  14  16
ATOM     16  C   LIG    1       25.550 -15.140   3.275  0.00  0.00    +0.153 C 
BRANCH  16  17
ATOM     17  C   LIG    1       26.623 -14.225   3.857  0.00  0.00    -0.032 A 
ATOM     18  C   LIG    1       27.707 -13.778   3.085  0.00  0.00    +0.004 A 
ATOM     19  C   LIG    1       28.688 -12.956   3.645  0.00  0.00    +0.000 A 
ATOM     20  C   LIG    1       28.590 -12.556   4.976  0.00  0.00    +0.000 A 
ATOM     21  C   LIG    1       27.520 -12.992   5.754  0.00  0.00    +0.000 A 
ATOM     22  C   LIG    1       26.547 -13.829   5.202  0.00  0.00    +0.004 A 
ENDBRANCH  16  17
BRANCH  16  23
ATOM     23  C   LIG    1       24.182 -14.945   3.977  0.00  0.00    +0.175 C 
BRANCH  23  24
ATOM     24  O   LIG    1       23.556 -13.724   3.594  0.00  0.00    -0.394 OA
ATOM     25  H   LIG    1       24.196 -13.003   3.747  0.00  0.00    +0.209 HD
ENDBRANCH  23  24
ENDBRANCH  16  23
ENDBRANCH  14  16
ENDBRANCH   1  14
TORSDOF 7
ENDMDL
MODEL 6
REMARK VINA RESULT:       0.3      0.819      1.809
REMARK  Name = *****
REMARK                            x       y       z     vdW  Elec       q    Type
REMARK                         _______ _______ _______ _____ _____    ______ ____
ROOT
ATOM      1  O   LIG    1       26.249 -16.983   3.990  0.00  0.00    -0.461 OA
ENDROOT
BRANCH   1   5
ATOM      2  N   LIG    1       24.918 -13.127   3.695  0.00  0.00    +0.247 N 
ATOM      3  C   LIG    1       26.125 -13.680   4.498  0.00  0.00    +0.070 C 
ATOM      4  C   LIG    1       26.947 -14.648   3.637  0.00  0.00    +0.099 C 
ATOM      5  C   LIG    1       26.150 -15.846   3.088  0.00  0.00    +0.187 C 
ATOM      6  C   LIG    1       24.671 -15.507   2.799  0.00  0.00    +0.099 C 
ATOM      7  C   LIG    1       25.464 -14.425   5.673  0.00  0.00    +0.060 C 
ATOM      8  C   LIG    1       24.076 -14.833   5.175  0.00  0.00    +0.060 C 
ATOM      9  C   LIG    1       24.046 -14.420   3.702  0.00  0.00    +0.070 C 
ATOM     10  C   LIG    1       24.217 -11.996   4.510  0.00  0.00    +0.193 C 
BRANCH   2  12
ATOM     11  C   LIG    1       24.225 -11.523   1.825  0.00  0.00    +0.063 C 
ATOM     12  C   LIG    1       25.251 -12.572   2.267  0.00  0.00    +0.060 C 
ATOM     13  C   LIG    1       26.675 -12.014   2.189  0.00  0.00    +0.063 C 
ENDBRANCH   2  12
ENDBRANCH   1   5
BRANCH   1  14
ATOM     14  C   LIG    1       26.108 -18.211   3.394  0.00  0.00    +0.317 C 
ATOM     15  O   LIG    1       25.734 -18.366   2.224  0.00  0.00    -0.250 OA
BRANCH  14  16
ATOM     16  C   LIG    1       26.537 -19.353   4.314  0.00  0.00    +0.153 C 
BRANCH  16  17
ATOM     17  C   LIG    1       25.365 -19.884   5.132  0.00  0.00    -0.032 A 
ATOM     18  C   LIG    1       25.561 -20.573   6.340  0.00  0.00    +0.004 A 
ATOM     19  C   LIG    1       24.472 -21.067   7.062  0.00  0.00    +0.000 A 
ATOM     20  C   LIG    1       23.174 -20.863   6.599  0.00  0.00    +0.000 A 
ATOM     21  C   LIG    1       22.963 -20.181   5.402  0.00  0.00    +0.000 A 
ATOM     22  C   LIG    1       24.052 -19.702   4.668  0.00  0.00    +0.004 A 
ENDBRANCH  16  17
BRANCH  16  23
ATOM     23  C   LIG    1       27.694 -18.857   5.216  0.00  0.00    +0.175 C 
BRANCH  23  24
ATOM     24  O   LIG    1       28.672 -18.130   4.477  0.00  0.00    -0.394 OA
ATOM     25  H   LIG    1       29.057 -17.461   5.075  0.00  0.00    +0.209 HD
ENDBRANCH  23  24
ENDBRANCH  16  23
ENDBRANCH  14  16
ENDBRANCH   1  14
TORSDOF 7
ENDMDL
MODEL 7
REMARK VINA RESULT:       0.5      0.927      1.667
REMARK  Name = *****
REMARK                            x       y       z     vdW  Elec       q    Type
REMARK                         _______ _______ _______ _____ _____    ______ ____
ROOT
ATOM      1  O   LIG    1       26.605 -16.846   2.949  0.00  0.00    -0.461 OA
ENDROOT
BRANCH   1   5
ATOM      2  N   LIG    1       25.781 -13.015   4.122  0.00  0.00    +0.247 N 
ATOM      3  C   LIG    1       26.669 -13.502   2.946  0.00  0.00    +0.070 C 
ATOM      4  C   LIG    1       25.957 -14.607   2.154  0.00  0.00    +0.099 C 
ATOM      5  C   LIG    1       25.559 -15.836   2.992  0.00  0.00    +0.187 C 
ATOM      6  C   LIG    1       25.204 -15.482   4.454  0.00  0.00    +0.099 C 
ATOM      7  C   LIG    1       27.922 -14.059   3.648  0.00  0.00    +0.060 C 
ATOM      8  C   LIG    1       27.460 -14.476   5.046  0.00  0.00    +0.060 C 
ATOM      9  C   LIG    1       25.946 -14.262   5.044  0.00  0.00    +0.070 C 
ATOM     10  C   LIG    1       26.428 -11.760   4.785  0.00  0.00    +0.193 C 
BRANCH   2  12
ATOM     11  C   LIG    1       23.634 -11.825   4.845  0.00  0.00    +0.063 C 
ATOM     12  C   LIG    1       24.298 -12.668   3.752  0.00  0.00    +0.060 C 
ATOM     13  C   LIG    1       24.196 -11.977   2.388  0.00  0.00    +0.063 C 
ENDBRANCH   2  12
ENDBRANCH   1   5
BRANCH   1  14
ATOM     14  C   LIG    1       26.357 -17.970   3.696  0.00  0.00    +0.317 C 
ATOM     15  O   LIG    1       27.105 -18.372   4.598  0.00  0.00    -0.250 OA
BRANCH  14  16
ATOM     16  C   LIG    1       25.022 -18.620   3.338  0.00  0.00    +0.153 C 
BRANCH  16  17
ATOM     17  C   LIG    1       24.430 -19.375   4.524  0.00  0.00    -0.032 A 
ATOM     18  C   LIG    1       23.065 -19.292   4.843  0.00  0.00    +0.004 A 
ATOM     19  C   LIG    1       22.550 -19.976   5.947  0.00  0.00    +0.000 A 
ATOM     20  C   LIG    1       23.386 -20.766   6.734  0.00  0.00    +0.000 A 
ATOM     21  C   LIG    1       24.742 -20.857   6.430  0.00  0.00    +0.000 A 
ATOM     22  C   LIG    1       25.264 -20.159   5.337  0.00  0.00    +0.004 A 
ENDBRANCH  16  17
BRANCH  16  23
ATOM     23  C   LIG    1       25.231 -19.544   2.112  0.00  0.00    +0.175 C 
BRANCH  23  24
ATOM     24  O   LIG    1       24.472 -20.746   2.214  0.00  0.00    -0.394 OA
ATOM     25  H   LIG    1       25.025 -21.474   1.871  0.00  0.00    +0.209 HD
ENDBRANCH  23  24
ENDBRANCH  16  23
ENDBRANCH  14  16
ENDBRANCH   1  14
TORSDOF 7
ENDMDL
MODEL 8
REMARK VINA RESULT:       0.7      2.457      7.125
REMARK  Name = *****
REMARK                            x       y       z     vdW  Elec       q    Type
REMARK                         _______ _______ _______ _____ _____    ______ ____
ROOT
ATOM      1  O   LIG    1       24.709 -16.324   3.201  0.00  0.00    -0.461 OA
ENDROOT
BRANCH   1   5
ATOM      2  N   LIG    1       24.145 -20.128   4.592  0.00  0.00    +0.247 N 
ATOM      3  C   LIG    1       25.299 -19.575   3.715  0.00  0.00    +0.070 C 
ATOM      4  C   LIG    1       25.813 -18.244   4.278  0.00  0.00    +0.099 C 
ATOM      5  C   LIG    1       24.739 -17.147   4.400  0.00  0.00    +0.187 C 
ATOM      6  C   LIG    1       23.334 -17.708   4.710  0.00  0.00    +0.099 C 
ATOM      7  C   LIG    1       24.637 -19.365   2.340  0.00  0.00    +0.060 C 
ATOM      8  C   LIG    1       23.150 -19.150   2.627  0.00  0.00    +0.060 C 
ATOM      9  C   LIG    1       23.041 -19.119   4.152  0.00  0.00    +0.070 C 
ATOM     10  C   LIG    1       23.777 -21.571   4.128  0.00  0.00    +0.193 C 
BRANCH   2  12
ATOM     11  C   LIG    1       23.234 -20.754   6.901  0.00  0.00    +0.063 C 
ATOM     12  C   LIG    1       24.422 -20.162   6.135  0.00  0.00    +0.060 C 
ATOM     13  C   LIG    1       25.716 -20.911   6.466  0.00  0.00    +0.063 C 
ENDBRANCH   2  12
ENDBRANCH   1   5
BRANCH   1  14
ATOM     14  C   LIG    1       24.573 -14.977   3.425  0.00  0.00    +0.317 C 
ATOM     15  O   LIG    1       23.751 -14.492   4.213  0.00  0.00    -0.250 OA
BRANCH  14  16
ATOM     16  C   LIG    1       25.601 -14.155   2.648  0.00  0.00    +0.153 C 
BRANCH  16  17
ATOM     17  C   LIG    1       26.681 -13.594   3.567  0.00  0.00    -0.032 A 
ATOM     18  C   LIG    1       27.950 -13.239   3.082  0.00  0.00    +0.004 A 
ATOM     19  C   LIG    1       28.929 -12.746   3.948  0.00  0.00    +0.000 A 
ATOM     20  C   LIG    1       28.649 -12.584   5.303  0.00  0.00    +0.000 A 
ATOM     21  C   LIG    1       27.394 -12.931   5.798  0.00  0.00    +0.000 A 
ATOM     22  C   LIG    1       26.418 -13.442   4.938  0.00  0.00    +0.004 A 
ENDBRANCH  16  17
BRANCH  16  23
ATOM     23  C   LIG    1       24.860 -13.035   1.876  0.00  0.00    +0.175 C 
BRANCH  23  24
ATOM     24  O   LIG    1       23.536 -12.837   2.363  0.00  0.00    -0.394 OA
ATOM     25  H   LIG    1       22.966 -13.516   1.954  0.00  0.00    +0.209 HD
ENDBRANCH  23  24
ENDBRANCH  16  23
ENDBRANCH  14  16
ENDBRANCH   1  14
TORSDOF 7
ENDMDL
MODEL 9
REMARK VINA RESULT:       0.9      1.333      2.379
REMARK  Name = *****
REMARK                            x       y       z     vdW  Elec       q    Type
REMARK                         _______ _______ _______ _____ _____    ______ ____
ROOT
ATOM      1  O   LIG    1       27.907 -16.819   4.053  0.00  0.00    -0.461 OA
ENDROOT
BRANCH   1   5
ATOM      2  N   LIG    1       25.763 -13.368   3.576  0.00  0.00    +0.247 N 
ATOM      3  C   LIG    1       25.911 -14.564   2.598  0.00  0.00    +0.070 C 
ATOM      4  C   LIG    1       25.738 -15.894   3.343  0.00  0.00    +0.099 C 
ATOM      5  C   LIG    1       26.723 -16.105   4.507  0.00  0.00    +0.187 C 
ATOM      6  C   LIG    1       27.119 -14.789   5.211  0.00  0.00    +0.099 C 
ATOM      7  C   LIG    1       27.351 -14.421   2.069  0.00  0.00    +0.060 C 
ATOM      8  C   LIG    1       28.118 -13.671   3.160  0.00  0.00    +0.060 C 
ATOM      9  C   LIG    1       27.126 -13.529   4.316  0.00  0.00    +0.070 C 
ATOM     10  C   LIG    1       25.737 -12.032   2.772  0.00  0.00    +0.193 C 
BRANCH   2  12
ATOM     11  C   LIG    1       23.864 -12.022   4.639  0.00  0.00    +0.063 C 
ATOM     12  C   LIG    1       24.504 -13.408   4.509  0.00  0.00    +0.060 C 
ATOM     13  C   LIG    1       23.478 -14.445   4.041  0.00  0.00    +0.063 C 
ENDBRANCH   2  12
ENDBRANCH   1   5
BRANCH   1  14
ATOM     14  C   LIG    1       28.537 -17.568   5.014  0.00  0.00    +0.317 C 
ATOM     15  O   LIG    1       29.098 -17.082   6.005  0.00  0.00    -0.250 OA
BRANCH  14  16
ATOM     16  C   LIG    1       28.401 -19.069   4.759  0.00  0.00    +0.153 C 
BRANCH  16  17
ATOM     17  C   LIG    1       26.993 -19.565   5.073  0.00  0.00    -0.032 A 
ATOM     18  C   LIG    1       26.667 -20.113   6.324  0.00  0.00    +0.004 A 
ATOM     19  C   LIG    1       25.375 -20.579   6.581  0.00  0.00    +0.000 A 
ATOM     20  C   LIG    1       24.390 -20.487   5.601  0.00  0.00    +0.000 A 
ATOM     21  C   LIG    1       24.698 -19.945   4.355  0.00  0.00    +0.000 A 
ATOM     22  C   LIG    1       25.994 -19.496   4.088  0.00  0.00    +0.004 A 
ENDBRANCH  16  17
BRANCH  16  23
ATOM     23  C   LIG    1       29.475 -19.814   5.589  0.00  0.00    +0.175 C 
BRANCH  23  24
ATOM     24  O   LIG    1       29.335 -19.567   6.986  0.00  0.00    -0.394 OA
ATOM     25  H   LIG    1       29.518 -20.404   7.454  0.00  0.00    +0.209 HD
ENDBRANCH  23  24
ENDBRANCH  16  23
ENDBRANCH  14  16
ENDBRANCH   1  14
TORSDOF 7
ENDMDL
