MODEL 1
REMARK VINA RESULT:      -5.9      0.000      0.000
REMARK  Name = *****
REMARK                            x       y       z     vdW  Elec       q    Type
REMARK                         _______ _______ _______ _____ _____    ______ ____
ROOT
ATOM      1  C   LIG    1       25.975 -21.216   5.580  0.00  0.00    +0.053 C 
ENDROOT
BRANCH   1   2
ATOM      2  C   LIG    1       24.744 -20.441   5.171  0.00  0.00    -0.046 A 
ATOM      3  C   LIG    1       24.771 -19.617   4.035  0.00  0.00    +0.003 A 
ATOM      4  C   LIG    1       23.648 -18.872   3.673  0.00  0.00    +0.000 A 
ATOM      5  C   LIG    1       22.490 -18.938   4.442  0.00  0.00    +0.000 A 
ATOM      6  C   LIG    1       22.446 -19.762   5.567  0.00  0.00    +0.000 A 
ATOM      7  C   LIG    1       23.568 -20.513   5.926  0.00  0.00    +0.003 A 
ENDBRANCH   1   2
BRANCH   1   8
ATOM      8  C   LIG    1       27.104 -20.364   6.212  0.00  0.00    +0.055 C 
ATOM      9  C   LIG    1       28.044 -21.233   7.062  0.00  0.00    +0.024 C 
BRANCH   8  11
ATOM     10  C   LIG    1       29.087 -18.990   5.742  0.00  0.00    +0.101 C 
ATOM     11  N   LIG    1       27.941 -19.701   5.189  0.00  0.00    -0.316 NA
ATOM     12  H   LIG    1       28.290 -20.409   4.540  0.00  0.00    +0.122 HD
ENDBRANCH   8  11
ENDBRANCH   1   8
TORSDOF 3
ENDMDL
MODEL 2
REMARK VINA RESULT:      -5.6      0.834      1.641
REMARK  Name = *****
REMARK                            x       y       z     vdW  Elec       q    Type
REMARK                         _______ _______ _______ _____ _____    ______ ____
ROOT
ATOM      1  C   LIG    1       26.397 -20.518   4.918  0.00  0.00    +0.053 C 
ENDROOT
BRANCH   1   2
ATOM      2  C   LIG    1       24.961 -20.048   4.856  0.00  0.00    -0.046 A 
ATOM      3  C   LIG    1       24.028 -20.497   5.804  0.00  0.00    +0.003 A 
ATOM      4  C   LIG    1       22.694 -20.093   5.730  0.00  0.00    +0.000 A 
ATOM      5  C   LIG    1       22.278 -19.244   4.710  0.00  0.00    +0.000 A 
ATOM      6  C   LIG    1       23.198 -18.783   3.768  0.00  0.00    +0.000 A 
ATOM      7  C   LIG    1       24.535 -19.181   3.845  0.00  0.00    +0.003 A 
ENDBRANCH   1   2
BRANCH   1   8
ATOM      8  C   LIG    1       27.109 -20.264   6.270  0.00  0.00    +0.055 C 
ATOM      9  C   LIG    1       27.277 -21.570   7.062  0.00  0.00    +0.024 C 
BRANCH   8  11
ATOM     10  C   LIG    1       29.460 -20.264   6.987  0.00  0.00    +0.101 C 
ATOM     11  N   LIG    1       28.463 -19.696   6.089  0.00  0.00    -0.316 NA
ATOM     12  H   LIG    1       28.766 -19.868   5.129  0.00  0.00    +0.122 HD
ENDBRANCH   8  11
ENDBRANCH   1   8
TORSDOF 3
ENDMDL
MODEL 3
REMARK VINA RESULT:      -5.0      1.847      4.984
REMARK  Name = *****
REMARK                            x       y       z     vdW  Elec       q    Type
REMARK                         _______ _______ _______ _____ _____    ______ ____
ROOT
ATOM      1  C   LIG    1       24.956 -21.008   6.222  0.00  0.00    +0.053 C 
ENDROOT
BRANCH   1   2
ATOM      2  C   LIG    1       26.439 -20.715   6.227  0.00  0.00    -0.046 A 
ATOM      3  C   LIG    1       27.309 -21.481   7.021  0.00  0.00    +0.003 A 
ATOM      4  C   LIG    1       28.674 -21.192   7.055  0.00  0.00    +0.000 A 
ATOM      5  C   LIG    1       29.183 -20.136   6.305  0.00  0.00    +0.000 A 
ATOM      6  C   LIG    1       28.330 -19.375   5.505  0.00  0.00    +0.000 A 
ATOM      7  C   LIG    1       26.965 -19.667   5.464  0.00  0.00    +0.003 A 
ENDBRANCH   1   2
BRANCH   1   8
ATOM      8  C   LIG    1       24.179 -20.418   5.019  0.00  0.00    +0.055 C 
ATOM      9  C   LIG    1       24.120 -21.417   3.853  0.00  0.00    +0.024 C 
BRANCH   8  11
ATOM     10  C   LIG    1       22.285 -18.881   4.712  0.00  0.00    +0.101 C 
ATOM     11  N   LIG    1       22.780 -20.085   5.368  0.00  0.00    -0.316 NA
ATOM     12  H   LIG    1       22.179 -20.865   5.095  0.00  0.00    +0.122 HD
ENDBRANCH   8  11
ENDBRANCH   1   8
TORSDOF 3
ENDMDL
MODEL 4
REMARK VINA RESULT:      -4.9      1.848      4.842
REMARK  Name = *****
REMARK                            x       y       z     vdW  Elec       q    Type
REMARK                         _______ _______ _______ _____ _____    ______ ____
ROOT
ATOM      1  C   LIG    1       24.896 -21.060   5.751  0.00  0.00    +0.053 C 
ENDROOT
BRANCH   1   2
ATOM      2  C   LIG    1       26.356 -20.739   5.981  0.00  0.00    -0.046 A 
ATOM      3  C   LIG    1       26.970 -19.692   5.276  0.00  0.00    +0.003 A 
ATOM      4  C   LIG    1       28.326 -19.415   5.460  0.00  0.00    +0.000 A 
ATOM      5  C   LIG    1       29.081 -20.181   6.343  0.00  0.00    +0.000 A 
ATOM      6  C   LIG    1       28.479 -21.217   7.057  0.00  0.00    +0.000 A 
ATOM      7  C   LIG    1       27.121 -21.491   6.879  0.00  0.00    +0.003 A 
ENDBRANCH   1   2
BRANCH   1   8
ATOM      8  C   LIG    1       24.154 -20.082   4.805  0.00  0.00    +0.055 C 
ATOM      9  C   LIG    1       23.920 -20.717   3.425  0.00  0.00    +0.024 C 
BRANCH   8  11
ATOM     10  C   LIG    1       22.110 -18.757   4.479  0.00  0.00    +0.101 C 
ATOM     11  N   LIG    1       22.826 -19.698   5.331  0.00  0.00    -0.316 NA
ATOM     12  H   LIG    1       22.254 -20.539   5.426  0.00  0.00    +0.122 HD
ENDBRANCH   8  11
ENDBRANCH   1   8
TORSDOF 3
ENDMDL
MODEL 5
REMARK VINA RESULT:      -4.9      1.828      4.832
REMARK  Name = *****
REMARK                            x       y       z     vdW  Elec       q    Type
REMARK                         _______ _______ _______ _____ _____    ______ ____
ROOT
ATOM      1  C   LIG    1       25.268 -19.782   4.158  0.00  0.00    +0.053 C 
ENDROOT
BRANCH   1   2
ATOM      2  C   LIG    1       26.332 -20.102   5.182  0.00  0.00    -0.046 A 
ATOM      3  C   LIG    1       27.558 -19.417   5.166  0.00  0.00    +0.003 A 
ATOM      4  C   LIG    1       28.557 -19.733   6.088  0.00  0.00    +0.000 A 
ATOM      5  C   LIG    1       28.346 -20.736   7.030  0.00  0.00    +0.000 A 
ATOM      6  C   LIG    1       27.128 -21.416   7.062  0.00  0.00    +0.000 A 
ATOM      7  C   LIG    1       26.125 -21.096   6.144  0.00  0.00    +0.003 A 
ENDBRANCH   1   2
BRANCH   1   8
ATOM      8  C   LIG    1       23.819 -19.763   4.706  0.00  0.00    +0.055 C 
ATOM      9  C   LIG    1       22.997 -18.636   4.060  0.00  0.00    +0.024 C 
BRANCH   8  11
ATOM     10  C   LIG    1       22.397 -21.563   5.589  0.00  0.00    +0.101 C 
ATOM     11  N   LIG    1       23.102 -21.028   4.431  0.00  0.00    -0.316 NA
ATOM     12  H   LIG    1       22.418 -20.863   3.691  0.00  0.00    +0.122 HD
ENDBRANCH   8  11
ENDBRANCH   1   8
TORSDOF 3
ENDMDL
MODEL 6
REMARK VINA RESULT:      -4.5      5.258      6.424
REMARK  Name = *****
REMARK                            x       y       z     vdW  Elec       q    Type
REMARK                         _______ _______ _______ _____ _____    ______ ____
ROOT
ATOM      1  C   LIG    1       25.114 -15.495   3.778  0.00  0.00    +0.053 C 
ENDROOT
BRANCH   1   2
ATOM      2  C   LIG    1       24.688 -14.087   3.431  0.00  0.00    -0.046 A 
ATOM      3  C   LIG    1       24.864 -13.595   2.128  0.00  0.00    +0.003 A 
ATOM      4  C   LIG    1       24.503 -12.284   1.812  0.00  0.00    +0.000 A 
ATOM      5  C   LIG    1       23.971 -11.451   2.792  0.00  0.00    +0.000 A 
ATOM      6  C   LIG    1       23.782 -11.932   4.088  0.00  0.00    +0.000 A 
ATOM      7  C   LIG    1       24.136 -13.246   4.404  0.00  0.00    +0.003 A 
ENDBRANCH   1   2
BRANCH   1   8
ATOM      8  C   LIG    1       26.510 -15.905   3.245  0.00  0.00    +0.055 C 
ATOM      9  C   LIG    1       27.628 -15.149   3.981  0.00  0.00    +0.024 C 
BRANCH   8  11
ATOM     10  C   LIG    1       25.589 -18.183   3.293  0.00  0.00    +0.101 C 
ATOM     11  N   LIG    1       26.776 -17.348   3.430  0.00  0.00    -0.316 NA
ATOM     12  H   LIG    1       27.458 -17.649   2.731  0.00  0.00    +0.122 HD
ENDBRANCH   8  11
ENDBRANCH   1   8
TORSDOF 3
ENDMDL
MODEL 7
REMARK VINA RESULT:      -4.4      5.881      6.919
REMARK  Name = *****
REMARK                            x       y       z     vdW  Elec       q    Type
REMARK                         _______ _______ _______ _____ _____    ______ ____
ROOT
ATOM      1  C   LIG    1       26.058 -15.027   3.250  0.00  0.00    +0.053 C 
ENDROOT
BRANCH   1   2
ATOM      2  C   LIG    1       25.237 -13.759   3.281  0.00  0.00    -0.046 A 
ATOM      3  C   LIG    1       24.640 -13.331   4.478  0.00  0.00    +0.003 A 
ATOM      4  C   LIG    1       23.852 -12.179   4.504  0.00  0.00    +0.000 A 
ATOM      5  C   LIG    1       23.648 -11.447   3.338  0.00  0.00    +0.000 A 
ATOM      6  C   LIG    1       24.244 -11.856   2.145  0.00  0.00    +0.000 A 
ATOM      7  C   LIG    1       25.039 -13.005   2.119  0.00  0.00    +0.003 A 
ENDBRANCH   1   2
BRANCH   1   8
ATOM      8  C   LIG    1       27.364 -14.980   4.083  0.00  0.00    +0.055 C 
ATOM      9  C   LIG    1       27.967 -16.384   4.244  0.00  0.00    +0.024 C 
BRANCH   8  11
ATOM     10  C   LIG    1       28.571 -12.840   4.085  0.00  0.00    +0.101 C 
ATOM     11  N   LIG    1       28.401 -14.139   3.447  0.00  0.00    -0.316 NA
ATOM     12  H   LIG    1       29.294 -14.632   3.487  0.00  0.00    +0.122 HD
ENDBRANCH   8  11
ENDBRANCH   1   8
TORSDOF 3
ENDMDL
MODEL 8
REMARK VINA RESULT:      -4.3      3.637      5.034
REMARK  Name = *****
REMARK                            x       y       z     vdW  Elec       q    Type
REMARK                         _______ _______ _______ _____ _____    ______ ____
ROOT
ATOM      1  C   LIG    1       25.851 -17.612   3.018  0.00  0.00    +0.053 C 
ENDROOT
BRANCH   1   2
ATOM      2  C   LIG    1       25.935 -16.178   3.489  0.00  0.00    -0.046 A 
ATOM      3  C   LIG    1       27.185 -15.562   3.664  0.00  0.00    +0.003 A 
ATOM      4  C   LIG    1       27.268 -14.250   4.131  0.00  0.00    +0.000 A 
ATOM      5  C   LIG    1       26.109 -13.542   4.434  0.00  0.00    +0.000 A 
ATOM      6  C   LIG    1       24.861 -14.139   4.255  0.00  0.00    +0.000 A 
ATOM      7  C   LIG    1       24.776 -15.450   3.780  0.00  0.00    +0.003 A 
ENDBRANCH   1   2
BRANCH   1   8
ATOM      8  C   LIG    1       25.224 -18.598   4.036  0.00  0.00    +0.055 C 
ATOM      9  C   LIG    1       23.842 -19.075   3.565  0.00  0.00    +0.024 C 
BRANCH   8  11
ATOM     10  C   LIG    1       25.506 -20.748   5.193  0.00  0.00    +0.101 C 
ATOM     11  N   LIG    1       26.054 -19.808   4.224  0.00  0.00    -0.316 NA
ATOM     12  H   LIG    1       26.140 -20.290   3.327  0.00  0.00    +0.122 HD
ENDBRANCH   8  11
ENDBRANCH   1   8
TORSDOF 3
ENDMDL
MODEL 9
REMARK VINA RESULT:      -4.3      2.630      3.486
REMARK  Name = *****
REMARK                            x       y       z     vdW  Elec       q    Type
REMARK                         _______ _______ _______ _____ _____    ______ ____
ROOT
ATOM      1  C   LIG    1       25.598 -18.251   3.032  0.00  0.00    +0.053 C 
ENDROOT
BRANCH   1   2
ATOM      2  C   LIG    1       24.604 -19.022   3.871  0.00  0.00    -0.046 A 
ATOM      3  C   LIG    1       23.267 -18.601   3.949  0.00  0.00    +0.003 A 
ATOM      4  C   LIG    1       22.354 -19.290   4.749  0.00  0.00    +0.000 A 
ATOM      5  C   LIG    1       22.766 -20.399   5.482  0.00  0.00    +0.000 A 
ATOM      6  C   LIG    1       24.090 -20.832   5.405  0.00  0.00    +0.000 A 
ATOM      7  C   LIG    1       25.003 -20.148   4.599  0.00  0.00    +0.003 A 
ENDBRANCH   1   2
BRANCH   1   8
ATOM      8  C   LIG    1       26.176 -16.982   3.708  0.00  0.00    +0.055 C 
ATOM      9  C   LIG    1       27.652 -17.181   4.089  0.00  0.00    +0.024 C 
BRANCH   8  11
ATOM     10  C   LIG    1       26.998 -14.714   3.232  0.00  0.00    +0.101 C 
ATOM     11  N   LIG    1       26.120 -15.801   2.817  0.00  0.00    -0.316 NA
ATOM     12  H   LIG    1       26.393 -16.087   1.875  0.00  0.00    +0.122 HD
ENDBRANCH   8  11
ENDBRANCH   1   8
TORSDOF 3
ENDMDL
