MODEL 1
REMARK VINA RESULT:      -6.8      0.000      0.000
REMARK  Name = *****
REMARK                            x       y       z     vdW  Elec       q    Type
REMARK                         _______ _______ _______ _____ _____    ______ ____
ROOT
ATOM      1  C   LIG    1       29.571 -19.811   8.308  0.00  0.00    +0.201 C 
ATOM      2  C   LIG    1       29.591 -19.622   6.768  0.00  0.00    +0.042 C 
ATOM      3  C   LIG    1       28.507 -18.629   6.306  0.00  0.00    +0.025 C 
ATOM      4  C   LIG    1       30.929 -19.149   6.184  0.00  0.00    +0.025 C 
ATOM      5  S   LIG    1       29.151 -21.272   6.024  0.00  0.00    -0.127 S 
ATOM      6  C   LIG    1       28.600 -22.008   7.622  0.00  0.00    +0.165 C 
ATOM      7  C   LIG    1       27.075 -22.084   7.889  0.00  0.00    +0.190 C 
ATOM      8  C   LIG    1       27.296 -20.726   8.597  0.00  0.00    +0.240 C 
ATOM      9  O   LIG    1       26.635 -19.751   8.899  0.00  0.00    -0.273 OA
ATOM     10  N   LIG    1       28.648 -20.901   8.592  0.00  0.00    -0.271 N 
ENDROOT
BRANCH   7  11
ATOM     11  N   LIG    1       26.174 -22.098   6.706  0.00  0.00    -0.300 N 
ATOM     12  H   LIG    1       26.564 -22.155   5.771  0.00  0.00    +0.150 HD
ATOM     13  C   LIG    1       24.801 -22.041   6.860  0.00  0.00    +0.235 C 
ATOM     14  O   LIG    1       24.270 -21.967   7.970  0.00  0.00    -0.274 OA
BRANCH  13  15
ATOM     15  C   LIG    1       23.981 -22.132   5.549  0.00  0.00    +0.168 C 
BRANCH  15  16
ATOM     16  C   LIG    1       23.746 -20.753   4.957  0.00  0.00    -0.022 A 
ATOM     17  C   LIG    1       24.679 -20.156   4.089  0.00  0.00    +0.006 A 
ATOM     18  C   LIG    1       24.443 -18.888   3.554  0.00  0.00    +0.000 A 
ATOM     19  C   LIG    1       23.278 -18.199   3.880  0.00  0.00    +0.000 A 
ATOM     20  C   LIG    1       22.346 -18.776   4.739  0.00  0.00    +0.000 A 
ATOM     21  C   LIG    1       22.576 -20.045   5.273  0.00  0.00    +0.006 A 
ENDBRANCH  15  16
BRANCH  15  22
ATOM     22  N   LIG    1       24.674 -23.017   4.595  0.00  0.00    -0.316 NA
ATOM     23  H   LIG    1       25.647 -23.115   4.880  0.00  0.00    +0.119 HD
ATOM     24  H   LIG    1       24.254 -23.947   4.680  0.00  0.00    +0.119 HD
ENDBRANCH  15  22
ENDBRANCH  13  15
ENDBRANCH   7  11
BRANCH   1  25
ATOM     25  C   LIG    1       30.917 -20.208   8.933  0.00  0.00    +0.332 C 
ATOM     26  O   LIG    1       31.181 -21.305   9.409  0.00  0.00    -0.249 OA
BRANCH  25  27
ATOM     27  O   LIG    1       31.798 -19.180   8.834  0.00  0.00    -0.423 OA
BRANCH  27  28
ATOM     28  C   LIG    1       31.378 -17.930   9.414  0.00  0.00    +0.370 C 
ATOM     29  C   LIG    1       32.302 -16.822   8.926  0.00  0.00    +0.100 C 
BRANCH  28  30
ATOM     30  O   LIG    1       31.474 -18.141  10.823  0.00  0.00    -0.394 OA
BRANCH  30  31
ATOM     31  C   LIG    1       31.224 -17.074  11.604  0.00  0.00    +0.513 C 
ATOM     32  O   LIG    1       30.361 -16.232  11.423  0.00  0.00    -0.203 OA
BRANCH  31  33
ATOM     33  O   LIG    1       32.065 -17.150  12.663  0.00  0.00    -0.434 OA
BRANCH  33  35
ATOM     34  C   LIG    1       32.411 -15.894  14.725  0.00  0.00    +0.048 C 
ATOM     35  C   LIG    1       32.491 -15.900  13.209  0.00  0.00    +0.232 C 
ENDBRANCH  33  35
ENDBRANCH  31  33
ENDBRANCH  30  31
ENDBRANCH  28  30
ENDBRANCH  27  28
ENDBRANCH  25  27
ENDBRANCH   1  25
TORSDOF 11
ENDMDL
MODEL 2
REMARK VINA RESULT:      -6.7      3.500      9.463
REMARK  Name = *****
REMARK                            x       y       z     vdW  Elec       q    Type
REMARK                         _______ _______ _______ _____ _____    ______ ____
ROOT
ATOM      1  C   LIG    1       24.539 -22.818   6.255  0.00  0.00    +0.201 C 
ATOM      2  C   LIG    1       24.282 -21.438   5.592  0.00  0.00    +0.042 C 
ATOM      3  C   LIG    1       25.340 -21.121   4.518  0.00  0.00    +0.025 C 
ATOM      4  C   LIG    1       22.901 -21.270   4.944  0.00  0.00    +0.025 C 
ATOM      5  S   LIG    1       24.486 -20.160   6.932  0.00  0.00    -0.127 S 
ATOM      6  C   LIG    1       25.238 -21.334   8.137  0.00  0.00    +0.165 C 
ATOM      7  C   LIG    1       26.778 -21.294   8.312  0.00  0.00    +0.190 C 
ATOM      8  C   LIG    1       26.765 -22.411   7.241  0.00  0.00    +0.240 C 
ATOM      9  O   LIG    1       27.529 -22.878   6.418  0.00  0.00    -0.273 OA
ATOM     10  N   LIG    1       25.421 -22.589   7.390  0.00  0.00    -0.271 N 
ENDROOT
BRANCH   7  11
ATOM     11  N   LIG    1       27.473 -20.026   7.965  0.00  0.00    -0.300 N 
ATOM     12  H   LIG    1       26.934 -19.203   7.717  0.00  0.00    +0.150 HD
ATOM     13  C   LIG    1       28.853 -19.947   7.983  0.00  0.00    +0.235 C 
ATOM     14  O   LIG    1       29.561 -20.914   8.272  0.00  0.00    -0.274 OA
BRANCH  13  15
ATOM     15  C   LIG    1       29.443 -18.549   7.667  0.00  0.00    +0.168 C 
BRANCH  15  16
ATOM     16  C   LIG    1       30.296 -18.045   8.818  0.00  0.00    -0.022 A 
ATOM     17  C   LIG    1       29.773 -17.904  10.116  0.00  0.00    +0.006 A 
ATOM     18  C   LIG    1       30.575 -17.439  11.160  0.00  0.00    +0.000 A 
ATOM     19  C   LIG    1       31.906 -17.108  10.923  0.00  0.00    +0.000 A 
ATOM     20  C   LIG    1       32.438 -17.242   9.643  0.00  0.00    +0.000 A 
ATOM     21  C   LIG    1       31.641 -17.708   8.597  0.00  0.00    +0.006 A 
ENDBRANCH  15  16
BRANCH  15  22
ATOM     22  N   LIG    1       30.214 -18.612   6.412  0.00  0.00    -0.316 NA
ATOM     23  H   LIG    1       30.127 -17.723   5.924  0.00  0.00    +0.119 HD
ATOM     24  H   LIG    1       31.202 -18.707   6.663  0.00  0.00    +0.119 HD
ENDBRANCH  15  22
ENDBRANCH  13  15
ENDBRANCH   7  11
BRANCH   1  25
ATOM     25  C   LIG    1       23.288 -23.516   6.811  0.00  0.00    +0.332 C 
ATOM     26  O   LIG    1       22.463 -23.004   7.555  0.00  0.00    -0.249 OA
BRANCH  25  27
ATOM     27  O   LIG    1       23.197 -24.776   6.312  0.00  0.00    -0.423 OA
BRANCH  27  28
ATOM     28  C   LIG    1       24.438 -25.495   6.181  0.00  0.00    +0.370 C 
ATOM     29  C   LIG    1       24.977 -25.299   4.770  0.00  0.00    +0.100 C 
BRANCH  28  30
ATOM     30  O   LIG    1       24.092 -26.854   6.451  0.00  0.00    -0.394 OA
BRANCH  30  31
ATOM     31  C   LIG    1       25.087 -27.647   6.890  0.00  0.00    +0.513 C 
ATOM     32  O   LIG    1       26.084 -27.287   7.493  0.00  0.00    -0.203 OA
BRANCH  31  33
ATOM     33  O   LIG    1       24.740 -28.922   6.597  0.00  0.00    -0.434 OA
BRANCH  33  35
ATOM     34  C   LIG    1       25.571 -30.821   5.313  0.00  0.00    +0.048 C 
ATOM     35  C   LIG    1       25.096 -29.379   5.291  0.00  0.00    +0.232 C 
ENDBRANCH  33  35
ENDBRANCH  31  33
ENDBRANCH  30  31
ENDBRANCH  28  30
ENDBRANCH  27  28
ENDBRANCH  25  27
ENDBRANCH   1  25
TORSDOF 11
ENDMDL
MODEL 3
REMARK VINA RESULT:      -6.7      8.824     12.534
REMARK  Name = *****
REMARK                            x       y       z     vdW  Elec       q    Type
REMARK                         _______ _______ _______ _____ _____    ______ ____
ROOT
ATOM      1  C   LIG    1       25.885 -31.049   8.236  0.00  0.00    +0.201 C 
ATOM      2  C   LIG    1       24.662 -31.484   9.086  0.00  0.00    +0.042 C 
ATOM      3  C   LIG    1       23.625 -30.351   9.207  0.00  0.00    +0.025 C 
ATOM      4  C   LIG    1       23.925 -32.732   8.582  0.00  0.00    +0.025 C 
ATOM      5  S   LIG    1       25.299 -31.806  10.806  0.00  0.00    -0.127 S 
ATOM      6  C   LIG    1       26.945 -31.036  10.497  0.00  0.00    +0.165 C 
ATOM      7  C   LIG    1       27.176 -29.598  11.029  0.00  0.00    +0.190 C 
ATOM      8  C   LIG    1       26.718 -29.176   9.612  0.00  0.00    +0.240 C 
ATOM      9  O   LIG    1       26.237 -28.195   9.076  0.00  0.00    -0.273 OA
ATOM     10  N   LIG    1       26.849 -30.452   9.149  0.00  0.00    -0.271 N 
ENDROOT
BRANCH   7  11
ATOM     11  N   LIG    1       26.341 -29.151  12.176  0.00  0.00    -0.300 N 
ATOM     12  H   LIG    1       25.779 -29.823  12.688  0.00  0.00    +0.150 HD
ATOM     13  C   LIG    1       26.324 -27.824  12.565  0.00  0.00    +0.235 C 
ATOM     14  O   LIG    1       26.982 -26.962  11.980  0.00  0.00    -0.274 OA
BRANCH  13  15
ATOM     15  C   LIG    1       25.465 -27.510  13.816  0.00  0.00    +0.168 C 
BRANCH  15  16
ATOM     16  C   LIG    1       23.986 -27.503  13.474  0.00  0.00    -0.022 A 
ATOM     17  C   LIG    1       23.196 -26.352  13.645  0.00  0.00    +0.006 A 
ATOM     18  C   LIG    1       21.837 -26.367  13.323  0.00  0.00    +0.000 A 
ATOM     19  C   LIG    1       21.249 -27.529  12.829  0.00  0.00    +0.000 A 
ATOM     20  C   LIG    1       22.018 -28.677  12.656  0.00  0.00    +0.000 A 
ATOM     21  C   LIG    1       23.377 -28.665  12.973  0.00  0.00    +0.006 A 
ENDBRANCH  15  16
BRANCH  15  22
ATOM     22  N   LIG    1       25.768 -28.487  14.879  0.00  0.00    -0.316 NA
ATOM     23  H   LIG    1       25.781 -28.006  15.776  0.00  0.00    +0.119 HD
ATOM     24  H   LIG    1       24.989 -29.149  14.917  0.00  0.00    +0.119 HD
ENDBRANCH  15  22
ENDBRANCH  13  15
ENDBRANCH   7  11
BRANCH   1  25
ATOM     25  C   LIG    1       26.618 -32.191   7.517  0.00  0.00    +0.332 C 
ATOM     26  O   LIG    1       27.003 -33.227   8.042  0.00  0.00    -0.249 OA
BRANCH  25  27
ATOM     27  O   LIG    1       26.732 -31.912   6.193  0.00  0.00    -0.423 OA
BRANCH  27  28
ATOM     28  C   LIG    1       25.501 -31.636   5.498  0.00  0.00    +0.370 C 
ATOM     29  C   LIG    1       25.356 -32.614   4.339  0.00  0.00    +0.100 C 
BRANCH  28  30
ATOM     30  O   LIG    1       25.637 -30.283   5.058  0.00  0.00    -0.394 OA
BRANCH  30  31
ATOM     31  C   LIG    1       24.727 -29.410   5.526  0.00  0.00    +0.513 C 
ATOM     32  O   LIG    1       23.583 -29.668   5.861  0.00  0.00    -0.203 OA
BRANCH  31  33
ATOM     33  O   LIG    1       25.341 -28.207   5.621  0.00  0.00    -0.434 OA
BRANCH  33  35
ATOM     34  C   LIG    1       25.391 -25.925   6.479  0.00  0.00    +0.048 C 
ATOM     35  C   LIG    1       24.547 -27.144   6.154  0.00  0.00    +0.232 C 
ENDBRANCH  33  35
ENDBRANCH  31  33
ENDBRANCH  30  31
ENDBRANCH  28  30
ENDBRANCH  27  28
ENDBRANCH  25  27
ENDBRANCH   1  25
TORSDOF 11
ENDMDL
MODEL 4
REMARK VINA RESULT:      -6.2      8.688     12.483
REMARK  Name = *****
REMARK                            x       y       z     vdW  Elec       q    Type
REMARK                         _______ _______ _______ _____ _____    ______ ____
ROOT
ATOM      1  C   LIG    1       24.831 -31.070  10.571  0.00  0.00    +0.201 C 
ATOM      2  C   LIG    1       25.956 -30.060  10.919  0.00  0.00    +0.042 C 
ATOM      3  C   LIG    1       25.416 -28.619  11.006  0.00  0.00    +0.025 C 
ATOM      4  C   LIG    1       26.716 -30.348  12.221  0.00  0.00    +0.025 C 
ATOM      5  S   LIG    1       27.156 -30.090   9.495  0.00  0.00    -0.127 S 
ATOM      6  C   LIG    1       26.038 -31.048   8.385  0.00  0.00    +0.165 C 
ATOM      7  C   LIG    1       25.264 -30.262   7.295  0.00  0.00    +0.190 C 
ATOM      8  C   LIG    1       24.146 -30.203   8.363  0.00  0.00    +0.240 C 
ATOM      9  O   LIG    1       23.181 -29.509   8.619  0.00  0.00    -0.273 OA
ATOM     10  N   LIG    1       24.767 -31.154   9.119  0.00  0.00    -0.271 N 
ENDROOT
BRANCH   7  11
ATOM     11  N   LIG    1       25.843 -28.968   6.843  0.00  0.00    -0.300 N 
ATOM     12  H   LIG    1       26.701 -28.623   7.260  0.00  0.00    +0.150 HD
ATOM     13  C   LIG    1       25.230 -28.226   5.851  0.00  0.00    +0.235 C 
ATOM     14  O   LIG    1       24.184 -28.593   5.311  0.00  0.00    -0.274 OA
BRANCH  13  15
ATOM     15  C   LIG    1       25.976 -26.935   5.431  0.00  0.00    +0.168 C 
BRANCH  15  16
ATOM     16  C   LIG    1       25.315 -25.705   6.028  0.00  0.00    -0.022 A 
ATOM     17  C   LIG    1       26.070 -24.677   6.619  0.00  0.00    +0.006 A 
ATOM     18  C   LIG    1       25.442 -23.553   7.162  0.00  0.00    +0.000 A 
ATOM     19  C   LIG    1       24.055 -23.443   7.123  0.00  0.00    +0.000 A 
ATOM     20  C   LIG    1       23.293 -24.453   6.541  0.00  0.00    +0.000 A 
ATOM     21  C   LIG    1       23.917 -25.576   5.995  0.00  0.00    +0.006 A 
ENDBRANCH  15  16
BRANCH  15  22
ATOM     22  N   LIG    1       27.392 -27.033   5.830  0.00  0.00    -0.316 NA
ATOM     23  H   LIG    1       27.908 -27.527   5.104  0.00  0.00    +0.119 HD
ATOM     24  H   LIG    1       27.770 -26.082   5.856  0.00  0.00    +0.119 HD
ENDBRANCH  15  22
ENDBRANCH  13  15
ENDBRANCH   7  11
BRANCH   1  25
ATOM     25  C   LIG    1       25.061 -32.501  11.078  0.00  0.00    +0.332 C 
ATOM     26  O   LIG    1       26.077 -33.161  10.900  0.00  0.00    -0.249 OA
BRANCH  25  27
ATOM     27  O   LIG    1       23.993 -32.916  11.806  0.00  0.00    -0.423 OA
BRANCH  27  28
ATOM     28  C   LIG    1       22.977 -31.927  12.056  0.00  0.00    +0.370 C 
ATOM     29  C   LIG    1       22.911 -31.650  13.552  0.00  0.00    +0.100 C 
BRANCH  28  30
ATOM     30  O   LIG    1       21.776 -32.516  11.555  0.00  0.00    -0.394 OA
BRANCH  30  31
ATOM     31  C   LIG    1       21.322 -32.041  10.381  0.00  0.00    +0.513 C 
ATOM     32  O   LIG    1       21.589 -32.477   9.274  0.00  0.00    -0.203 OA
BRANCH  31  33
ATOM     33  O   LIG    1       20.463 -31.033  10.663  0.00  0.00    -0.434 OA
BRANCH  33  35
ATOM     34  C   LIG    1       18.165 -31.351   9.912  0.00  0.00    +0.048 C 
ATOM     35  C   LIG    1       19.150 -31.429  11.064  0.00  0.00    +0.232 C 
ENDBRANCH  33  35
ENDBRANCH  31  33
ENDBRANCH  30  31
ENDBRANCH  28  30
ENDBRANCH  27  28
ENDBRANCH  25  27
ENDBRANCH   1  25
TORSDOF 11
ENDMDL
MODEL 5
REMARK VINA RESULT:      -6.0      8.856     12.698
REMARK  Name = *****
REMARK                            x       y       z     vdW  Elec       q    Type
REMARK                         _______ _______ _______ _____ _____    ______ ____
ROOT
ATOM      1  C   LIG    1       25.698 -31.085   8.160  0.00  0.00    +0.201 C 
ATOM      2  C   LIG    1       24.502 -31.405   9.097  0.00  0.00    +0.042 C 
ATOM      3  C   LIG    1       23.592 -30.177   9.292  0.00  0.00    +0.025 C 
ATOM      4  C   LIG    1       23.613 -32.572   8.648  0.00  0.00    +0.025 C 
ATOM      5  S   LIG    1       25.228 -31.799  10.766  0.00  0.00    -0.127 S 
ATOM      6  C   LIG    1       26.914 -31.191  10.338  0.00  0.00    +0.165 C 
ATOM      7  C   LIG    1       27.322 -29.786  10.852  0.00  0.00    +0.190 C 
ATOM      8  C   LIG    1       26.807 -29.311   9.472  0.00  0.00    +0.240 C 
ATOM      9  O   LIG    1       26.387 -28.285   8.972  0.00  0.00    -0.273 OA
ATOM     10  N   LIG    1       26.779 -30.591   9.001  0.00  0.00    -0.271 N 
ENDROOT
BRANCH   7  11
ATOM     11  N   LIG    1       26.620 -29.268  12.057  0.00  0.00    -0.300 N 
ATOM     12  H   LIG    1       25.746 -28.762  11.957  0.00  0.00    +0.150 HD
ATOM     13  C   LIG    1       27.140 -29.472  13.321  0.00  0.00    +0.235 C 
ATOM     14  O   LIG    1       28.200 -30.075  13.504  0.00  0.00    -0.274 OA
BRANCH  13  15
ATOM     15  C   LIG    1       26.273 -28.939  14.489  0.00  0.00    +0.168 C 
BRANCH  15  16
ATOM     16  C   LIG    1       25.854 -27.500  14.245  0.00  0.00    -0.022 A 
ATOM     17  C   LIG    1       26.794 -26.453  14.224  0.00  0.00    +0.006 A 
ATOM     18  C   LIG    1       26.387 -25.136  13.996  0.00  0.00    +0.000 A 
ATOM     19  C   LIG    1       25.041 -24.848  13.789  0.00  0.00    +0.000 A 
ATOM     20  C   LIG    1       24.099 -25.873  13.808  0.00  0.00    +0.000 A 
ATOM     21  C   LIG    1       24.502 -27.191  14.033  0.00  0.00    +0.006 A 
ENDBRANCH  15  16
BRANCH  15  22
ATOM     22  N   LIG    1       25.102 -29.817  14.674  0.00  0.00    -0.316 NA
ATOM     23  H   LIG    1       25.381 -30.781  14.501  0.00  0.00    +0.119 HD
ATOM     24  H   LIG    1       24.834 -29.767  15.660  0.00  0.00    +0.119 HD
ENDBRANCH  15  22
ENDBRANCH  13  15
ENDBRANCH   7  11
BRANCH   1  25
ATOM     25  C   LIG    1       26.262 -32.288   7.390  0.00  0.00    +0.332 C 
ATOM     26  O   LIG    1       26.382 -33.422   7.836  0.00  0.00    -0.249 OA
BRANCH  25  27
ATOM     27  O   LIG    1       26.560 -31.928   6.115  0.00  0.00    -0.423 OA
BRANCH  27  28
ATOM     28  C   LIG    1       25.445 -31.535   5.293  0.00  0.00    +0.370 C 
ATOM     29  C   LIG    1       25.442 -32.379   4.025  0.00  0.00    +0.100 C 
BRANCH  28  30
ATOM     30  O   LIG    1       25.670 -30.150   5.027  0.00  0.00    -0.394 OA
BRANCH  30  31
ATOM     31  C   LIG    1       24.711 -29.300   5.438  0.00  0.00    +0.513 C 
ATOM     32  O   LIG    1       23.607 -29.604   5.858  0.00  0.00    -0.203 OA
BRANCH  31  33
ATOM     33  O   LIG    1       25.226 -28.050   5.362  0.00  0.00    -0.434 OA
BRANCH  33  35
ATOM     34  C   LIG    1       25.357 -25.903   6.511  0.00  0.00    +0.048 C 
ATOM     35  C   LIG    1       24.467 -27.025   6.006  0.00  0.00    +0.232 C 
ENDBRANCH  33  35
ENDBRANCH  31  33
ENDBRANCH  30  31
ENDBRANCH  28  30
ENDBRANCH  27  28
ENDBRANCH  25  27
ENDBRANCH   1  25
TORSDOF 11
ENDMDL
MODEL 6
REMARK VINA RESULT:      -5.9     11.084     14.500
REMARK  Name = *****
REMARK                            x       y       z     vdW  Elec       q    Type
REMARK                         _______ _______ _______ _____ _____    ______ ____
ROOT
ATOM      1  C   LIG    1       22.389 -32.933  10.049  0.00  0.00    +0.201 C 
ATOM      2  C   LIG    1       23.005 -32.530  11.415  0.00  0.00    +0.042 C 
ATOM      3  C   LIG    1       22.500 -33.438  12.553  0.00  0.00    +0.025 C 
ATOM      4  C   LIG    1       24.538 -32.532  11.468  0.00  0.00    +0.025 C 
ATOM      5  S   LIG    1       22.385 -30.814  11.790  0.00  0.00    -0.127 S 
ATOM      6  C   LIG    1       21.115 -30.824  10.453  0.00  0.00    +0.165 C 
ATOM      7  C   LIG    1       19.645 -31.096  10.863  0.00  0.00    +0.190 C 
ATOM      8  C   LIG    1       19.996 -32.566  10.532  0.00  0.00    +0.240 C 
ATOM      9  O   LIG    1       19.593 -33.676  10.826  0.00  0.00    -0.273 OA
ATOM     10  N   LIG    1       21.146 -32.189   9.903  0.00  0.00    -0.271 N 
ENDROOT
BRANCH   7  11
ATOM     11  N   LIG    1       19.256 -30.786  12.265  0.00  0.00    -0.300 N 
ATOM     12  H   LIG    1       19.954 -30.459  12.924  0.00  0.00    +0.150 HD
ATOM     13  C   LIG    1       17.948 -30.932  12.685  0.00  0.00    +0.235 C 
ATOM     14  O   LIG    1       17.057 -31.330  11.931  0.00  0.00    -0.274 OA
BRANCH  13  15
ATOM     15  C   LIG    1       17.670 -30.510  14.150  0.00  0.00    +0.168 C 
BRANCH  15  16
ATOM     16  C   LIG    1       17.380 -29.022  14.243  0.00  0.00    -0.022 A 
ATOM     17  C   LIG    1       18.408 -28.082  14.437  0.00  0.00    +0.006 A 
ATOM     18  C   LIG    1       18.120 -26.718  14.519  0.00  0.00    +0.000 A 
ATOM     19  C   LIG    1       16.804 -26.276  14.411  0.00  0.00    +0.000 A 
ATOM     20  C   LIG    1       15.775 -27.195  14.220  0.00  0.00    +0.000 A 
ATOM     21  C   LIG    1       16.059 -28.558  14.135  0.00  0.00    +0.006 A 
ENDBRANCH  15  16
BRANCH  15  22
ATOM     22  N   LIG    1       16.556 -31.311  14.690  0.00  0.00    -0.316 NA
ATOM     23  H   LIG    1       16.349 -32.070  14.043  0.00  0.00    +0.119 HD
ATOM     24  H   LIG    1       16.885 -31.751  15.554  0.00  0.00    +0.119 HD
ENDBRANCH  15  22
ENDBRANCH  13  15
ENDBRANCH   7  11
BRANCH   1  25
ATOM     25  C   LIG    1       23.246 -32.590   8.821  0.00  0.00    +0.332 C 
ATOM     26  O   LIG    1       23.906 -33.391   8.171  0.00  0.00    -0.249 OA
BRANCH  25  27
ATOM     27  O   LIG    1       23.125 -31.271   8.521  0.00  0.00    -0.423 OA
BRANCH  27  28
ATOM     28  C   LIG    1       24.247 -30.671   7.848  0.00  0.00    +0.370 C 
ATOM     29  C   LIG    1       24.900 -29.657   8.778  0.00  0.00    +0.100 C 
BRANCH  28  30
ATOM     30  O   LIG    1       23.681 -30.062   6.686  0.00  0.00    -0.394 OA
BRANCH  30  31
ATOM     31  C   LIG    1       24.552 -29.550   5.797  0.00  0.00    +0.513 C 
ATOM     32  O   LIG    1       25.579 -30.078   5.405  0.00  0.00    -0.203 OA
BRANCH  31  33
ATOM     33  O   LIG    1       24.039 -28.372   5.369  0.00  0.00    -0.434 OA
BRANCH  33  35
ATOM     34  C   LIG    1       24.265 -26.045   6.061  0.00  0.00    +0.048 C 
ATOM     35  C   LIG    1       24.925 -27.253   5.420  0.00  0.00    +0.232 C 
ENDBRANCH  33  35
ENDBRANCH  31  33
ENDBRANCH  30  31
ENDBRANCH  28  30
ENDBRANCH  27  28
ENDBRANCH  25  27
ENDBRANCH   1  25
TORSDOF 11
ENDMDL
MODEL 7
REMARK VINA RESULT:      -5.8      8.660     11.625
REMARK  Name = *****
REMARK                            x       y       z     vdW  Elec       q    Type
REMARK                         _______ _______ _______ _____ _____    ______ ____
ROOT
ATOM      1  C   LIG    1       24.867 -32.633   9.974  0.00  0.00    +0.201 C 
ATOM      2  C   LIG    1       23.466 -32.233   9.438  0.00  0.00    +0.042 C 
ATOM      3  C   LIG    1       23.306 -32.593   7.949  0.00  0.00    +0.025 C 
ATOM      4  C   LIG    1       22.278 -32.846  10.192  0.00  0.00    +0.025 C 
ATOM      5  S   LIG    1       23.366 -30.377   9.549  0.00  0.00    -0.127 S 
ATOM      6  C   LIG    1       25.164 -30.155   9.888  0.00  0.00    +0.165 C 
ATOM      7  C   LIG    1       26.067 -29.713   8.708  0.00  0.00    +0.190 C 
ATOM      8  C   LIG    1       26.294 -31.233   8.526  0.00  0.00    +0.240 C 
ATOM      9  O   LIG    1       26.628 -31.993   7.637  0.00  0.00    -0.273 OA
ATOM     10  N   LIG    1       25.751 -31.498   9.748  0.00  0.00    -0.271 N 
ENDROOT
BRANCH   7  11
ATOM     11  N   LIG    1       25.418 -28.982   7.586  0.00  0.00    -0.300 N 
ATOM     12  H   LIG    1       24.727 -29.448   7.009  0.00  0.00    +0.150 HD
ATOM     13  C   LIG    1       25.740 -27.664   7.321  0.00  0.00    +0.235 C 
ATOM     14  O   LIG    1       26.574 -27.046   7.986  0.00  0.00    -0.274 OA
BRANCH  13  15
ATOM     15  C   LIG    1       24.940 -27.004   6.169  0.00  0.00    +0.168 C 
BRANCH  15  16
ATOM     16  C   LIG    1       24.780 -25.512   6.401  0.00  0.00    -0.022 A 
ATOM     17  C   LIG    1       25.894 -24.664   6.534  0.00  0.00    +0.006 A 
ATOM     18  C   LIG    1       25.724 -23.294   6.746  0.00  0.00    +0.000 A 
ATOM     19  C   LIG    1       24.443 -22.754   6.831  0.00  0.00    +0.000 A 
ATOM     20  C   LIG    1       23.330 -23.582   6.703  0.00  0.00    +0.000 A 
ATOM     21  C   LIG    1       23.496 -24.951   6.487  0.00  0.00    +0.006 A 
ENDBRANCH  15  16
BRANCH  15  22
ATOM     22  N   LIG    1       25.610 -27.281   4.884  0.00  0.00    -0.316 NA
ATOM     23  H   LIG    1       26.569 -27.573   5.066  0.00  0.00    +0.119 HD
ATOM     24  H   LIG    1       25.140 -28.085   4.460  0.00  0.00    +0.119 HD
ENDBRANCH  15  22
ENDBRANCH  13  15
ENDBRANCH   7  11
BRANCH   1  25
ATOM     25  C   LIG    1       24.927 -32.936  11.479  0.00  0.00    +0.332 C 
ATOM     26  O   LIG    1       25.713 -33.706  12.015  0.00  0.00    -0.249 OA
BRANCH  25  27
ATOM     27  O   LIG    1       24.013 -32.183  12.143  0.00  0.00    -0.423 OA
BRANCH  27  28
ATOM     28  C   LIG    1       24.473 -31.558  13.357  0.00  0.00    +0.370 C 
ATOM     29  C   LIG    1       23.804 -32.235  14.547  0.00  0.00    +0.100 C 
BRANCH  28  30
ATOM     30  O   LIG    1       24.088 -30.190  13.220  0.00  0.00    -0.394 OA
BRANCH  30  31
ATOM     31  C   LIG    1       25.076 -29.281  13.315  0.00  0.00    +0.513 C 
ATOM     32  O   LIG    1       26.263 -29.516  13.465  0.00  0.00    -0.203 OA
BRANCH  31  33
ATOM     33  O   LIG    1       24.513 -28.061  13.145  0.00  0.00    -0.434 OA
BRANCH  33  35
ATOM     34  C   LIG    1       22.549 -26.621  13.266  0.00  0.00    +0.048 C 
ATOM     35  C   LIG    1       23.085 -28.034  13.115  0.00  0.00    +0.232 C 
ENDBRANCH  33  35
ENDBRANCH  31  33
ENDBRANCH  30  31
ENDBRANCH  28  30
ENDBRANCH  27  28
ENDBRANCH  25  27
ENDBRANCH   1  25
TORSDOF 11
ENDMDL
MODEL 8
REMARK VINA RESULT:      -5.8      9.255     13.123
REMARK  Name = *****
REMARK                            x       y       z     vdW  Elec       q    Type
REMARK                         _______ _______ _______ _____ _____    ______ ____
ROOT
ATOM      1  C   LIG    1       24.198 -32.982   8.369  0.00  0.00    +0.201 C 
ATOM      2  C   LIG    1       25.515 -32.988   9.189  0.00  0.00    +0.042 C 
ATOM      3  C   LIG    1       25.322 -33.652  10.566  0.00  0.00    +0.025 C 
ATOM      4  C   LIG    1       26.707 -33.675   8.508  0.00  0.00    +0.025 C 
ATOM      5  S   LIG    1       25.946 -31.205   9.515  0.00  0.00    -0.127 S 
ATOM      6  C   LIG    1       24.309 -30.559   8.963  0.00  0.00    +0.165 C 
ATOM      7  C   LIG    1       23.283 -30.176  10.060  0.00  0.00    +0.190 C 
ATOM      8  C   LIG    1       22.773 -31.623   9.859  0.00  0.00    +0.240 C 
ATOM      9  O   LIG    1       22.152 -32.455  10.492  0.00  0.00    -0.273 OA
ATOM     10  N   LIG    1       23.490 -31.755   8.706  0.00  0.00    -0.271 N 
ENDROOT
BRANCH   7  11
ATOM     11  N   LIG    1       23.816 -29.822  11.402  0.00  0.00    -0.300 N 
ATOM     12  H   LIG    1       24.785 -30.019  11.632  0.00  0.00    +0.150 HD
ATOM     13  C   LIG    1       23.009 -29.217  12.348  0.00  0.00    +0.235 C 
ATOM     14  O   LIG    1       21.824 -28.957  12.128  0.00  0.00    -0.274 OA
BRANCH  13  15
ATOM     15  C   LIG    1       23.711 -28.842  13.678  0.00  0.00    +0.168 C 
BRANCH  15  16
ATOM     16  C   LIG    1       24.536 -27.577  13.520  0.00  0.00    -0.022 A 
ATOM     17  C   LIG    1       25.860 -27.616  13.046  0.00  0.00    +0.006 A 
ATOM     18  C   LIG    1       26.602 -26.440  12.908  0.00  0.00    +0.000 A 
ATOM     19  C   LIG    1       26.034 -25.214  13.242  0.00  0.00    +0.000 A 
ATOM     20  C   LIG    1       24.725 -25.159  13.714  0.00  0.00    +0.000 A 
ATOM     21  C   LIG    1       23.979 -26.331  13.851  0.00  0.00    +0.006 A 
ENDBRANCH  15  16
BRANCH  15  22
ATOM     22  N   LIG    1       22.701 -28.697  14.743  0.00  0.00    -0.316 NA
ATOM     23  H   LIG    1       23.079 -28.104  15.479  0.00  0.00    +0.119 HD
ATOM     24  H   LIG    1       21.906 -28.190  14.345  0.00  0.00    +0.119 HD
ENDBRANCH  15  22
ENDBRANCH  13  15
ENDBRANCH   7  11
BRANCH   1  25
ATOM     25  C   LIG    1       24.380 -32.973   6.844  0.00  0.00    +0.332 C 
ATOM     26  O   LIG    1       23.690 -33.594   6.045  0.00  0.00    -0.249 OA
BRANCH  25  27
ATOM     27  O   LIG    1       25.386 -32.129   6.498  0.00  0.00    -0.423 OA
BRANCH  27  28
ATOM     28  C   LIG    1       25.293 -31.539   5.188  0.00  0.00    +0.370 C 
ATOM     29  C   LIG    1       26.208 -32.299   4.236  0.00  0.00    +0.100 C 
BRANCH  28  30
ATOM     30  O   LIG    1       25.706 -30.185   5.378  0.00  0.00    -0.394 OA
BRANCH  30  31
ATOM     31  C   LIG    1       24.724 -29.278   5.527  0.00  0.00    +0.513 C 
ATOM     32  O   LIG    1       23.564 -29.511   5.823  0.00  0.00    -0.203 OA
BRANCH  31  33
ATOM     33  O   LIG    1       25.280 -28.055   5.355  0.00  0.00    -0.434 OA
BRANCH  33  35
ATOM     34  C   LIG    1       24.198 -25.956   5.961  0.00  0.00    +0.048 C 
ATOM     35  C   LIG    1       25.063 -27.119   6.413  0.00  0.00    +0.232 C 
ENDBRANCH  33  35
ENDBRANCH  31  33
ENDBRANCH  30  31
ENDBRANCH  28  30
ENDBRANCH  27  28
ENDBRANCH  25  27
ENDBRANCH   1  25
TORSDOF 11
ENDMDL
MODEL 9
REMARK VINA RESULT:      -5.7      8.730     11.511
REMARK  Name = *****
REMARK                            x       y       z     vdW  Elec       q    Type
REMARK                         _______ _______ _______ _____ _____    ______ ____
ROOT
ATOM      1  C   LIG    1       24.913 -32.405   9.868  0.00  0.00    +0.201 C 
ATOM      2  C   LIG    1       23.488 -32.033   9.377  0.00  0.00    +0.042 C 
ATOM      3  C   LIG    1       23.292 -32.385   7.890  0.00  0.00    +0.025 C 
ATOM      4  C   LIG    1       22.336 -32.678  10.160  0.00  0.00    +0.025 C 
ATOM      5  S   LIG    1       23.349 -30.180   9.507  0.00  0.00    -0.127 S 
ATOM      6  C   LIG    1       25.152 -29.920   9.794  0.00  0.00    +0.165 C 
ATOM      7  C   LIG    1       26.009 -29.449   8.592  0.00  0.00    +0.190 C 
ATOM      8  C   LIG    1       26.265 -30.961   8.390  0.00  0.00    +0.240 C 
ATOM      9  O   LIG    1       26.589 -31.707   7.486  0.00  0.00    -0.273 OA
ATOM     10  N   LIG    1       25.764 -31.248   9.626  0.00  0.00    -0.271 N 
ENDROOT
BRANCH   7  11
ATOM     11  N   LIG    1       25.311 -28.723   7.497  0.00  0.00    -0.300 N 
ATOM     12  H   LIG    1       24.524 -29.154   7.023  0.00  0.00    +0.150 HD
ATOM     13  C   LIG    1       25.717 -27.458   7.114  0.00  0.00    +0.235 C 
ATOM     14  O   LIG    1       26.669 -26.886   7.649  0.00  0.00    -0.274 OA
BRANCH  13  15
ATOM     15  C   LIG    1       24.860 -26.792   6.008  0.00  0.00    +0.168 C 
BRANCH  15  16
ATOM     16  C   LIG    1       24.638 -25.319   6.304  0.00  0.00    -0.022 A 
ATOM     17  C   LIG    1       23.353 -24.805   6.557  0.00  0.00    +0.006 A 
ATOM     18  C   LIG    1       23.171 -23.447   6.827  0.00  0.00    +0.000 A 
ATOM     19  C   LIG    1       24.265 -22.586   6.848  0.00  0.00    +0.000 A 
ATOM     20  C   LIG    1       25.543 -23.081   6.599  0.00  0.00    +0.000 A 
ATOM     21  C   LIG    1       25.730 -24.438   6.330  0.00  0.00    +0.006 A 
ENDBRANCH  15  16
BRANCH  15  22
ATOM     22  N   LIG    1       25.510 -26.986   4.698  0.00  0.00    -0.316 NA
ATOM     23  H   LIG    1       26.367 -27.521   4.830  0.00  0.00    +0.119 HD
ATOM     24  H   LIG    1       24.890 -27.571   4.132  0.00  0.00    +0.119 HD
ENDBRANCH  15  22
ENDBRANCH  13  15
ENDBRANCH   7  11
BRANCH   1  25
ATOM     25  C   LIG    1       25.024 -32.719  11.367  0.00  0.00    +0.332 C 
ATOM     26  O   LIG    1       24.851 -33.819  11.875  0.00  0.00    -0.249 OA
BRANCH  25  27
ATOM     27  O   LIG    1       25.397 -31.607  12.051  0.00  0.00    -0.423 OA
BRANCH  27  28
ATOM     28  C   LIG    1       24.856 -31.470  13.379  0.00  0.00    +0.370 C 
ATOM     29  C   LIG    1       23.432 -30.939  13.281  0.00  0.00    +0.100 C 
BRANCH  28  30
ATOM     30  O   LIG    1       25.738 -30.554  14.029  0.00  0.00    -0.394 OA
BRANCH  30  31
ATOM     31  C   LIG    1       26.994 -30.985  14.243  0.00  0.00    +0.513 C 
ATOM     32  O   LIG    1       27.341 -32.141  14.419  0.00  0.00    -0.203 OA
BRANCH  31  33
ATOM     33  O   LIG    1       27.807 -29.905  14.156  0.00  0.00    -0.434 OA
BRANCH  33  35
ATOM     34  C   LIG    1       28.186 -29.357  11.811  0.00  0.00    +0.048 C 
ATOM     35  C   LIG    1       27.501 -28.979  13.112  0.00  0.00    +0.232 C 
ENDBRANCH  33  35
ENDBRANCH  31  33
ENDBRANCH  30  31
ENDBRANCH  28  30
ENDBRANCH  27  28
ENDBRANCH  25  27
ENDBRANCH   1  25
TORSDOF 11
ENDMDL
