MODEL 1
REMARK VINA RESULT:      -2.6      0.000      0.000
REMARK  Name = *****
REMARK                            x       y       z     vdW  Elec       q    Type
REMARK                         _______ _______ _______ _____ _____    ______ ____
ROOT
ATOM      1  C   LIG    1       25.603 -18.015   3.890  0.00  0.00    -0.006 A 
ATOM      2  C   LIG    1       25.927 -16.640   3.710  0.00  0.00    +0.007 A 
ATOM      3  C   LIG    1       27.245 -16.167   3.506  0.00  0.00    +0.010 A 
ATOM      4  C   LIG    1       27.513 -14.812   3.330  0.00  0.00    +0.001 A 
ATOM      5  C   LIG    1       26.467 -13.905   3.359  0.00  0.00    +0.014 A 
ATOM      6  C   LIG    1       25.143 -14.341   3.558  0.00  0.00    +0.081 A 
ATOM      7  C   LIG    1       24.864 -15.696   3.730  0.00  0.00    +0.084 A 
ATOM      8  N   LIG    1       23.593 -16.078   3.907  0.00  0.00    -0.242 NA
ATOM      9  C   LIG    1       23.276 -17.388   4.071  0.00  0.00    +0.145 A 
ATOM     10  C   LIG    1       24.256 -18.368   4.071  0.00  0.00    +0.039 A 
ENDROOT
BRANCH   6  11
ATOM     11  C   LIG    1       24.063 -13.287   3.575  0.00  0.00    +0.419 C 
ATOM     12  F   LIG    1       23.018 -13.628   2.762  0.00  0.00    -0.166 F 
ATOM     13  F   LIG    1       24.520 -12.098   3.077  0.00  0.00    -0.166 F 
ATOM     14  F   LIG    1       23.498 -12.977   4.772  0.00  0.00    -0.166 F 
ENDBRANCH   6  11
BRANCH   9  15
ATOM     15  C   LIG    1       21.812 -17.765   4.252  0.00  0.00    +0.434 C 
ATOM     16  F   LIG    1       21.092 -16.817   4.915  0.00  0.00    -0.164 F 
ATOM     17  F   LIG    1       21.642 -18.927   4.948  0.00  0.00    -0.164 F 
ATOM     18  F   LIG    1       21.152 -17.958   3.070  0.00  0.00    -0.164 F 
ENDBRANCH   9  15
BRANCH   1  19
ATOM     19  C   LIG    1       26.652 -19.122   3.896  0.00  0.00    +0.162 C 
BRANCH  19  20
ATOM     20  C   LIG    1       27.353 -19.359   5.275  0.00  0.00    +0.087 C 
ATOM     21  N   LIG    1       28.789 -18.977   5.161  0.00  0.00    -0.311 NA
ATOM     22  H   LIG    1       29.235 -19.637   4.520  0.00  0.00    +0.122 HD
ATOM     23  C   LIG    1       29.475 -19.105   6.451  0.00  0.00    +0.081 C 
ATOM     24  C   LIG    1       29.448 -20.547   6.947  0.00  0.00    +0.015 C 
ATOM     25  C   LIG    1       28.015 -21.051   7.061  0.00  0.00    +0.003 C 
ATOM     26  C   LIG    1       27.248 -20.821   5.760  0.00  0.00    +0.021 C 
ENDBRANCH  19  20
BRANCH  19  27
ATOM     27  O   LIG    1       26.055 -20.351   3.447  0.00  0.00    -0.386 OA
ATOM     28  H   LIG    1       25.655 -20.744   4.243  0.00  0.00    +0.210 HD
ENDBRANCH  19  27
ENDBRANCH   1  19
TORSDOF 5
ENDMDL
MODEL 2
REMARK VINA RESULT:      -1.6      2.656      4.421
REMARK  Name = *****
REMARK                            x       y       z     vdW  Elec       q    Type
REMARK                         _______ _______ _______ _____ _____    ______ ____
ROOT
ATOM      1  C   LIG    1       26.538 -16.015   3.689  0.00  0.00    -0.006 A 
ATOM      2  C   LIG    1       25.249 -15.503   4.009  0.00  0.00    +0.007 A 
ATOM      3  C   LIG    1       24.105 -16.318   4.188  0.00  0.00    +0.010 A 
ATOM      4  C   LIG    1       22.865 -15.771   4.504  0.00  0.00    +0.001 A 
ATOM      5  C   LIG    1       22.744 -14.399   4.644  0.00  0.00    +0.014 A 
ATOM      6  C   LIG    1       23.862 -13.559   4.475  0.00  0.00    +0.081 A 
ATOM      7  C   LIG    1       25.109 -14.097   4.163  0.00  0.00    +0.084 A 
ATOM      8  N   LIG    1       26.153 -13.271   4.018  0.00  0.00    -0.242 NA
ATOM      9  C   LIG    1       27.388 -13.753   3.722  0.00  0.00    +0.145 A 
ATOM     10  C   LIG    1       27.603 -15.111   3.549  0.00  0.00    +0.039 A 
ENDROOT
BRANCH   6  11
ATOM     11  C   LIG    1       23.644 -12.075   4.646  0.00  0.00    +0.419 C 
ATOM     12  F   LIG    1       23.375 -11.468   3.450  0.00  0.00    -0.166 F 
ATOM     13  F   LIG    1       24.774 -11.456   5.105  0.00  0.00    -0.166 F 
ATOM     14  F   LIG    1       22.652 -11.671   5.483  0.00  0.00    -0.166 F 
ENDBRANCH   6  11
BRANCH   9  15
ATOM     15  C   LIG    1       28.540 -12.768   3.586  0.00  0.00    +0.434 C 
ATOM     16  F   LIG    1       29.475 -13.159   2.674  0.00  0.00    -0.164 F 
ATOM     17  F   LIG    1       29.212 -12.567   4.756  0.00  0.00    -0.164 F 
ATOM     18  F   LIG    1       28.144 -11.522   3.185  0.00  0.00    -0.164 F 
ENDBRANCH   9  15
BRANCH   1  19
ATOM     19  C   LIG    1       26.816 -17.502   3.491  0.00  0.00    +0.162 C 
BRANCH  19  20
ATOM     20  C   LIG    1       27.283 -18.263   4.778  0.00  0.00    +0.087 C 
ATOM     21  N   LIG    1       28.771 -18.329   4.789  0.00  0.00    -0.311 NA
ATOM     22  H   LIG    1       29.061 -18.924   4.009  0.00  0.00    +0.122 HD
ATOM     23  C   LIG    1       29.264 -18.963   6.016  0.00  0.00    +0.081 C 
ATOM     24  C   LIG    1       28.765 -20.400   6.131  0.00  0.00    +0.015 C 
ATOM     25  C   LIG    1       27.243 -20.447   6.089  0.00  0.00    +0.003 C 
ATOM     26  C   LIG    1       26.704 -19.691   4.875  0.00  0.00    +0.021 C 
ENDBRANCH  19  20
BRANCH  19  27
ATOM     27  O   LIG    1       25.644 -18.142   2.957  0.00  0.00    -0.386 OA
ATOM     28  H   LIG    1       25.952 -18.609   2.160  0.00  0.00    +0.210 HD
ENDBRANCH  19  27
ENDBRANCH   1  19
TORSDOF 5
ENDMDL
MODEL 3
REMARK VINA RESULT:      -1.4      3.565      6.680
REMARK  Name = *****
REMARK                            x       y       z     vdW  Elec       q    Type
REMARK                         _______ _______ _______ _____ _____    ______ ____
ROOT
ATOM      1  C   LIG    1       26.175 -17.306   3.882  0.00  0.00    -0.006 A 
ATOM      2  C   LIG    1       24.841 -17.783   4.024  0.00  0.00    +0.007 A 
ATOM      3  C   LIG    1       23.711 -17.120   3.487  0.00  0.00    +0.010 A 
ATOM      4  C   LIG    1       22.425 -17.628   3.649  0.00  0.00    +0.001 A 
ATOM      5  C   LIG    1       22.245 -18.806   4.353  0.00  0.00    +0.014 A 
ATOM      6  C   LIG    1       23.347 -19.493   4.899  0.00  0.00    +0.081 A 
ATOM      7  C   LIG    1       24.639 -18.995   4.738  0.00  0.00    +0.084 A 
ATOM      8  N   LIG    1       25.666 -19.678   5.261  0.00  0.00    -0.242 NA
ATOM      9  C   LIG    1       26.941 -19.233   5.122  0.00  0.00    +0.145 A 
ATOM     10  C   LIG    1       27.219 -18.056   4.446  0.00  0.00    +0.039 A 
ENDROOT
BRANCH   6  11
ATOM     11  C   LIG    1       23.062 -20.770   5.651  0.00  0.00    +0.419 C 
ATOM     12  F   LIG    1       22.747 -20.521   6.959  0.00  0.00    -0.166 F 
ATOM     13  F   LIG    1       24.170 -21.572   5.706  0.00  0.00    -0.166 F 
ATOM     14  F   LIG    1       22.066 -21.570   5.189  0.00  0.00    -0.166 F 
ENDBRANCH   6  11
BRANCH   9  15
ATOM     15  C   LIG    1       28.069 -20.059   5.724  0.00  0.00    +0.434 C 
ATOM     16  F   LIG    1       28.902 -20.594   4.786  0.00  0.00    -0.164 F 
ATOM     17  F   LIG    1       27.622 -21.106   6.476  0.00  0.00    -0.164 F 
ATOM     18  F   LIG    1       28.880 -19.342   6.559  0.00  0.00    -0.164 F 
ENDBRANCH   9  15
BRANCH   1  19
ATOM     19  C   LIG    1       26.522 -16.016   3.144  0.00  0.00    +0.162 C 
BRANCH  19  20
ATOM     20  C   LIG    1       25.385 -14.940   3.126  0.00  0.00    +0.087 C 
ATOM     21  N   LIG    1       25.597 -14.032   1.965  0.00  0.00    -0.311 NA
ATOM     22  H   LIG    1       26.457 -13.505   2.136  0.00  0.00    +0.122 HD
ATOM     23  C   LIG    1       24.511 -13.052   1.855  0.00  0.00    +0.081 C 
ATOM     24  C   LIG    1       24.444 -12.164   3.094  0.00  0.00    +0.015 C 
ATOM     25  C   LIG    1       24.268 -13.006   4.350  0.00  0.00    +0.003 C 
ATOM     26  C   LIG    1       25.324 -14.109   4.425  0.00  0.00    +0.021 C 
ENDBRANCH  19  20
BRANCH  19  27
ATOM     27  O   LIG    1       27.712 -15.443   3.714  0.00  0.00    -0.386 OA
ATOM     28  H   LIG    1       27.410 -14.642   4.177  0.00  0.00    +0.210 HD
ENDBRANCH  19  27
ENDBRANCH   1  19
TORSDOF 5
ENDMDL
MODEL 4
REMARK VINA RESULT:      -1.4      2.814      6.226
REMARK  Name = *****
REMARK                            x       y       z     vdW  Elec       q    Type
REMARK                         _______ _______ _______ _____ _____    ______ ____
ROOT
ATOM      1  C   LIG    1       26.046 -16.620   3.520  0.00  0.00    -0.006 A 
ATOM      2  C   LIG    1       27.000 -17.408   4.225  0.00  0.00    +0.007 A 
ATOM      3  C   LIG    1       28.344 -17.013   4.428  0.00  0.00    +0.010 A 
ATOM      4  C   LIG    1       29.239 -17.816   5.129  0.00  0.00    +0.001 A 
ATOM      5  C   LIG    1       28.808 -19.030   5.636  0.00  0.00    +0.014 A 
ATOM      6  C   LIG    1       27.477 -19.453   5.454  0.00  0.00    +0.081 A 
ATOM      7  C   LIG    1       26.571 -18.653   4.758  0.00  0.00    +0.084 A 
ATOM      8  N   LIG    1       25.310 -19.081   4.611  0.00  0.00    -0.242 NA
ATOM      9  C   LIG    1       24.393 -18.331   3.948  0.00  0.00    +0.145 A 
ATOM     10  C   LIG    1       24.736 -17.108   3.393  0.00  0.00    +0.039 A 
ENDROOT
BRANCH   6  11
ATOM     11  C   LIG    1       27.089 -20.789   6.040  0.00  0.00    +0.419 C 
ATOM     12  F   LIG    1       26.446 -21.570   5.120  0.00  0.00    -0.166 F 
ATOM     13  F   LIG    1       26.192 -20.642   7.062  0.00  0.00    -0.166 F 
ATOM     14  F   LIG    1       28.078 -21.572   6.544  0.00  0.00    -0.166 F 
ENDBRANCH   6  11
BRANCH   9  15
ATOM     15  C   LIG    1       22.972 -18.859   3.826  0.00  0.00    +0.434 C 
ATOM     16  F   LIG    1       22.785 -20.049   4.466  0.00  0.00    -0.164 F 
ATOM     17  F   LIG    1       22.585 -19.059   2.533  0.00  0.00    -0.164 F 
ATOM     18  F   LIG    1       22.033 -18.016   4.351  0.00  0.00    -0.164 F 
ENDBRANCH   9  15
BRANCH   1  19
ATOM     19  C   LIG    1       26.383 -15.269   2.895  0.00  0.00    +0.162 C 
BRANCH  19  20
ATOM     20  C   LIG    1       25.214 -14.227   2.907  0.00  0.00    +0.087 C 
ATOM     21  N   LIG    1       25.523 -13.143   1.934  0.00  0.00    -0.311 NA
ATOM     22  H   LIG    1       26.336 -12.632   2.285  0.00  0.00    +0.122 HD
ATOM     23  C   LIG    1       24.420 -12.180   1.847  0.00  0.00    +0.081 C 
ATOM     24  C   LIG    1       24.176 -11.500   3.190  0.00  0.00    +0.015 C 
ATOM     25  C   LIG    1       23.889 -12.533   4.272  0.00  0.00    +0.003 C 
ATOM     26  C   LIG    1       24.971 -13.612   4.302  0.00  0.00    +0.021 C 
ENDBRANCH  19  20
BRANCH  19  27
ATOM     27  O   LIG    1       27.529 -14.707   3.557  0.00  0.00    -0.386 OA
ATOM     28  H   LIG    1       27.964 -14.153   2.885  0.00  0.00    +0.210 HD
ENDBRANCH  19  27
ENDBRANCH   1  19
TORSDOF 5
ENDMDL
MODEL 5
REMARK VINA RESULT:      -1.2      1.132      1.560
REMARK  Name = *****
REMARK                            x       y       z     vdW  Elec       q    Type
REMARK                         _______ _______ _______ _____ _____    ______ ____
ROOT
ATOM      1  C   LIG    1       25.449 -17.919   3.565  0.00  0.00    -0.006 A 
ATOM      2  C   LIG    1       25.808 -16.542   3.600  0.00  0.00    +0.007 A 
ATOM      3  C   LIG    1       27.112 -16.066   3.325  0.00  0.00    +0.010 A 
ATOM      4  C   LIG    1       27.414 -14.707   3.368  0.00  0.00    +0.001 A 
ATOM      5  C   LIG    1       26.418 -13.800   3.689  0.00  0.00    +0.014 A 
ATOM      6  C   LIG    1       25.109 -14.239   3.965  0.00  0.00    +0.081 A 
ATOM      7  C   LIG    1       24.796 -15.597   3.921  0.00  0.00    +0.084 A 
ATOM      8  N   LIG    1       23.538 -15.980   4.180  0.00  0.00    -0.242 NA
ATOM      9  C   LIG    1       23.187 -17.291   4.140  0.00  0.00    +0.145 A 
ATOM     10  C   LIG    1       24.119 -18.273   3.842  0.00  0.00    +0.039 A 
ENDROOT
BRANCH   6  11
ATOM     11  C   LIG    1       24.083 -13.186   4.306  0.00  0.00    +0.419 C 
ATOM     12  F   LIG    1       23.435 -12.739   3.188  0.00  0.00    -0.166 F 
ATOM     13  F   LIG    1       24.673 -12.071   4.837  0.00  0.00    -0.166 F 
ATOM     14  F   LIG    1       23.099 -13.519   5.182  0.00  0.00    -0.166 F 
ENDBRANCH   6  11
BRANCH   9  15
ATOM     15  C   LIG    1       21.741 -17.666   4.427  0.00  0.00    +0.434 C 
ATOM     16  F   LIG    1       21.057 -16.695   5.097  0.00  0.00    -0.164 F 
ATOM     17  F   LIG    1       21.621 -18.800   5.177  0.00  0.00    -0.164 F 
ATOM     18  F   LIG    1       21.009 -17.908   3.297  0.00  0.00    -0.164 F 
ENDBRANCH   9  15
BRANCH   1  19
ATOM     19  C   LIG    1       26.445 -19.029   3.241  0.00  0.00    +0.162 C 
BRANCH  19  20
ATOM     20  C   LIG    1       26.599 -20.122   4.351  0.00  0.00    +0.087 C 
ATOM     21  N   LIG    1       25.248 -20.491   4.859  0.00  0.00    -0.311 NA
ATOM     22  H   LIG    1       24.865 -19.675   5.343  0.00  0.00    +0.122 HD
ATOM     23  C   LIG    1       25.331 -21.572   5.847  0.00  0.00    +0.081 C 
ATOM     24  C   LIG    1       26.150 -21.144   7.062  0.00  0.00    +0.015 C 
ATOM     25  C   LIG    1       27.547 -20.706   6.642  0.00  0.00    +0.003 C 
ATOM     26  C   LIG    1       27.483 -19.661   5.529  0.00  0.00    +0.021 C 
ENDBRANCH  19  20
BRANCH  19  27
ATOM     27  O   LIG    1       26.075 -19.658   2.001  0.00  0.00    -0.386 OA
ATOM     28  H   LIG    1       26.021 -18.931   1.355  0.00  0.00    +0.210 HD
ENDBRANCH  19  27
ENDBRANCH   1  19
TORSDOF 5
ENDMDL
MODEL 6
REMARK VINA RESULT:       0.2      3.544      4.820
REMARK  Name = *****
REMARK                            x       y       z     vdW  Elec       q    Type
REMARK                         _______ _______ _______ _____ _____    ______ ____
ROOT
ATOM      1  C   LIG    1       25.030 -16.938   3.700  0.00  0.00    -0.006 A 
ATOM      2  C   LIG    1       25.263 -15.545   3.514  0.00  0.00    +0.007 A 
ATOM      3  C   LIG    1       24.265 -14.633   3.096  0.00  0.00    +0.010 A 
ATOM      4  C   LIG    1       24.540 -13.278   2.933  0.00  0.00    +0.001 A 
ATOM      5  C   LIG    1       25.819 -12.811   3.182  0.00  0.00    +0.014 A 
ATOM      6  C   LIG    1       26.836 -13.690   3.602  0.00  0.00    +0.081 A 
ATOM      7  C   LIG    1       26.569 -15.048   3.773  0.00  0.00    +0.084 A 
ATOM      8  N   LIG    1       27.557 -15.855   4.183  0.00  0.00    -0.242 NA
ATOM      9  C   LIG    1       27.339 -17.182   4.370  0.00  0.00    +0.145 A 
ATOM     10  C   LIG    1       26.094 -17.744   4.132  0.00  0.00    +0.039 A 
ENDROOT
BRANCH   6  11
ATOM     11  C   LIG    1       28.202 -13.099   3.853  0.00  0.00    +0.419 C 
ATOM     12  F   LIG    1       28.339 -12.687   5.149  0.00  0.00    -0.166 F 
ATOM     13  F   LIG    1       28.400 -11.971   3.105  0.00  0.00    -0.166 F 
ATOM     14  F   LIG    1       29.286 -13.882   3.610  0.00  0.00    -0.166 F 
ENDBRANCH   6  11
BRANCH   9  15
ATOM     15  C   LIG    1       28.494 -18.048   4.852  0.00  0.00    +0.434 C 
ATOM     16  F   LIG    1       29.475 -18.203   3.918  0.00  0.00    -0.164 F 
ATOM     17  F   LIG    1       28.106 -19.307   5.208  0.00  0.00    -0.164 F 
ATOM     18  F   LIG    1       29.124 -17.545   5.957  0.00  0.00    -0.164 F 
ENDBRANCH   9  15
BRANCH   1  19
ATOM     19  C   LIG    1       23.675 -17.594   3.449  0.00  0.00    +0.162 C 
BRANCH  19  20
ATOM     20  C   LIG    1       23.603 -19.115   3.810  0.00  0.00    +0.087 C 
ATOM     21  N   LIG    1       22.736 -19.288   5.009  0.00  0.00    -0.311 NA
ATOM     22  H   LIG    1       23.211 -18.851   5.802  0.00  0.00    +0.122 HD
ATOM     23  C   LIG    1       22.568 -20.707   5.341  0.00  0.00    +0.081 C 
ATOM     24  C   LIG    1       23.908 -21.354   5.679  0.00  0.00    +0.015 C 
ATOM     25  C   LIG    1       24.888 -21.196   4.523  0.00  0.00    +0.003 C 
ATOM     26  C   LIG    1       24.990 -19.735   4.085  0.00  0.00    +0.021 C 
ENDBRANCH  19  20
BRANCH  19  27
ATOM     27  O   LIG    1       22.657 -16.882   4.174  0.00  0.00    -0.386 OA
ATOM     28  H   LIG    1       21.816 -17.173   3.779  0.00  0.00    +0.210 HD
ENDBRANCH  19  27
ENDBRANCH   1  19
TORSDOF 5
ENDMDL
MODEL 7
REMARK VINA RESULT:       0.4      3.357      4.653
REMARK  Name = *****
REMARK                            x       y       z     vdW  Elec       q    Type
REMARK                         _______ _______ _______ _____ _____    ______ ____
ROOT
ATOM      1  C   LIG    1       23.775 -15.925   4.130  0.00  0.00    -0.006 A 
ATOM      2  C   LIG    1       25.180 -15.987   3.904  0.00  0.00    +0.007 A 
ATOM      3  C   LIG    1       25.861 -17.172   3.535  0.00  0.00    +0.010 A 
ATOM      4  C   LIG    1       27.236 -17.183   3.320  0.00  0.00    +0.001 A 
ATOM      5  C   LIG    1       27.956 -16.010   3.473  0.00  0.00    +0.014 A 
ATOM      6  C   LIG    1       27.310 -14.813   3.837  0.00  0.00    +0.081 A 
ATOM      7  C   LIG    1       25.932 -14.791   4.050  0.00  0.00    +0.084 A 
ATOM      8  N   LIG    1       25.348 -13.633   4.386  0.00  0.00    -0.242 NA
ATOM      9  C   LIG    1       24.008 -13.565   4.595  0.00  0.00    +0.145 A 
ATOM     10  C   LIG    1       23.207 -14.690   4.479  0.00  0.00    +0.039 A 
ENDROOT
BRANCH   6  11
ATOM     11  C   LIG    1       28.169 -13.580   3.982  0.00  0.00    +0.419 C 
ATOM     12  F   LIG    1       28.183 -13.130   5.273  0.00  0.00    -0.166 F 
ATOM     13  F   LIG    1       27.666 -12.536   3.254  0.00  0.00    -0.166 F 
ATOM     14  F   LIG    1       29.475 -13.671   3.620  0.00  0.00    -0.166 F 
ENDBRANCH   6  11
BRANCH   9  15
ATOM     15  C   LIG    1       23.396 -12.219   4.958  0.00  0.00    +0.434 C 
ATOM     16  F   LIG    1       22.230 -12.330   5.654  0.00  0.00    -0.164 F 
ATOM     17  F   LIG    1       23.116 -11.448   3.868  0.00  0.00    -0.164 F 
ATOM     18  F   LIG    1       24.210 -11.447   5.740  0.00  0.00    -0.164 F 
ENDBRANCH   9  15
BRANCH   1  19
ATOM     19  C   LIG    1       22.860 -17.139   4.012  0.00  0.00    +0.162 C 
BRANCH  19  20
ATOM     20  C   LIG    1       23.492 -18.491   4.488  0.00  0.00    +0.087 C 
ATOM     21  N   LIG    1       23.856 -19.302   3.292  0.00  0.00    -0.311 NA
ATOM     22  H   LIG    1       22.988 -19.567   2.821  0.00  0.00    +0.122 HD
ATOM     23  C   LIG    1       24.528 -20.546   3.682  0.00  0.00    +0.081 C 
ATOM     24  C   LIG    1       23.614 -21.420   4.536  0.00  0.00    +0.015 C 
ATOM     25  C   LIG    1       23.149 -20.663   5.773  0.00  0.00    +0.003 C 
ATOM     26  C   LIG    1       22.549 -19.309   5.396  0.00  0.00    +0.021 C 
ENDBRANCH  19  20
BRANCH  19  27
ATOM     27  O   LIG    1       21.645 -16.898   4.744  0.00  0.00    -0.386 OA
ATOM     28  H   LIG    1       21.564 -17.651   5.355  0.00  0.00    +0.210 HD
ENDBRANCH  19  27
ENDBRANCH   1  19
TORSDOF 5
ENDMDL
