MODEL 1
REMARK VINA RESULT:      -9.0      0.000      0.000
REMARK  Name = *****
REMARK                            x       y       z     vdW  Elec       q    Type
REMARK                         _______ _______ _______ _____ _____    ______ ____
ROOT
ATOM      1  C   LIG    1       25.136 -22.169   7.051  0.00  0.00    +0.098 C 
ENDROOT
BRANCH   1   2
ATOM      2  C   LIG    1       25.019 -23.661   6.793  0.00  0.00    -0.014 A 
ATOM      3  C   LIG    1       23.778 -24.290   6.570  0.00  0.00    +0.047 A 
ATOM      4 CL   LIG    1       22.277 -23.444   6.710  0.00  0.00    -0.083 Cl
ATOM      5  C   LIG    1       23.716 -25.634   6.197  0.00  0.00    +0.040 A 
ATOM      6  C   LIG    1       24.891 -26.360   6.026  0.00  0.00    +0.042 A 
ATOM      7 CL   LIG    1       24.816 -28.002   5.526  0.00  0.00    -0.084 Cl
ATOM      8  C   LIG    1       26.129 -25.763   6.240  0.00  0.00    +0.020 A 
ATOM      9  C   LIG    1       26.193 -24.428   6.629  0.00  0.00    +0.007 A 
ENDBRANCH   1   2
BRANCH   1  10
ATOM     10  S   LIG    1       26.494 -21.752   8.250  0.00  0.00    -0.146 S 
BRANCH  10  11
ATOM     11  C   LIG    1       27.953 -21.624   7.160  0.00  0.00    +0.104 C 
BRANCH  11  16
ATOM     12 CL   LIG    1       32.318 -17.758   8.738  0.00  0.00    -0.084 Cl
ATOM     13  C   LIG    1       31.053 -18.852   8.335  0.00  0.00    +0.041 A 
ATOM     14  C   LIG    1       31.120 -20.177   8.754  0.00  0.00    +0.020 A 
ATOM     15  C   LIG    1       30.109 -21.075   8.393  0.00  0.00    +0.006 A 
ATOM     16  C   LIG    1       29.016 -20.650   7.619  0.00  0.00    -0.037 A 
ATOM     17  C   LIG    1       28.963 -19.306   7.216  0.00  0.00    +0.006 A 
ATOM     18  C   LIG    1       29.975 -18.410   7.573  0.00  0.00    +0.020 A 
ENDBRANCH  11  16
ENDBRANCH  10  11
ENDBRANCH   1  10
BRANCH   1  19
ATOM     19  C   LIG    1       25.418 -21.412   5.723  0.00  0.00    +0.141 C 
BRANCH  19  20
ATOM     20  N   LIG    1       24.336 -20.544   5.277  0.00  0.00    -0.336 N 
ATOM     21  C   LIG    1       24.325 -19.823   4.115  0.00  0.00    +0.199 A 
ATOM     22  N   LIG    1       23.205 -19.139   3.987  0.00  0.00    -0.244 NA
ATOM     23  C   LIG    1       22.492 -19.404   5.121  0.00  0.00    +0.130 A 
ATOM     24  C   LIG    1       23.178 -20.266   5.943  0.00  0.00    +0.107 A 
ENDBRANCH  19  20
ENDBRANCH   1  19
TORSDOF 6
ENDMDL
MODEL 2
REMARK VINA RESULT:      -8.9      2.723      4.860
REMARK  Name = *****
REMARK                            x       y       z     vdW  Elec       q    Type
REMARK                         _______ _______ _______ _____ _____    ______ ____
ROOT
ATOM      1  C   LIG    1       25.592 -22.150   6.363  0.00  0.00    +0.098 C 
ENDROOT
BRANCH   1   2
ATOM      2  C   LIG    1       24.589 -21.145   5.822  0.00  0.00    -0.014 A 
ATOM      3  C   LIG    1       24.972 -20.085   4.976  0.00  0.00    +0.047 A 
ATOM      4 CL   LIG    1       26.625 -19.757   4.598  0.00  0.00    -0.083 Cl
ATOM      5  C   LIG    1       24.010 -19.264   4.383  0.00  0.00    +0.040 A 
ATOM      6  C   LIG    1       22.659 -19.503   4.614  0.00  0.00    +0.042 A 
ATOM      7 CL   LIG    1       21.474 -18.519   3.850  0.00  0.00    -0.084 Cl
ATOM      8  C   LIG    1       22.255 -20.542   5.444  0.00  0.00    +0.020 A 
ATOM      9  C   LIG    1       23.212 -21.351   6.051  0.00  0.00    +0.007 A 
ENDBRANCH   1   2
BRANCH   1  10
ATOM     10  S   LIG    1       26.563 -21.490   7.803  0.00  0.00    -0.146 S 
BRANCH  10  11
ATOM     11  C   LIG    1       28.285 -21.834   7.305  0.00  0.00    +0.104 C 
BRANCH  11  16
ATOM     12 CL   LIG    1       32.147 -17.479   8.921  0.00  0.00    -0.084 Cl
ATOM     13  C   LIG    1       31.073 -18.724   8.417  0.00  0.00    +0.041 A 
ATOM     14  C   LIG    1       30.007 -18.424   7.573  0.00  0.00    +0.020 A 
ATOM     15  C   LIG    1       29.113 -19.431   7.194  0.00  0.00    +0.006 A 
ATOM     16  C   LIG    1       29.284 -20.750   7.647  0.00  0.00    -0.037 A 
ATOM     17  C   LIG    1       30.372 -21.034   8.488  0.00  0.00    +0.006 A 
ATOM     18  C   LIG    1       31.263 -20.027   8.870  0.00  0.00    +0.020 A 
ENDBRANCH  11  16
ENDBRANCH  10  11
ENDBRANCH   1  10
BRANCH   1  19
ATOM     19  C   LIG    1       24.863 -23.443   6.827  0.00  0.00    +0.141 C 
BRANCH  19  20
ATOM     20  N   LIG    1       25.326 -24.665   6.183  0.00  0.00    -0.336 N 
ATOM     21  C   LIG    1       25.098 -25.009   4.879  0.00  0.00    +0.199 A 
ATOM     22  N   LIG    1       25.651 -26.171   4.588  0.00  0.00    -0.244 NA
ATOM     23  C   LIG    1       26.219 -26.600   5.752  0.00  0.00    +0.130 A 
ATOM     24  C   LIG    1       26.022 -25.686   6.761  0.00  0.00    +0.107 A 
ENDBRANCH  19  20
ENDBRANCH   1  19
TORSDOF 6
ENDMDL
MODEL 3
REMARK VINA RESULT:      -8.9      2.316      4.651
REMARK  Name = *****
REMARK                            x       y       z     vdW  Elec       q    Type
REMARK                         _______ _______ _______ _____ _____    ______ ____
ROOT
ATOM      1  C   LIG    1       25.889 -22.133   6.368  0.00  0.00    +0.098 C 
ENDROOT
BRANCH   1   2
ATOM      2  C   LIG    1       24.822 -21.258   5.733  0.00  0.00    -0.014 A 
ATOM      3  C   LIG    1       23.593 -20.991   6.370  0.00  0.00    +0.047 A 
ATOM      4 CL   LIG    1       23.141 -21.746   7.857  0.00  0.00    -0.083 Cl
ATOM      5  C   LIG    1       22.693 -20.073   5.825  0.00  0.00    +0.040 A 
ATOM      6  C   LIG    1       23.016 -19.400   4.651  0.00  0.00    +0.042 A 
ATOM      7 CL   LIG    1       21.927 -18.238   4.004  0.00  0.00    -0.084 Cl
ATOM      8  C   LIG    1       24.221 -19.645   4.003  0.00  0.00    +0.020 A 
ATOM      9  C   LIG    1       25.113 -20.574   4.534  0.00  0.00    +0.007 A 
ENDBRANCH   1   2
BRANCH   1  10
ATOM     10  S   LIG    1       26.835 -21.254   7.704  0.00  0.00    -0.146 S 
BRANCH  10  11
ATOM     11  C   LIG    1       28.567 -21.495   7.181  0.00  0.00    +0.104 C 
BRANCH  11  16
ATOM     12 CL   LIG    1       32.308 -17.263   9.323  0.00  0.00    -0.084 Cl
ATOM     13  C   LIG    1       31.270 -18.468   8.669  0.00  0.00    +0.041 A 
ATOM     14  C   LIG    1       30.214 -18.101   7.841  0.00  0.00    +0.020 A 
ATOM     15  C   LIG    1       29.347 -19.079   7.340  0.00  0.00    +0.006 A 
ATOM     16  C   LIG    1       29.537 -20.435   7.655  0.00  0.00    -0.037 A 
ATOM     17  C   LIG    1       30.615 -20.785   8.483  0.00  0.00    +0.006 A 
ATOM     18  C   LIG    1       31.479 -19.808   8.987  0.00  0.00    +0.020 A 
ENDBRANCH  11  16
ENDBRANCH  10  11
ENDBRANCH   1  10
BRANCH   1  19
ATOM     19  C   LIG    1       25.245 -23.404   6.991  0.00  0.00    +0.141 C 
BRANCH  19  20
ATOM     20  N   LIG    1       25.497 -24.635   6.254  0.00  0.00    -0.336 N 
ATOM     21  C   LIG    1       25.149 -24.865   4.951  0.00  0.00    +0.199 A 
ATOM     22  N   LIG    1       25.518 -26.071   4.564  0.00  0.00    -0.244 NA
ATOM     23  C   LIG    1       26.088 -26.643   5.665  0.00  0.00    +0.130 A 
ATOM     24  C   LIG    1       26.077 -25.775   6.731  0.00  0.00    +0.107 A 
ENDBRANCH  19  20
ENDBRANCH   1  19
TORSDOF 6
ENDMDL
MODEL 4
REMARK VINA RESULT:      -8.5      2.798      6.984
REMARK  Name = *****
REMARK                            x       y       z     vdW  Elec       q    Type
REMARK                         _______ _______ _______ _____ _____    ______ ____
ROOT
ATOM      1  C   LIG    1       26.385 -20.781   6.640  0.00  0.00    +0.098 C 
ENDROOT
BRANCH   1   2
ATOM      2  C   LIG    1       25.122 -20.409   5.884  0.00  0.00    -0.014 A 
ATOM      3  C   LIG    1       23.845 -20.468   6.479  0.00  0.00    +0.047 A 
ATOM      4 CL   LIG    1       23.597 -21.099   8.068  0.00  0.00    -0.083 Cl
ATOM      5  C   LIG    1       22.722 -19.988   5.804  0.00  0.00    +0.040 A 
ATOM      6  C   LIG    1       22.861 -19.428   4.537  0.00  0.00    +0.042 A 
ATOM      7 CL   LIG    1       21.484 -18.798   3.725  0.00  0.00    -0.084 Cl
ATOM      8  C   LIG    1       24.109 -19.359   3.928  0.00  0.00    +0.020 A 
ATOM      9  C   LIG    1       25.229 -19.853   4.591  0.00  0.00    +0.007 A 
ENDBRANCH   1   2
BRANCH   1  10
ATOM     10  S   LIG    1       26.417 -22.567   7.151  0.00  0.00    -0.146 S 
BRANCH  10  11
ATOM     11  C   LIG    1       25.363 -23.355   5.885  0.00  0.00    +0.104 C 
BRANCH  11  16
ATOM     12 CL   LIG    1       25.390 -29.393   5.702  0.00  0.00    -0.084 Cl
ATOM     13  C   LIG    1       25.433 -27.674   5.746  0.00  0.00    +0.041 A 
ATOM     14  C   LIG    1       25.787 -27.018   6.921  0.00  0.00    +0.020 A 
ATOM     15  C   LIG    1       25.785 -25.619   6.967  0.00  0.00    +0.006 A 
ATOM     16  C   LIG    1       25.440 -24.865   5.832  0.00  0.00    -0.037 A 
ATOM     17  C   LIG    1       25.098 -25.548   4.653  0.00  0.00    +0.006 A 
ATOM     18  C   LIG    1       25.096 -26.945   4.609  0.00  0.00    +0.020 A 
ENDBRANCH  11  16
ENDBRANCH  10  11
ENDBRANCH   1  10
BRANCH   1  19
ATOM     19  C   LIG    1       27.639 -20.509   5.763  0.00  0.00    +0.141 C 
BRANCH  19  20
ATOM     20  N   LIG    1       28.743 -19.866   6.464  0.00  0.00    -0.336 N 
ATOM     21  C   LIG    1       29.394 -18.736   6.050  0.00  0.00    +0.199 A 
ATOM     22  N   LIG    1       30.343 -18.393   6.900  0.00  0.00    -0.244 NA
ATOM     23  C   LIG    1       30.321 -19.354   7.869  0.00  0.00    +0.130 A 
ATOM     24  C   LIG    1       29.343 -20.287   7.615  0.00  0.00    +0.107 A 
ENDBRANCH  19  20
ENDBRANCH   1  19
TORSDOF 6
ENDMDL
MODEL 5
REMARK VINA RESULT:      -8.4      2.471      4.961
REMARK  Name = *****
REMARK                            x       y       z     vdW  Elec       q    Type
REMARK                         _______ _______ _______ _____ _____    ______ ____
ROOT
ATOM      1  C   LIG    1       25.276 -22.642   5.590  0.00  0.00    +0.098 C 
ENDROOT
BRANCH   1   2
ATOM      2  C   LIG    1       24.321 -21.520   5.219  0.00  0.00    -0.014 A 
ATOM      3  C   LIG    1       23.369 -21.013   6.127  0.00  0.00    +0.047 A 
ATOM      4 CL   LIG    1       23.115 -21.716   7.685  0.00  0.00    -0.083 Cl
ATOM      5  C   LIG    1       22.604 -19.891   5.804  0.00  0.00    +0.040 A 
ATOM      6  C   LIG    1       22.791 -19.254   4.581  0.00  0.00    +0.042 A 
ATOM      7 CL   LIG    1       21.879 -17.847   4.203  0.00  0.00    -0.084 Cl
ATOM      8  C   LIG    1       23.722 -19.734   3.668  0.00  0.00    +0.020 A 
ATOM      9  C   LIG    1       24.475 -20.863   3.980  0.00  0.00    +0.007 A 
ENDBRANCH   1   2
BRANCH   1  10
ATOM     10  S   LIG    1       26.487 -22.146   6.909  0.00  0.00    -0.146 S 
BRANCH  10  11
ATOM     11  C   LIG    1       26.821 -20.399   6.497  0.00  0.00    +0.104 C 
BRANCH  11  16
ATOM     12 CL   LIG    1       32.172 -18.151   8.171  0.00  0.00    -0.084 Cl
ATOM     13  C   LIG    1       30.672 -18.834   7.680  0.00  0.00    +0.041 A 
ATOM     14  C   LIG    1       30.287 -18.778   6.344  0.00  0.00    +0.020 A 
ATOM     15  C   LIG    1       29.049 -19.300   5.952  0.00  0.00    +0.006 A 
ATOM     16  C   LIG    1       28.192 -19.895   6.892  0.00  0.00    -0.037 A 
ATOM     17  C   LIG    1       28.605 -19.952   8.233  0.00  0.00    +0.006 A 
ATOM     18  C   LIG    1       29.840 -19.427   8.625  0.00  0.00    +0.020 A 
ENDBRANCH  11  16
ENDBRANCH  10  11
ENDBRANCH   1  10
BRANCH   1  19
ATOM     19  C   LIG    1       24.483 -23.877   6.103  0.00  0.00    +0.141 C 
BRANCH  19  20
ATOM     20  N   LIG    1       25.134 -25.159   5.863  0.00  0.00    -0.336 N 
ATOM     21  C   LIG    1       25.802 -25.897   6.802  0.00  0.00    +0.199 A 
ATOM     22  N   LIG    1       26.276 -27.013   6.283  0.00  0.00    -0.244 NA
ATOM     23  C   LIG    1       25.932 -26.970   4.963  0.00  0.00    +0.130 A 
ATOM     24  C   LIG    1       25.231 -25.822   4.675  0.00  0.00    +0.107 A 
ENDBRANCH  19  20
ENDBRANCH   1  19
TORSDOF 6
ENDMDL
MODEL 6
REMARK VINA RESULT:      -8.0      3.468      7.499
REMARK  Name = *****
REMARK                            x       y       z     vdW  Elec       q    Type
REMARK                         _______ _______ _______ _____ _____    ______ ____
ROOT
ATOM      1  C   LIG    1       24.841 -23.626   6.206  0.00  0.00    +0.098 C 
ENDROOT
BRANCH   1   2
ATOM      2  C   LIG    1       24.203 -22.372   5.633  0.00  0.00    -0.014 A 
ATOM      3  C   LIG    1       23.183 -21.673   6.308  0.00  0.00    +0.047 A 
ATOM      4 CL   LIG    1       22.476 -22.259   7.772  0.00  0.00    -0.083 Cl
ATOM      5  C   LIG    1       22.716 -20.450   5.823  0.00  0.00    +0.040 A 
ATOM      6  C   LIG    1       23.273 -19.903   4.672  0.00  0.00    +0.042 A 
ATOM      7 CL   LIG    1       22.728 -18.377   4.099  0.00  0.00    -0.084 Cl
ATOM      8  C   LIG    1       24.281 -20.572   3.987  0.00  0.00    +0.020 A 
ATOM      9  C   LIG    1       24.736 -21.801   4.458  0.00  0.00    +0.007 A 
ENDBRANCH   1   2
BRANCH   1  10
ATOM     10  S   LIG    1       24.920 -25.017   4.978  0.00  0.00    -0.146 S 
BRANCH  10  11
ATOM     11  C   LIG    1       26.099 -26.168   5.763  0.00  0.00    +0.104 C 
BRANCH  11  16
ATOM     12 CL   LIG    1       23.886 -31.329   7.991  0.00  0.00    -0.084 Cl
ATOM     13  C   LIG    1       24.474 -29.835   7.372  0.00  0.00    +0.041 A 
ATOM     14  C   LIG    1       24.068 -29.396   6.115  0.00  0.00    +0.020 A 
ATOM     15  C   LIG    1       24.576 -28.199   5.597  0.00  0.00    +0.006 A 
ATOM     16  C   LIG    1       25.486 -27.426   6.338  0.00  0.00    -0.037 A 
ATOM     17  C   LIG    1       25.873 -27.882   7.609  0.00  0.00    +0.006 A 
ATOM     18  C   LIG    1       25.369 -29.079   8.124  0.00  0.00    +0.020 A 
ENDBRANCH  11  16
ENDBRANCH  10  11
ENDBRANCH   1  10
BRANCH   1  19
ATOM     19  C   LIG    1       26.290 -23.324   6.684  0.00  0.00    +0.141 C 
BRANCH  19  20
ATOM     20  N   LIG    1       26.423 -22.120   7.495  0.00  0.00    -0.336 N 
ATOM     21  C   LIG    1       25.794 -21.895   8.689  0.00  0.00    +0.199 A 
ATOM     22  N   LIG    1       26.120 -20.717   9.185  0.00  0.00    -0.244 NA
ATOM     23  C   LIG    1       26.955 -20.157   8.262  0.00  0.00    +0.130 A 
ATOM     24  C   LIG    1       27.150 -21.005   7.197  0.00  0.00    +0.107 A 
ENDBRANCH  19  20
ENDBRANCH   1  19
TORSDOF 6
ENDMDL
MODEL 7
REMARK VINA RESULT:      -7.9      1.844      7.030
REMARK  Name = *****
REMARK                            x       y       z     vdW  Elec       q    Type
REMARK                         _______ _______ _______ _____ _____    ______ ____
ROOT
ATOM      1  C   LIG    1       26.651 -21.425   6.419  0.00  0.00    +0.098 C 
ENDROOT
BRANCH   1   2
ATOM      2  C   LIG    1       28.011 -20.822   6.728  0.00  0.00    -0.014 A 
ATOM      3  C   LIG    1       28.479 -19.658   6.086  0.00  0.00    +0.047 A 
ATOM      4 CL   LIG    1       27.611 -18.902   4.798  0.00  0.00    -0.083 Cl
ATOM      5  C   LIG    1       29.669 -19.051   6.491  0.00  0.00    +0.040 A 
ATOM      6  C   LIG    1       30.394 -19.587   7.551  0.00  0.00    +0.042 A 
ATOM      7 CL   LIG    1       31.836 -18.814   8.078  0.00  0.00    -0.084 Cl
ATOM      8  C   LIG    1       29.954 -20.734   8.202  0.00  0.00    +0.020 A 
ATOM      9  C   LIG    1       28.777 -21.352   7.788  0.00  0.00    +0.007 A 
ENDBRANCH   1   2
BRANCH   1  10
ATOM     10  S   LIG    1       26.374 -23.049   7.279  0.00  0.00    -0.146 S 
BRANCH  10  11
ATOM     11  C   LIG    1       25.188 -23.883   6.170  0.00  0.00    +0.104 C 
BRANCH  11  16
ATOM     12 CL   LIG    1       24.963 -29.901   6.635  0.00  0.00    -0.084 Cl
ATOM     13  C   LIG    1       25.067 -28.192   6.470  0.00  0.00    +0.041 A 
ATOM     14  C   LIG    1       25.978 -27.474   7.240  0.00  0.00    +0.020 A 
ATOM     15  C   LIG    1       26.035 -26.080   7.133  0.00  0.00    +0.006 A 
ATOM     16  C   LIG    1       25.189 -25.394   6.245  0.00  0.00    -0.037 A 
ATOM     17  C   LIG    1       24.285 -26.139   5.470  0.00  0.00    +0.006 A 
ATOM     18  C   LIG    1       24.226 -27.531   5.580  0.00  0.00    +0.020 A 
ENDBRANCH  11  16
ENDBRANCH  10  11
ENDBRANCH   1  10
BRANCH   1  19
ATOM     19  C   LIG    1       25.519 -20.452   6.852  0.00  0.00    +0.141 C 
BRANCH  19  20
ATOM     20  N   LIG    1       24.370 -20.420   5.956  0.00  0.00    -0.336 N 
ATOM     21  C   LIG    1       24.422 -20.181   4.610  0.00  0.00    +0.199 A 
ATOM     22  N   LIG    1       23.219 -20.225   4.071  0.00  0.00    -0.244 NA
ATOM     23  C   LIG    1       22.368 -20.464   5.111  0.00  0.00    +0.130 A 
ATOM     24  C   LIG    1       23.058 -20.579   6.295  0.00  0.00    +0.107 A 
ENDBRANCH  19  20
ENDBRANCH   1  19
TORSDOF 6
ENDMDL
MODEL 8
REMARK VINA RESULT:      -7.8      1.827      6.959
REMARK  Name = *****
REMARK                            x       y       z     vdW  Elec       q    Type
REMARK                         _______ _______ _______ _____ _____    ______ ____
ROOT
ATOM      1  C   LIG    1       25.737 -21.530   6.132  0.00  0.00    +0.098 C 
ENDROOT
BRANCH   1   2
ATOM      2  C   LIG    1       26.900 -20.649   6.553  0.00  0.00    -0.014 A 
ATOM      3  C   LIG    1       27.132 -20.305   7.900  0.00  0.00    +0.047 A 
ATOM      4 CL   LIG    1       26.038 -20.739   9.165  0.00  0.00    -0.083 Cl
ATOM      5  C   LIG    1       28.286 -19.611   8.269  0.00  0.00    +0.040 A 
ATOM      6  C   LIG    1       29.227 -19.269   7.303  0.00  0.00    +0.042 A 
ATOM      7 CL   LIG    1       30.668 -18.454   7.765  0.00  0.00    -0.084 Cl
ATOM      8  C   LIG    1       29.022 -19.596   5.968  0.00  0.00    +0.020 A 
ATOM      9  C   LIG    1       27.864 -20.272   5.594  0.00  0.00    +0.007 A 
ENDBRANCH   1   2
BRANCH   1  10
ATOM     10  S   LIG    1       25.755 -23.190   6.968  0.00  0.00    -0.146 S 
BRANCH  10  11
ATOM     11  C   LIG    1       25.150 -24.299   5.650  0.00  0.00    +0.104 C 
BRANCH  11  16
ATOM     12 CL   LIG    1       24.978 -30.145   7.166  0.00  0.00    -0.084 Cl
ATOM     13  C   LIG    1       25.068 -28.490   6.705  0.00  0.00    +0.041 A 
ATOM     14  C   LIG    1       25.941 -27.631   7.366  0.00  0.00    +0.020 A 
ATOM     15  C   LIG    1       25.986 -26.277   7.015  0.00  0.00    +0.006 A 
ATOM     16  C   LIG    1       25.165 -25.773   5.992  0.00  0.00    -0.037 A 
ATOM     17  C   LIG    1       24.300 -26.660   5.330  0.00  0.00    +0.006 A 
ATOM     18  C   LIG    1       24.252 -28.011   5.683  0.00  0.00    +0.020 A 
ENDBRANCH  11  16
ENDBRANCH  10  11
ENDBRANCH   1  10
BRANCH   1  19
ATOM     19  C   LIG    1       24.386 -20.838   6.466  0.00  0.00    +0.141 C 
BRANCH  19  20
ATOM     20  N   LIG    1       23.822 -20.050   5.378  0.00  0.00    -0.336 N 
ATOM     21  C   LIG    1       22.564 -19.511   5.359  0.00  0.00    +0.199 A 
ATOM     22  N   LIG    1       22.347 -18.846   4.241  0.00  0.00    -0.244 NA
ATOM     23  C   LIG    1       23.489 -18.993   3.507  0.00  0.00    +0.130 A 
ATOM     24  C   LIG    1       24.416 -19.747   4.188  0.00  0.00    +0.107 A 
ENDBRANCH  19  20
ENDBRANCH   1  19
TORSDOF 6
ENDMDL
MODEL 9
REMARK VINA RESULT:      -7.7      1.484      1.980
REMARK  Name = *****
REMARK                            x       y       z     vdW  Elec       q    Type
REMARK                         _______ _______ _______ _____ _____    ______ ____
ROOT
ATOM      1  C   LIG    1       24.399 -21.909   5.883  0.00  0.00    +0.098 C 
ENDROOT
BRANCH   1   2
ATOM      2  C   LIG    1       24.943 -23.327   5.845  0.00  0.00    -0.014 A 
ATOM      3  C   LIG    1       25.593 -23.911   6.951  0.00  0.00    +0.047 A 
ATOM      4 CL   LIG    1       25.950 -23.020   8.388  0.00  0.00    -0.083 Cl
ATOM      5  C   LIG    1       25.955 -25.259   6.933  0.00  0.00    +0.040 A 
ATOM      6  C   LIG    1       25.658 -26.042   5.822  0.00  0.00    +0.042 A 
ATOM      7 CL   LIG    1       26.066 -27.712   5.818  0.00  0.00    -0.084 Cl
ATOM      8  C   LIG    1       25.017 -25.490   4.718  0.00  0.00    +0.020 A 
ATOM      9  C   LIG    1       24.671 -24.141   4.726  0.00  0.00    +0.007 A 
ENDBRANCH   1   2
BRANCH   1  10
ATOM     10  S   LIG    1       25.504 -20.742   6.816  0.00  0.00    -0.146 S 
BRANCH  10  11
ATOM     11  C   LIG    1       26.846 -20.431   5.618  0.00  0.00    +0.104 C 
BRANCH  11  16
ATOM     12 CL   LIG    1       31.949 -18.519   8.225  0.00  0.00    -0.084 Cl
ATOM     13  C   LIG    1       30.524 -19.092   7.451  0.00  0.00    +0.041 A 
ATOM     14  C   LIG    1       30.082 -18.491   6.276  0.00  0.00    +0.020 A 
ATOM     15  C   LIG    1       28.902 -18.934   5.667  0.00  0.00    +0.006 A 
ATOM     16  C   LIG    1       28.161 -19.990   6.224  0.00  0.00    -0.037 A 
ATOM     17  C   LIG    1       28.631 -20.589   7.403  0.00  0.00    +0.006 A 
ATOM     18  C   LIG    1       29.807 -20.145   8.013  0.00  0.00    +0.020 A 
ENDBRANCH  11  16
ENDBRANCH  10  11
ENDBRANCH   1  10
BRANCH   1  19
ATOM     19  C   LIG    1       24.226 -21.358   4.440  0.00  0.00    +0.141 C 
BRANCH  19  20
ATOM     20  N   LIG    1       23.534 -20.079   4.357  0.00  0.00    -0.336 N 
ATOM     21  C   LIG    1       23.961 -18.991   3.646  0.00  0.00    +0.199 A 
ATOM     22  N   LIG    1       23.116 -17.985   3.760  0.00  0.00    -0.244 NA
ATOM     23  C   LIG    1       22.136 -18.431   4.599  0.00  0.00    +0.130 A 
ATOM     24  C   LIG    1       22.379 -19.727   4.992  0.00  0.00    +0.107 A 
ENDBRANCH  19  20
ENDBRANCH   1  19
TORSDOF 6
ENDMDL
