MODEL 1
REMARK VINA RESULT:      -8.5      0.000      0.000
REMARK  Name = *****
REMARK                            x       y       z     vdW  Elec       q    Type
REMARK                         _______ _______ _______ _____ _____    ______ ____
ROOT
ATOM      1  N   LIG    1       25.807 -21.043   5.112  0.00  0.00    -0.312 N 
ATOM      2  H   LIG    1       25.716 -22.008   4.780  0.00  0.00    +0.152 HD
ENDROOT
BRANCH   1   7
ATOM      3  C   LIG    1       30.120 -18.850   6.512  0.00  0.00    +0.045 C 
ATOM      4  C   LIG    1       28.959 -19.781   6.752  0.00  0.00    -0.030 A 
ATOM      5  C   LIG    1       27.834 -19.902   5.902  0.00  0.00    +0.066 A 
ATOM      6 CL   LIG    1       27.594 -18.725   4.640  0.00  0.00    -0.081 Cl
ATOM      7  C   LIG    1       26.861 -20.934   6.072  0.00  0.00    +0.069 A 
ATOM      8  C   LIG    1       27.044 -21.806   7.166  0.00  0.00    +0.064 A 
ATOM      9 CL   LIG    1       26.107 -23.238   7.438  0.00  0.00    -0.082 Cl
ATOM     10  C   LIG    1       28.101 -21.623   8.067  0.00  0.00    +0.022 A 
ATOM     11  C   LIG    1       29.061 -20.641   7.850  0.00  0.00    +0.006 A 
ENDBRANCH   1   7
BRANCH   1  12
ATOM     12  C   LIG    1       24.639 -20.280   4.878  0.00  0.00    +0.045 A 
ATOM     13  C   LIG    1       23.443 -20.470   5.609  0.00  0.00    +0.080 A 
ATOM     14  C   LIG    1       22.307 -19.677   5.343  0.00  0.00    +0.017 A 
ATOM     15  C   LIG    1       22.342 -18.689   4.362  0.00  0.00    +0.001 A 
ATOM     16  C   LIG    1       23.498 -18.515   3.614  0.00  0.00    +0.002 A 
ATOM     17  C   LIG    1       24.617 -19.320   3.850  0.00  0.00    +0.024 A 
BRANCH  13  18
ATOM     18  C   LIG    1       23.255 -21.490   6.672  0.00  0.00    +0.339 C 
ATOM     19  O   LIG    1       23.305 -21.288   7.866  0.00  0.00    -0.245 OA
BRANCH  18  20
ATOM     20  O   LIG    1       23.085 -22.740   6.193  0.00  0.00    -0.477 OA
ATOM     21  H   LIG    1       23.990 -23.119   6.263  0.00  0.00    +0.295 HD
ENDBRANCH  18  20
ENDBRANCH  13  18
ENDBRANCH   1  12
TORSDOF 4
ENDMDL
MODEL 2
REMARK VINA RESULT:      -8.3      1.617      4.944
REMARK  Name = *****
REMARK                            x       y       z     vdW  Elec       q    Type
REMARK                         _______ _______ _______ _____ _____    ______ ____
ROOT
ATOM      1  N   LIG    1       26.393 -21.078   5.426  0.00  0.00    -0.312 N 
ATOM      2  H   LIG    1       26.752 -21.557   4.595  0.00  0.00    +0.152 HD
ENDROOT
BRANCH   1   7
ATOM      3  C   LIG    1       22.383 -18.310   4.153  0.00  0.00    +0.045 C 
ATOM      4  C   LIG    1       23.019 -19.575   4.667  0.00  0.00    -0.030 A 
ATOM      5  C   LIG    1       24.413 -19.824   4.692  0.00  0.00    +0.066 A 
ATOM      6 CL   LIG    1       25.482 -18.752   3.830  0.00  0.00    -0.081 Cl
ATOM      7  C   LIG    1       24.971 -20.953   5.366  0.00  0.00    +0.069 A 
ATOM      8  C   LIG    1       24.061 -21.847   5.969  0.00  0.00    +0.064 A 
ATOM      9 CL   LIG    1       24.523 -23.159   7.003  0.00  0.00    -0.082 Cl
ATOM     10  C   LIG    1       22.677 -21.655   5.856  0.00  0.00    +0.022 A 
ATOM     11  C   LIG    1       22.163 -20.523   5.236  0.00  0.00    +0.006 A 
ENDBRANCH   1   7
BRANCH   1  12
ATOM     12  C   LIG    1       27.395 -20.335   6.094  0.00  0.00    +0.045 A 
ATOM     13  C   LIG    1       27.476 -20.259   7.505  0.00  0.00    +0.080 A 
ATOM     14  C   LIG    1       28.501 -19.511   8.124  0.00  0.00    +0.017 A 
ATOM     15  C   LIG    1       29.454 -18.841   7.362  0.00  0.00    +0.001 A 
ATOM     16  C   LIG    1       29.366 -18.881   5.977  0.00  0.00    +0.002 A 
ATOM     17  C   LIG    1       28.334 -19.592   5.357  0.00  0.00    +0.024 A 
BRANCH  13  18
ATOM     18  C   LIG    1       26.525 -20.909   8.443  0.00  0.00    +0.339 C 
ATOM     19  O   LIG    1       25.482 -20.434   8.838  0.00  0.00    -0.245 OA
BRANCH  18  20
ATOM     20  O   LIG    1       26.959 -22.099   8.908  0.00  0.00    -0.477 OA
ATOM     21  H   LIG    1       27.275 -22.543   8.089  0.00  0.00    +0.295 HD
ENDBRANCH  18  20
ENDBRANCH  13  18
ENDBRANCH   1  12
TORSDOF 4
ENDMDL
MODEL 3
REMARK VINA RESULT:      -8.1      2.708      3.527
REMARK  Name = *****
REMARK                            x       y       z     vdW  Elec       q    Type
REMARK                         _______ _______ _______ _____ _____    ______ ____
ROOT
ATOM      1  N   LIG    1       27.115 -21.816   6.832  0.00  0.00    -0.312 N 
ATOM      2  H   LIG    1       27.614 -22.546   7.347  0.00  0.00    +0.152 HD
ENDROOT
BRANCH   1   7
ATOM      3  C   LIG    1       31.203 -19.110   7.985  0.00  0.00    +0.045 C 
ATOM      4  C   LIG    1       30.050 -19.463   7.081  0.00  0.00    -0.030 A 
ATOM      5  C   LIG    1       29.178 -20.561   7.277  0.00  0.00    +0.066 A 
ATOM      6 CL   LIG    1       29.590 -21.770   8.462  0.00  0.00    -0.081 Cl
ATOM      7  C   LIG    1       27.990 -20.734   6.505  0.00  0.00    +0.069 A 
ATOM      8  C   LIG    1       27.746 -19.783   5.491  0.00  0.00    +0.064 A 
ATOM      9 CL   LIG    1       26.276 -19.686   4.578  0.00  0.00    -0.082 Cl
ATOM     10  C   LIG    1       28.662 -18.755   5.229  0.00  0.00    +0.022 A 
ATOM     11  C   LIG    1       29.785 -18.581   6.028  0.00  0.00    +0.006 A 
ENDBRANCH   1   7
BRANCH   1  12
ATOM     12  C   LIG    1       25.713 -21.897   7.006  0.00  0.00    +0.045 A 
ATOM     13  C   LIG    1       24.959 -23.029   6.615  0.00  0.00    +0.080 A 
ATOM     14  C   LIG    1       23.563 -23.065   6.819  0.00  0.00    +0.017 A 
ATOM     15  C   LIG    1       22.902 -21.994   7.414  0.00  0.00    +0.001 A 
ATOM     16  C   LIG    1       23.625 -20.864   7.772  0.00  0.00    +0.002 A 
ATOM     17  C   LIG    1       25.003 -20.808   7.543  0.00  0.00    +0.024 A 
BRANCH  13  18
ATOM     18  C   LIG    1       25.524 -24.236   5.960  0.00  0.00    +0.339 C 
ATOM     19  O   LIG    1       26.351 -24.982   6.439  0.00  0.00    -0.245 OA
BRANCH  18  20
ATOM     20  O   LIG    1       25.083 -24.418   4.697  0.00  0.00    -0.477 OA
ATOM     21  H   LIG    1       25.119 -23.507   4.328  0.00  0.00    +0.295 HD
ENDBRANCH  18  20
ENDBRANCH  13  18
ENDBRANCH   1  12
TORSDOF 4
ENDMDL
MODEL 4
REMARK VINA RESULT:      -8.1      1.803      5.478
REMARK  Name = *****
REMARK                            x       y       z     vdW  Elec       q    Type
REMARK                         _______ _______ _______ _____ _____    ______ ____
ROOT
ATOM      1  N   LIG    1       26.660 -21.030   5.556  0.00  0.00    -0.312 N 
ATOM      2  H   LIG    1       27.018 -21.595   4.780  0.00  0.00    +0.152 HD
ENDROOT
BRANCH   1   7
ATOM      3  C   LIG    1       22.225 -23.153   6.647  0.00  0.00    +0.045 C 
ATOM      4  C   LIG    1       23.066 -22.016   6.127  0.00  0.00    -0.030 A 
ATOM      5  C   LIG    1       24.478 -21.961   6.194  0.00  0.00    +0.066 A 
ATOM      6 CL   LIG    1       25.326 -23.122   7.179  0.00  0.00    -0.081 Cl
ATOM      7  C   LIG    1       25.233 -20.957   5.515  0.00  0.00    +0.069 A 
ATOM      8  C   LIG    1       24.500 -19.980   4.809  0.00  0.00    +0.064 A 
ATOM      9 CL   LIG    1       25.210 -18.801   3.756  0.00  0.00    -0.082 Cl
ATOM     10  C   LIG    1       23.098 -19.975   4.827  0.00  0.00    +0.022 A 
ATOM     11  C   LIG    1       22.390 -20.992   5.455  0.00  0.00    +0.006 A 
ENDBRANCH   1   7
BRANCH   1  12
ATOM     12  C   LIG    1       27.650 -20.182   6.106  0.00  0.00    +0.045 A 
ATOM     13  C   LIG    1       27.894 -20.096   7.497  0.00  0.00    +0.080 A 
ATOM     14  C   LIG    1       28.900 -19.241   7.996  0.00  0.00    +0.017 A 
ATOM     15  C   LIG    1       29.673 -18.471   7.132  0.00  0.00    +0.001 A 
ATOM     16  C   LIG    1       29.421 -18.521   5.768  0.00  0.00    +0.002 A 
ATOM     17  C   LIG    1       28.405 -19.342   5.269  0.00  0.00    +0.024 A 
BRANCH  13  18
ATOM     18  C   LIG    1       27.142 -20.845   8.536  0.00  0.00    +0.339 C 
ATOM     19  O   LIG    1       26.139 -20.463   9.100  0.00  0.00    -0.245 OA
BRANCH  18  20
ATOM     20  O   LIG    1       27.721 -22.015   8.880  0.00  0.00    -0.477 OA
ATOM     21  H   LIG    1       27.869 -22.443   8.007  0.00  0.00    +0.295 HD
ENDBRANCH  18  20
ENDBRANCH  13  18
ENDBRANCH   1  12
TORSDOF 4
ENDMDL
MODEL 5
REMARK VINA RESULT:      -7.9      2.246      3.893
REMARK  Name = *****
REMARK                            x       y       z     vdW  Elec       q    Type
REMARK                         _______ _______ _______ _____ _____    ______ ____
ROOT
ATOM      1  N   LIG    1       26.102 -21.952   7.359  0.00  0.00    -0.312 N 
ATOM      2  H   LIG    1       25.618 -21.500   8.141  0.00  0.00    +0.152 HD
ENDROOT
BRANCH   1   7
ATOM      3  C   LIG    1       30.380 -19.307   7.081  0.00  0.00    +0.045 C 
ATOM      4  C   LIG    1       29.059 -19.768   6.520  0.00  0.00    -0.030 A 
ATOM      5  C   LIG    1       28.231 -20.752   7.112  0.00  0.00    +0.066 A 
ATOM      6 CL   LIG    1       28.862 -21.719   8.416  0.00  0.00    -0.081 Cl
ATOM      7  C   LIG    1       26.906 -21.010   6.645  0.00  0.00    +0.069 A 
ATOM      8  C   LIG    1       26.471 -20.270   5.525  0.00  0.00    +0.064 A 
ATOM      9 CL   LIG    1       24.846 -20.276   4.925  0.00  0.00    -0.082 Cl
ATOM     10  C   LIG    1       27.328 -19.370   4.877  0.00  0.00    +0.022 A 
ATOM     11  C   LIG    1       28.595 -19.103   5.381  0.00  0.00    +0.006 A 
ENDBRANCH   1   7
BRANCH   1  12
ATOM     12  C   LIG    1       25.496 -23.175   6.986  0.00  0.00    +0.045 A 
ATOM     13  C   LIG    1       24.103 -23.304   6.778  0.00  0.00    +0.080 A 
ATOM     14  C   LIG    1       23.547 -24.544   6.398  0.00  0.00    +0.017 A 
ATOM     15  C   LIG    1       24.358 -25.661   6.213  0.00  0.00    +0.001 A 
ATOM     16  C   LIG    1       25.722 -25.556   6.446  0.00  0.00    +0.002 A 
ATOM     17  C   LIG    1       26.275 -24.338   6.855  0.00  0.00    +0.024 A 
BRANCH  13  18
ATOM     18  C   LIG    1       23.116 -22.207   6.950  0.00  0.00    +0.339 C 
ATOM     19  O   LIG    1       23.065 -21.439   7.886  0.00  0.00    -0.245 OA
BRANCH  18  20
ATOM     20  O   LIG    1       22.186 -22.163   5.973  0.00  0.00    -0.477 OA
ATOM     21  H   LIG    1       21.755 -21.293   6.130  0.00  0.00    +0.295 HD
ENDBRANCH  18  20
ENDBRANCH  13  18
ENDBRANCH   1  12
TORSDOF 4
ENDMDL
MODEL 6
REMARK VINA RESULT:      -7.8      1.797      3.092
REMARK  Name = *****
REMARK                            x       y       z     vdW  Elec       q    Type
REMARK                         _______ _______ _______ _____ _____    ______ ____
ROOT
ATOM      1  N   LIG    1       27.142 -20.996   5.951  0.00  0.00    -0.312 N 
ATOM      2  H   LIG    1       27.390 -21.981   6.080  0.00  0.00    +0.152 HD
ENDROOT
BRANCH   1   7
ATOM      3  C   LIG    1       31.117 -19.870   8.832  0.00  0.00    +0.045 C 
ATOM      4  C   LIG    1       30.256 -19.668   7.611  0.00  0.00    -0.030 A 
ATOM      5  C   LIG    1       29.169 -20.498   7.246  0.00  0.00    +0.066 A 
ATOM      6 CL   LIG    1       28.947 -22.018   8.069  0.00  0.00    -0.081 Cl
ATOM      7  C   LIG    1       28.269 -20.151   6.192  0.00  0.00    +0.069 A 
ATOM      8  C   LIG    1       28.543 -18.959   5.489  0.00  0.00    +0.064 A 
ATOM      9 CL   LIG    1       27.478 -18.250   4.321  0.00  0.00    -0.082 Cl
ATOM     10  C   LIG    1       29.678 -18.191   5.784  0.00  0.00    +0.022 A 
ATOM     11  C   LIG    1       30.509 -18.526   6.846  0.00  0.00    +0.006 A 
ENDBRANCH   1   7
BRANCH   1  12
ATOM     12  C   LIG    1       25.745 -20.778   6.027  0.00  0.00    +0.045 A 
ATOM     13  C   LIG    1       25.027 -20.844   7.244  0.00  0.00    +0.080 A 
ATOM     14  C   LIG    1       23.636 -20.610   7.268  0.00  0.00    +0.017 A 
ATOM     15  C   LIG    1       22.945 -20.305   6.099  0.00  0.00    +0.001 A 
ATOM     16  C   LIG    1       23.631 -20.271   4.893  0.00  0.00    +0.002 A 
ATOM     17  C   LIG    1       25.004 -20.534   4.857  0.00  0.00    +0.024 A 
BRANCH  13  18
ATOM     18  C   LIG    1       25.627 -21.170   8.564  0.00  0.00    +0.339 C 
ATOM     19  O   LIG    1       25.940 -20.369   9.418  0.00  0.00    -0.245 OA
BRANCH  18  20
ATOM     20  O   LIG    1       25.879 -22.485   8.729  0.00  0.00    -0.477 OA
ATOM     21  H   LIG    1       25.680 -22.621   9.682  0.00  0.00    +0.295 HD
ENDBRANCH  18  20
ENDBRANCH  13  18
ENDBRANCH   1  12
TORSDOF 4
ENDMDL
MODEL 7
REMARK VINA RESULT:      -7.8      2.217      2.729
REMARK  Name = *****
REMARK                            x       y       z     vdW  Elec       q    Type
REMARK                         _______ _______ _______ _____ _____    ______ ____
ROOT
ATOM      1  N   LIG    1       26.522 -20.468   5.010  0.00  0.00    -0.312 N 
ATOM      2  H   LIG    1       26.762 -21.083   4.227  0.00  0.00    +0.152 HD
ENDROOT
BRANCH   1   7
ATOM      3  C   LIG    1       30.896 -18.985   7.018  0.00  0.00    +0.045 C 
ATOM      4  C   LIG    1       29.617 -19.783   7.050  0.00  0.00    -0.030 A 
ATOM      5  C   LIG    1       28.576 -19.675   6.097  0.00  0.00    +0.066 A 
ATOM      6 CL   LIG    1       28.601 -18.356   4.959  0.00  0.00    -0.081 Cl
ATOM      7  C   LIG    1       27.479 -20.589   6.063  0.00  0.00    +0.069 A 
ATOM      8  C   LIG    1       27.450 -21.583   7.064  0.00  0.00    +0.064 A 
ATOM      9 CL   LIG    1       26.332 -22.907   7.090  0.00  0.00    -0.082 Cl
ATOM     10  C   LIG    1       28.426 -21.627   8.069  0.00  0.00    +0.022 A 
ATOM     11  C   LIG    1       29.509 -20.756   8.048  0.00  0.00    +0.006 A 
ENDBRANCH   1   7
BRANCH   1  12
ATOM     12  C   LIG    1       25.163 -20.074   4.988  0.00  0.00    +0.045 A 
ATOM     13  C   LIG    1       24.671 -19.075   4.114  0.00  0.00    +0.080 A 
ATOM     14  C   LIG    1       23.304 -18.724   4.124  0.00  0.00    +0.017 A 
ATOM     15  C   LIG    1       22.413 -19.356   4.988  0.00  0.00    +0.001 A 
ATOM     16  C   LIG    1       22.889 -20.313   5.873  0.00  0.00    +0.002 A 
ATOM     17  C   LIG    1       24.247 -20.643   5.891  0.00  0.00    +0.024 A 
BRANCH  13  18
ATOM     18  C   LIG    1       25.503 -18.310   3.150  0.00  0.00    +0.339 C 
ATOM     19  O   LIG    1       25.746 -17.124   3.208  0.00  0.00    -0.245 OA
BRANCH  18  20
ATOM     20  O   LIG    1       25.938 -19.051   2.110  0.00  0.00    -0.477 OA
ATOM     21  H   LIG    1       25.699 -18.491   1.337  0.00  0.00    +0.295 HD
ENDBRANCH  18  20
ENDBRANCH  13  18
ENDBRANCH   1  12
TORSDOF 4
ENDMDL
MODEL 8
REMARK VINA RESULT:      -7.8      2.654      5.807
REMARK  Name = *****
REMARK                            x       y       z     vdW  Elec       q    Type
REMARK                         _______ _______ _______ _____ _____    ______ ____
ROOT
ATOM      1  N   LIG    1       27.045 -20.909   5.773  0.00  0.00    -0.312 N 
ATOM      2  H   LIG    1       27.228 -20.800   4.771  0.00  0.00    +0.152 HD
ENDROOT
BRANCH   1   7
ATOM      3  C   LIG    1       22.532 -19.165   4.374  0.00  0.00    +0.045 C 
ATOM      4  C   LIG    1       23.430 -19.955   5.292  0.00  0.00    -0.030 A 
ATOM      5  C   LIG    1       24.804 -20.200   5.060  0.00  0.00    +0.066 A 
ATOM      6 CL   LIG    1       25.481 -19.828   3.499  0.00  0.00    -0.081 Cl
ATOM      7  C   LIG    1       25.649 -20.784   6.053  0.00  0.00    +0.069 A 
ATOM      8  C   LIG    1       25.038 -21.158   7.268  0.00  0.00    +0.064 A 
ATOM      9 CL   LIG    1       25.904 -21.692   8.671  0.00  0.00    -0.082 Cl
ATOM     10  C   LIG    1       23.657 -21.009   7.458  0.00  0.00    +0.022 A 
ATOM     11  C   LIG    1       22.868 -20.393   6.495  0.00  0.00    +0.006 A 
ENDBRANCH   1   7
BRANCH   1  12
ATOM     12  C   LIG    1       28.204 -20.697   6.557  0.00  0.00    +0.045 A 
ATOM     13  C   LIG    1       29.056 -19.582   6.376  0.00  0.00    +0.080 A 
ATOM     14  C   LIG    1       30.196 -19.411   7.190  0.00  0.00    +0.017 A 
ATOM     15  C   LIG    1       30.501 -20.331   8.190  0.00  0.00    +0.001 A 
ATOM     16  C   LIG    1       29.692 -21.447   8.357  0.00  0.00    +0.002 A 
ATOM     17  C   LIG    1       28.580 -21.639   7.532  0.00  0.00    +0.024 A 
BRANCH  13  18
ATOM     18  C   LIG    1       28.864 -18.531   5.344  0.00  0.00    +0.339 C 
ATOM     19  O   LIG    1       27.825 -18.275   4.776  0.00  0.00    -0.245 OA
BRANCH  18  20
ATOM     20  O   LIG    1       30.005 -17.890   5.012  0.00  0.00    -0.477 OA
ATOM     21  H   LIG    1       29.686 -16.984   4.804  0.00  0.00    +0.295 HD
ENDBRANCH  18  20
ENDBRANCH  13  18
ENDBRANCH   1  12
TORSDOF 4
ENDMDL
MODEL 9
REMARK VINA RESULT:      -7.5      2.024      3.668
REMARK  Name = *****
REMARK                            x       y       z     vdW  Elec       q    Type
REMARK                         _______ _______ _______ _____ _____    ______ ____
ROOT
ATOM      1  N   LIG    1       27.193 -20.369   5.375  0.00  0.00    -0.312 N 
ATOM      2  H   LIG    1       27.354 -21.000   4.585  0.00  0.00    +0.152 HD
ENDROOT
BRANCH   1   7
ATOM      3  C   LIG    1       30.750 -21.204   8.842  0.00  0.00    +0.045 C 
ATOM      4  C   LIG    1       30.193 -20.456   7.658  0.00  0.00    -0.030 A 
ATOM      5  C   LIG    1       29.019 -20.820   6.955  0.00  0.00    +0.066 A 
ATOM      6 CL   LIG    1       28.295 -22.375   7.260  0.00  0.00    -0.081 Cl
ATOM      7  C   LIG    1       28.431 -19.971   5.969  0.00  0.00    +0.069 A 
ATOM      8  C   LIG    1       29.105 -18.764   5.686  0.00  0.00    +0.064 A 
ATOM      9 CL   LIG    1       28.466 -17.503   4.683  0.00  0.00    -0.082 Cl
ATOM     10  C   LIG    1       30.321 -18.452   6.308  0.00  0.00    +0.022 A 
ATOM     11  C   LIG    1       30.845 -19.273   7.299  0.00  0.00    +0.006 A 
ENDBRANCH   1   7
BRANCH   1  12
ATOM     12  C   LIG    1       25.873 -20.461   5.877  0.00  0.00    +0.045 A 
ATOM     13  C   LIG    1       24.731 -20.294   5.059  0.00  0.00    +0.080 A 
ATOM     14  C   LIG    1       23.435 -20.405   5.605  0.00  0.00    +0.017 A 
ATOM     15  C   LIG    1       23.254 -20.687   6.957  0.00  0.00    +0.001 A 
ATOM     16  C   LIG    1       24.366 -20.820   7.778  0.00  0.00    +0.002 A 
ATOM     17  C   LIG    1       25.653 -20.679   7.249  0.00  0.00    +0.024 A 
BRANCH  13  18
ATOM     18  C   LIG    1       24.770 -19.978   3.607  0.00  0.00    +0.339 C 
ATOM     19  O   LIG    1       24.163 -20.563   2.737  0.00  0.00    -0.245 OA
BRANCH  18  20
ATOM     20  O   LIG    1       25.630 -18.985   3.297  0.00  0.00    -0.477 OA
ATOM     21  H   LIG    1       26.214 -19.411   2.631  0.00  0.00    +0.295 HD
ENDBRANCH  18  20
ENDBRANCH  13  18
ENDBRANCH   1  12
TORSDOF 4
ENDMDL
