MODEL 1
REMARK VINA RESULT:      -8.3      0.000      0.000
REMARK  Name = *****
REMARK                            x       y       z     vdW  Elec       q    Type
REMARK                         _______ _______ _______ _____ _____    ______ ____
ROOT
ATOM      1  C   LIG    1       24.932 -31.377  10.507  0.00  0.00    +0.175 C 
ATOM      2  C   LIG    1       25.592 -31.727  11.831  0.00  0.00    +0.058 C 
ATOM      3  C   LIG    1       24.693 -31.085  12.900  0.00  0.00    +0.090 C 
ATOM      4  C   LIG    1       23.258 -31.141  12.269  0.00  0.00    +0.090 C 
ATOM      5  C   LIG    1       22.220 -29.992  12.244  0.00  0.00    +0.218 C 
ATOM      6  O   LIG    1       21.384 -29.905  11.341  0.00  0.00    -0.276 OA
ATOM      7  N   LIG    1       22.101 -29.224  13.377  0.00  0.00    -0.301 N 
ATOM      8  H   LIG    1       22.972 -29.041  13.875  0.00  0.00    +0.150 HD
ATOM      9  C   LIG    1       21.091 -28.172  13.509  0.00  0.00    +0.119 C 
ATOM     10  C   LIG    1       21.566 -26.707  13.585  0.00  0.00    +0.046 C 
ATOM     11  C   LIG    1       22.988 -26.352  13.387  0.00  0.00    -0.025 C 
ATOM     12  C   LIG    1       23.744 -25.583  14.191  0.00  0.00    -0.031 C 
ATOM     13  C   LIG    1       25.208 -25.232  14.031  0.00  0.00    +0.027 C 
ATOM     14  C   LIG    1       26.123 -26.198  13.260  0.00  0.00    +0.006 C 
ATOM     15  C   LIG    1       26.896 -27.177  14.166  0.00  0.00    +0.019 C 
ATOM     16  C   LIG    1       27.356 -28.428  13.406  0.00  0.00    +0.107 C 
ATOM     17  N   LIG    1       26.606 -29.657  13.701  0.00  0.00    -0.304 N 
ATOM     18  C   LIG    1       27.372 -30.761  14.267  0.00  0.00    +0.132 C 
ATOM     19  C   LIG    1       20.815 -27.187  12.380  0.00  0.00    +0.046 C 
ATOM     20  C   LIG    1       25.287 -29.738  13.278  0.00  0.00    +0.219 C 
ATOM     21  O   LIG    1       24.590 -28.734  13.210  0.00  0.00    -0.275 OA
ATOM     22  C   LIG    1       23.476 -31.670  10.824  0.00  0.00    +0.058 C 
ENDROOT
BRANCH   9  23
ATOM     23  C   LIG    1       19.891 -28.548  14.376  0.00  0.00    +0.256 C 
ATOM     24  N   LIG    1       18.932 -29.361  13.728  0.00  0.00    -0.188 N 
ATOM     25  H   LIG    1       19.122 -29.731  12.809  0.00  0.00    +0.176 HD
ATOM     26  O   LIG    1       19.784 -28.144  15.498  0.00  0.00    -0.272 OA
BRANCH  24  27
ATOM     27  S   LIG    1       17.617 -30.026  14.488  0.00  0.00    +0.048 S 
ATOM     28  O   LIG    1       16.998 -29.010  15.329  0.00  0.00    -0.155 OA
ATOM     29  O   LIG    1       18.095 -31.258  15.066  0.00  0.00    -0.155 OA
BRANCH  27  30
ATOM     30  C   LIG    1       16.394 -30.451  13.206  0.00  0.00    +0.151 C 
ATOM     31  C   LIG    1       16.776 -31.584  12.283  0.00  0.00    +0.030 C 
ATOM     32  C   LIG    1       15.775 -31.820  13.381  0.00  0.00    +0.030 C 
ENDBRANCH  27  30
ENDBRANCH  24  27
ENDBRANCH   9  23
BRANCH   1  33
ATOM     33  O   LIG    1       25.115 -29.990  10.166  0.00  0.00    -0.488 OA
BRANCH  33  39
ATOM     34  C   LIG    1       25.245 -32.862   5.946  0.00  0.00    +0.125 A 
ATOM     35  C   LIG    1       25.446 -31.523   5.560  0.00  0.00    +0.017 A 
ATOM     36  C   LIG    1       25.598 -31.122   4.105  0.00  0.00    +0.050 C 
ATOM     37  C   LIG    1       25.447 -30.510   6.534  0.00  0.00    +0.082 A 
ATOM     38  C   LIG    1       25.322 -30.810   7.907  0.00  0.00    +0.043 A 
ATOM     39  C   LIG    1       25.317 -29.718   8.821  0.00  0.00    +0.132 A 
ATOM     40  C   LIG    1       25.457 -28.416   8.333  0.00  0.00    +0.076 A 
ATOM     41  C   LIG    1       25.478 -28.216   6.973  0.00  0.00    +0.100 A 
ATOM     42  C   LIG    1       25.176 -32.161   8.272  0.00  0.00    +0.017 A 
ATOM     43  N   LIG    1       25.505 -29.247   6.107  0.00  0.00    -0.244 NA
ATOM     44  C   LIG    1       25.133 -33.167   7.305  0.00  0.00    +0.046 A 
BRANCH  41  45
ATOM     45  C   LIG    1       25.368 -26.873   6.368  0.00  0.00    +0.127 A 
ATOM     46  S   LIG    1       25.308 -26.731   4.645  0.00  0.00    -0.074 S 
ATOM     47  C   LIG    1       25.158 -25.046   4.787  0.00  0.00    +0.070 A 
ATOM     48  C   LIG    1       25.138 -24.662   6.113  0.00  0.00    +0.052 A 
ATOM     49  N   LIG    1       25.249 -25.722   7.016  0.00  0.00    -0.242 NA
BRANCH  48  50
ATOM     50  C   LIG    1       25.038 -23.246   6.630  0.00  0.00    +0.032 C 
ATOM     51  C   LIG    1       25.872 -23.035   7.897  0.00  0.00    +0.014 C 
ATOM     52  C   LIG    1       23.585 -22.835   6.908  0.00  0.00    +0.014 C 
ENDBRANCH  48  50
ENDBRANCH  41  45
BRANCH  34  54
ATOM     53  C   LIG    1       23.919 -33.825   4.248  0.00  0.00    +0.277 C 
ATOM     54  O   LIG    1       25.159 -33.825   4.967  0.00  0.00    -0.495 OA
ENDBRANCH  34  54
ENDBRANCH  33  39
ENDBRANCH   1  33
TORSDOF 8
ENDMDL
MODEL 2
REMARK VINA RESULT:      -6.5      1.603      2.090
REMARK  Name = *****
REMARK                            x       y       z     vdW  Elec       q    Type
REMARK                         _______ _______ _______ _____ _____    ______ ____
ROOT
ATOM      1  C   LIG    1       27.038 -30.038  10.411  0.00  0.00    +0.175 C 
ATOM      2  C   LIG    1       27.762 -30.072  11.747  0.00  0.00    +0.058 C 
ATOM      3  C   LIG    1       26.646 -30.181  12.797  0.00  0.00    +0.090 C 
ATOM      4  C   LIG    1       25.520 -30.995  12.068  0.00  0.00    +0.090 C 
ATOM      5  C   LIG    1       24.008 -30.665  12.059  0.00  0.00    +0.218 C 
ATOM      6  O   LIG    1       23.288 -30.988  11.110  0.00  0.00    -0.276 OA
ATOM      7  N   LIG    1       23.449 -30.226  13.235  0.00  0.00    -0.301 N 
ATOM      8  H   LIG    1       24.044 -29.624  13.804  0.00  0.00    +0.150 HD
ATOM      9  C   LIG    1       22.014 -29.975  13.377  0.00  0.00    +0.119 C 
ATOM     10  C   LIG    1       21.544 -28.522  13.595  0.00  0.00    +0.046 C 
ATOM     11  C   LIG    1       22.494 -27.391  13.522  0.00  0.00    -0.025 C 
ATOM     12  C   LIG    1       22.650 -26.412  14.431  0.00  0.00    -0.031 C 
ATOM     13  C   LIG    1       23.636 -25.264  14.397  0.00  0.00    +0.027 C 
ATOM     14  C   LIG    1       24.951 -25.437  13.620  0.00  0.00    +0.006 C 
ATOM     15  C   LIG    1       26.140 -25.872  14.501  0.00  0.00    +0.019 C 
ATOM     16  C   LIG    1       27.253 -26.541  13.683  0.00  0.00    +0.107 C 
ATOM     17  N   LIG    1       27.357 -27.998  13.833  0.00  0.00    -0.304 N 
ATOM     18  C   LIG    1       28.616 -28.505  14.365  0.00  0.00    +0.132 C 
ATOM     19  C   LIG    1       21.229 -29.224  12.309  0.00  0.00    +0.046 C 
ATOM     20  C   LIG    1       26.338 -28.786  13.315  0.00  0.00    +0.219 C 
ATOM     21  O   LIG    1       25.187 -28.371  13.275  0.00  0.00    -0.275 OA
ATOM     22  C   LIG    1       26.023 -31.151  10.606  0.00  0.00    +0.058 C 
ENDROOT
BRANCH   9  23
ATOM     23  C   LIG    1       21.249 -31.061  14.129  0.00  0.00    +0.256 C 
ATOM     24  N   LIG    1       19.984 -31.374  13.580  0.00  0.00    -0.188 N 
ATOM     25  H   LIG    1       19.702 -30.969  12.700  0.00  0.00    +0.176 HD
ATOM     26  O   LIG    1       21.696 -31.565  15.119  0.00  0.00    -0.272 OA
BRANCH  24  27
ATOM     27  S   LIG    1       19.022 -32.613  14.117  0.00  0.00    +0.048 S 
ATOM     28  O   LIG    1       18.612 -32.329  15.485  0.00  0.00    -0.155 OA
ATOM     29  O   LIG    1       19.749 -33.820  13.808  0.00  0.00    -0.155 OA
BRANCH  27  30
ATOM     30  C   LIG    1       17.501 -32.608  13.112  0.00  0.00    +0.151 C 
ATOM     31  C   LIG    1       16.815 -31.271  12.965  0.00  0.00    +0.030 C 
ATOM     32  C   LIG    1       17.622 -31.825  11.824  0.00  0.00    +0.030 C 
ENDBRANCH  27  30
ENDBRANCH  24  27
ENDBRANCH   9  23
BRANCH   1  33
ATOM     33  O   LIG    1       26.382 -28.776  10.188  0.00  0.00    -0.488 OA
BRANCH  33  39
ATOM     34  C   LIG    1       24.713 -31.400   6.139  0.00  0.00    +0.125 A 
ATOM     35  C   LIG    1       24.914 -30.067   5.734  0.00  0.00    +0.017 A 
ATOM     36  C   LIG    1       24.593 -29.600   4.326  0.00  0.00    +0.050 C 
ATOM     37  C   LIG    1       25.367 -29.117   6.664  0.00  0.00    +0.082 A 
ATOM     38  C   LIG    1       25.696 -29.481   7.986  0.00  0.00    +0.043 A 
ATOM     39  C   LIG    1       26.131 -28.448   8.864  0.00  0.00    +0.132 A 
ATOM     40  C   LIG    1       26.236 -27.140   8.385  0.00  0.00    +0.076 A 
ATOM     41  C   LIG    1       25.803 -26.865   7.108  0.00  0.00    +0.100 A 
ATOM     42  C   LIG    1       25.537 -30.830   8.353  0.00  0.00    +0.017 A 
ATOM     43  N   LIG    1       25.413 -27.843   6.268  0.00  0.00    -0.244 NA
ATOM     44  C   LIG    1       25.049 -31.771   7.443  0.00  0.00    +0.046 A 
BRANCH  41  45
ATOM     45  C   LIG    1       25.639 -25.486   6.607  0.00  0.00    +0.127 A 
ATOM     46  S   LIG    1       24.969 -25.239   5.031  0.00  0.00    -0.074 S 
ATOM     47  C   LIG    1       25.082 -23.559   5.244  0.00  0.00    +0.070 A 
ATOM     48  C   LIG    1       25.595 -23.252   6.489  0.00  0.00    +0.052 A 
ATOM     49  N   LIG    1       25.902 -24.368   7.271  0.00  0.00    -0.242 NA
BRANCH  48  50
ATOM     50  C   LIG    1       25.859 -21.865   7.027  0.00  0.00    +0.032 C 
ATOM     51  C   LIG    1       25.711 -20.790   5.947  0.00  0.00    +0.014 C 
ATOM     52  C   LIG    1       27.251 -21.750   7.666  0.00  0.00    +0.014 C 
ENDBRANCH  48  50
ENDBRANCH  41  45
BRANCH  34  54
ATOM     53  C   LIG    1       23.175 -33.153   5.777  0.00  0.00    +0.277 C 
ATOM     54  O   LIG    1       24.185 -32.293   5.234  0.00  0.00    -0.495 OA
ENDBRANCH  34  54
ENDBRANCH  33  39
ENDBRANCH   1  33
TORSDOF 8
ENDMDL
