MODEL 1
REMARK VINA RESULT:      -7.6      0.000      0.000
REMARK  Name = *****
REMARK                            x       y       z     vdW  Elec       q    Type
REMARK                         _______ _______ _______ _____ _____    ______ ____
ROOT
ATOM      1  C   LIG    1       25.909 -27.030   6.947  0.00  0.00    +0.009 C 
ATOM      2  C   LIG    1       25.077 -25.978   6.902  0.00  0.00    +0.004 C 
ENDROOT
BRANCH   1   8
ATOM      3  C   LIG    1       24.777 -31.064   7.795  0.00  0.00    +0.123 A 
ATOM      4  C   LIG    1       25.574 -30.367   8.724  0.00  0.00    -0.005 A 
ATOM      5  C   LIG    1       26.133 -31.103   9.917  0.00  0.00    +0.048 C 
ATOM      6  C   LIG    1       25.842 -28.989   8.522  0.00  0.00    -0.037 A 
ATOM      7  C   LIG    1       26.562 -28.197   9.588  0.00  0.00    +0.045 C 
ATOM      8  C   LIG    1       25.467 -28.387   7.297  0.00  0.00    -0.019 A 
ATOM      9  C   LIG    1       24.715 -29.110   6.347  0.00  0.00    -0.040 A 
ATOM     10  C   LIG    1       24.304 -28.521   5.020  0.00  0.00    +0.044 C 
ATOM     11  C   LIG    1       24.340 -30.426   6.634  0.00  0.00    +0.049 A 
BRANCH   3  13
ATOM     12  C   LIG    1       23.232 -32.840   7.521  0.00  0.00    +0.277 C 
ATOM     13  O   LIG    1       24.427 -32.350   8.121  0.00  0.00    -0.495 OA
ENDBRANCH   3  13
ENDBRANCH   1   8
BRANCH   2  14
ATOM     14  C   LIG    1       25.414 -24.622   6.454  0.00  0.00    -0.050 C 
ATOM     15  C   LIG    1       25.933 -23.698   7.288  0.00  0.00    +0.003 C 
ATOM     16  C   LIG    1       25.153 -24.413   4.980  0.00  0.00    +0.044 C 
BRANCH  15  17
ATOM     17  C   LIG    1       26.310 -22.337   6.978  0.00  0.00    +0.001 C 
ATOM     18  C   LIG    1       25.483 -21.349   6.599  0.00  0.00    +0.003 C 
BRANCH  18  19
ATOM     19  C   LIG    1       24.043 -21.386   6.401  0.00  0.00    -0.044 C 
ATOM     20  C   LIG    1       23.352 -21.178   5.262  0.00  0.00    +0.094 C 
ATOM     21  C   LIG    1       23.280 -21.737   7.659  0.00  0.00    +0.044 C 
BRANCH  20  22
ATOM     22  C   LIG    1       23.742 -20.838   3.877  0.00  0.00    +0.330 C 
ATOM     23  O   LIG    1       23.934 -19.682   3.547  0.00  0.00    -0.246 OA
BRANCH  22  24
ATOM     24  O   LIG    1       23.787 -21.860   3.009  0.00  0.00    -0.477 OA
ATOM     25  H   LIG    1       22.947 -22.017   2.547  0.00  0.00    +0.295 HD
ENDBRANCH  22  24
ENDBRANCH  20  22
ENDBRANCH  18  19
ENDBRANCH  15  17
ENDBRANCH   2  14
TORSDOF 7
ENDMDL
MODEL 2
REMARK VINA RESULT:      -7.5      6.213      9.964
REMARK  Name = *****
REMARK                            x       y       z     vdW  Elec       q    Type
REMARK                         _______ _______ _______ _____ _____    ______ ____
ROOT
ATOM      1  C   LIG    1       28.036 -19.978   7.488  0.00  0.00    +0.009 C 
ATOM      2  C   LIG    1       29.289 -20.361   7.196  0.00  0.00    +0.004 C 
ENDROOT
BRANCH   1   8
ATOM      3  C   LIG    1       24.481 -21.174   5.437  0.00  0.00    +0.123 A 
ATOM      4  C   LIG    1       25.353 -20.257   4.819  0.00  0.00    -0.005 A 
ATOM      5  C   LIG    1       24.940 -19.606   3.521  0.00  0.00    +0.048 C 
ATOM      6  C   LIG    1       26.599 -19.957   5.424  0.00  0.00    -0.037 A 
ATOM      7  C   LIG    1       27.605 -19.100   4.694  0.00  0.00    +0.045 C 
ATOM      8  C   LIG    1       26.862 -20.434   6.731  0.00  0.00    -0.019 A 
ATOM      9  C   LIG    1       25.956 -21.309   7.367  0.00  0.00    -0.040 A 
ATOM     10  C   LIG    1       26.180 -21.833   8.764  0.00  0.00    +0.044 C 
ATOM     11  C   LIG    1       24.799 -21.703   6.688  0.00  0.00    +0.049 A 
BRANCH   3  13
ATOM     12  C   LIG    1       22.161 -20.852   5.074  0.00  0.00    +0.277 C 
ATOM     13  O   LIG    1       23.362 -21.538   4.732  0.00  0.00    -0.495 OA
ENDBRANCH   3  13
ENDBRANCH   1   8
BRANCH   2  14
ATOM     14  C   LIG    1       30.495 -20.044   7.968  0.00  0.00    -0.050 C 
ATOM     15  C   LIG    1       31.043 -18.811   7.971  0.00  0.00    +0.003 C 
ATOM     16  C   LIG    1       31.007 -21.224   8.762  0.00  0.00    +0.044 C 
BRANCH  15  17
ATOM     17  C   LIG    1       32.219 -18.367   8.684  0.00  0.00    +0.001 C 
ATOM     18  C   LIG    1       32.239 -17.625   9.805  0.00  0.00    +0.003 C 
BRANCH  18  19
ATOM     19  C   LIG    1       31.122 -17.086  10.564  0.00  0.00    -0.044 C 
ATOM     20  C   LIG    1       31.144 -16.501  11.779  0.00  0.00    +0.094 C 
ATOM     21  C   LIG    1       29.801 -17.197   9.836  0.00  0.00    +0.044 C 
BRANCH  20  22
ATOM     22  C   LIG    1       32.216 -16.213  12.755  0.00  0.00    +0.330 C 
ATOM     23  O   LIG    1       32.459 -16.986  13.664  0.00  0.00    -0.246 OA
BRANCH  22  24
ATOM     24  O   LIG    1       32.833 -15.029  12.622  0.00  0.00    -0.477 OA
ATOM     25  H   LIG    1       33.786 -15.102  12.448  0.00  0.00    +0.295 HD
ENDBRANCH  22  24
ENDBRANCH  20  22
ENDBRANCH  18  19
ENDBRANCH  15  17
ENDBRANCH   2  14
TORSDOF 7
ENDMDL
MODEL 3
REMARK VINA RESULT:      -7.4      6.109      9.621
REMARK  Name = *****
REMARK                            x       y       z     vdW  Elec       q    Type
REMARK                         _______ _______ _______ _____ _____    ______ ____
ROOT
ATOM      1  C   LIG    1       27.933 -19.976   7.459  0.00  0.00    +0.009 C 
ATOM      2  C   LIG    1       29.016 -20.769   7.469  0.00  0.00    +0.004 C 
ENDROOT
BRANCH   1   8
ATOM      3  C   LIG    1       24.404 -21.199   5.379  0.00  0.00    +0.123 A 
ATOM      4  C   LIG    1       24.610 -21.645   6.698  0.00  0.00    -0.005 A 
ATOM      5  C   LIG    1       23.663 -22.660   7.291  0.00  0.00    +0.048 C 
ATOM      6  C   LIG    1       25.703 -21.139   7.446  0.00  0.00    -0.037 A 
ATOM      7  C   LIG    1       25.843 -21.489   8.909  0.00  0.00    +0.045 C 
ATOM      8  C   LIG    1       26.676 -20.345   6.792  0.00  0.00    -0.019 A 
ATOM      9  C   LIG    1       26.489 -19.948   5.452  0.00  0.00    -0.040 A 
ATOM     10  C   LIG    1       27.502 -19.116   4.704  0.00  0.00    +0.044 C 
ATOM     11  C   LIG    1       25.329 -20.343   4.779  0.00  0.00    +0.049 A 
BRANCH   3  13
ATOM     12  C   LIG    1       22.159 -20.691   4.815  0.00  0.00    +0.277 C 
ATOM     13  O   LIG    1       23.249 -21.606   4.760  0.00  0.00    -0.495 OA
ENDBRANCH   3  13
ENDBRANCH   1   8
BRANCH   2  14
ATOM     14  C   LIG    1       30.262 -20.525   8.204  0.00  0.00    -0.050 C 
ATOM     15  C   LIG    1       30.807 -19.296   8.307  0.00  0.00    +0.003 C 
ATOM     16  C   LIG    1       30.818 -21.778   8.842  0.00  0.00    +0.044 C 
BRANCH  15  17
ATOM     17  C   LIG    1       32.020 -18.920   8.998  0.00  0.00    +0.001 C 
ATOM     18  C   LIG    1       32.148 -17.937   9.905  0.00  0.00    +0.003 C 
BRANCH  18  19
ATOM     19  C   LIG    1       31.138 -17.018  10.407  0.00  0.00    -0.044 C 
ATOM     20  C   LIG    1       31.144 -16.323  11.562  0.00  0.00    +0.094 C 
ATOM     21  C   LIG    1       29.975 -16.839   9.457  0.00  0.00    +0.044 C 
BRANCH  20  22
ATOM     22  C   LIG    1       32.087 -16.234  12.697  0.00  0.00    +0.330 C 
ATOM     23  O   LIG    1       32.272 -17.186  13.433  0.00  0.00    -0.246 OA
BRANCH  22  24
ATOM     24  O   LIG    1       32.649 -15.033  12.904  0.00  0.00    -0.477 OA
ATOM     25  H   LIG    1       32.016 -14.348  13.176  0.00  0.00    +0.295 HD
ENDBRANCH  22  24
ENDBRANCH  20  22
ENDBRANCH  18  19
ENDBRANCH  15  17
ENDBRANCH   2  14
TORSDOF 7
ENDMDL
MODEL 4
REMARK VINA RESULT:      -7.3      3.936      9.336
REMARK  Name = *****
REMARK                            x       y       z     vdW  Elec       q    Type
REMARK                         _______ _______ _______ _____ _____    ______ ____
ROOT
ATOM      1  C   LIG    1       27.187 -20.879   6.289  0.00  0.00    +0.009 C 
ATOM      2  C   LIG    1       26.370 -21.389   7.224  0.00  0.00    +0.004 C 
ENDROOT
BRANCH   1   8
ATOM      3  C   LIG    1       30.853 -18.932   7.313  0.00  0.00    +0.123 A 
ATOM      4  C   LIG    1       30.470 -20.087   8.022  0.00  0.00    -0.005 A 
ATOM      5  C   LIG    1       31.280 -20.521   9.220  0.00  0.00    +0.048 C 
ATOM      6  C   LIG    1       29.330 -20.820   7.605  0.00  0.00    -0.037 A 
ATOM      7  C   LIG    1       29.002 -22.141   8.258  0.00  0.00    +0.045 C 
ATOM      8  C   LIG    1       28.488 -20.273   6.606  0.00  0.00    -0.019 A 
ATOM      9  C   LIG    1       28.852 -19.085   5.938  0.00  0.00    -0.040 A 
ATOM     10  C   LIG    1       27.985 -18.453   4.878  0.00  0.00    +0.044 C 
ATOM     11  C   LIG    1       30.057 -18.458   6.271  0.00  0.00    +0.049 A 
BRANCH   3  13
ATOM     12  C   LIG    1       31.985 -17.410   8.734  0.00  0.00    +0.277 C 
ATOM     13  O   LIG    1       32.045 -18.353   7.669  0.00  0.00    -0.495 OA
ENDBRANCH   3  13
ENDBRANCH   1   8
BRANCH   2  14
ATOM     14  C   LIG    1       25.116 -22.109   6.980  0.00  0.00    -0.050 C 
ATOM     15  C   LIG    1       25.072 -23.450   6.843  0.00  0.00    +0.003 C 
ATOM     16  C   LIG    1       23.915 -21.192   6.943  0.00  0.00    +0.044 C 
BRANCH  15  17
ATOM     17  C   LIG    1       23.911 -24.278   6.604  0.00  0.00    +0.001 C 
ATOM     18  C   LIG    1       23.915 -25.589   6.309  0.00  0.00    +0.003 C 
BRANCH  18  19
ATOM     19  C   LIG    1       25.048 -26.487   6.150  0.00  0.00    -0.044 C 
ATOM     20  C   LIG    1       25.052 -27.835   6.169  0.00  0.00    +0.094 C 
ATOM     21  C   LIG    1       26.351 -25.760   5.906  0.00  0.00    +0.044 C 
BRANCH  20  22
ATOM     22  C   LIG    1       24.002 -28.858   6.361  0.00  0.00    +0.330 C 
ATOM     23  O   LIG    1       23.878 -29.435   7.426  0.00  0.00    -0.246 OA
BRANCH  22  24
ATOM     24  O   LIG    1       23.266 -29.159   5.281  0.00  0.00    -0.477 OA
ATOM     25  H   LIG    1       23.470 -30.029   4.899  0.00  0.00    +0.295 HD
ENDBRANCH  22  24
ENDBRANCH  20  22
ENDBRANCH  18  19
ENDBRANCH  15  17
ENDBRANCH   2  14
TORSDOF 7
ENDMDL
MODEL 5
REMARK VINA RESULT:      -7.3      1.575      2.224
REMARK  Name = *****
REMARK                            x       y       z     vdW  Elec       q    Type
REMARK                         _______ _______ _______ _____ _____    ______ ____
ROOT
ATOM      1  C   LIG    1       25.711 -25.968   6.863  0.00  0.00    +0.009 C 
ATOM      2  C   LIG    1       24.744 -25.037   6.844  0.00  0.00    +0.004 C 
ENDROOT
BRANCH   1   8
ATOM      3  C   LIG    1       25.232 -30.060   5.725  0.00  0.00    +0.123 A 
ATOM      4  C   LIG    1       25.586 -29.756   7.053  0.00  0.00    -0.005 A 
ATOM      5  C   LIG    1       25.935 -30.879   8.000  0.00  0.00    +0.048 C 
ATOM      6  C   LIG    1       25.614 -28.404   7.479  0.00  0.00    -0.037 A 
ATOM      7  C   LIG    1       25.839 -28.077   8.936  0.00  0.00    +0.045 C 
ATOM      8  C   LIG    1       25.475 -27.376   6.516  0.00  0.00    -0.019 A 
ATOM      9  C   LIG    1       25.175 -27.691   5.174  0.00  0.00    -0.040 A 
ATOM     10  C   LIG    1       25.031 -26.636   4.106  0.00  0.00    +0.044 C 
ATOM     11  C   LIG    1       25.010 -29.031   4.810  0.00  0.00    +0.049 A 
BRANCH   3  13
ATOM     12  C   LIG    1       26.039 -31.934   4.519  0.00  0.00    +0.277 C 
ATOM     13  O   LIG    1       25.075 -31.387   5.413  0.00  0.00    -0.495 OA
ENDBRANCH   3  13
ENDBRANCH   1   8
BRANCH   2  14
ATOM     14  C   LIG    1       24.921 -23.598   7.065  0.00  0.00    -0.050 C 
ATOM     15  C   LIG    1       23.875 -22.762   7.232  0.00  0.00    +0.003 C 
ATOM     16  C   LIG    1       26.375 -23.190   7.119  0.00  0.00    +0.044 C 
BRANCH  15  17
ATOM     17  C   LIG    1       23.909 -21.335   7.459  0.00  0.00    +0.001 C 
ATOM     18  C   LIG    1       23.648 -20.378   6.552  0.00  0.00    +0.003 C 
BRANCH  18  19
ATOM     19  C   LIG    1       23.282 -20.521   5.151  0.00  0.00    -0.044 C 
ATOM     20  C   LIG    1       24.000 -20.177   4.063  0.00  0.00    +0.094 C 
ATOM     21  C   LIG    1       21.929 -21.168   4.955  0.00  0.00    +0.044 C 
BRANCH  20  22
ATOM     22  C   LIG    1       25.326 -19.555   3.868  0.00  0.00    +0.330 C 
ATOM     23  O   LIG    1       25.432 -18.455   3.356  0.00  0.00    -0.246 OA
BRANCH  22  24
ATOM     24  O   LIG    1       26.386 -20.303   4.210  0.00  0.00    -0.477 OA
ATOM     25  H   LIG    1       27.234 -19.945   3.899  0.00  0.00    +0.295 HD
ENDBRANCH  22  24
ENDBRANCH  20  22
ENDBRANCH  18  19
ENDBRANCH  15  17
ENDBRANCH   2  14
TORSDOF 7
ENDMDL
MODEL 6
REMARK VINA RESULT:      -7.2      1.808      8.340
REMARK  Name = *****
REMARK                            x       y       z     vdW  Elec       q    Type
REMARK                         _______ _______ _______ _____ _____    ______ ____
ROOT
ATOM      1  C   LIG    1       25.753 -24.059   7.107  0.00  0.00    +0.009 C 
ATOM      2  C   LIG    1       25.672 -25.214   6.428  0.00  0.00    +0.004 C 
ENDROOT
BRANCH   1   8
ATOM      3  C   LIG    1       23.784 -20.523   5.729  0.00  0.00    +0.123 A 
ATOM      4  C   LIG    1       23.057 -21.727   5.805  0.00  0.00    -0.005 A 
ATOM      5  C   LIG    1       21.651 -21.775   5.257  0.00  0.00    +0.048 C 
ATOM      6  C   LIG    1       23.656 -22.872   6.387  0.00  0.00    -0.037 A 
ATOM      7  C   LIG    1       22.835 -24.119   6.615  0.00  0.00    +0.045 C 
ATOM      8  C   LIG    1       25.035 -22.841   6.706  0.00  0.00    -0.019 A 
ATOM      9  C   LIG    1       25.771 -21.644   6.575  0.00  0.00    -0.040 A 
ATOM     10  C   LIG    1       27.244 -21.560   6.887  0.00  0.00    +0.044 C 
ATOM     11  C   LIG    1       25.119 -20.489   6.133  0.00  0.00    +0.049 A 
BRANCH   3  13
ATOM     12  C   LIG    1       23.441 -18.946   3.994  0.00  0.00    +0.277 C 
ATOM     13  O   LIG    1       23.103 -19.414   5.296  0.00  0.00    -0.495 OA
ENDBRANCH   3  13
ENDBRANCH   1   8
BRANCH   2  14
ATOM     14  C   LIG    1       26.263 -26.497   6.825  0.00  0.00    -0.050 C 
ATOM     15  C   LIG    1       26.007 -27.067   8.020  0.00  0.00    +0.003 C 
ATOM     16  C   LIG    1       27.135 -27.096   5.745  0.00  0.00    +0.044 C 
BRANCH  15  17
ATOM     17  C   LIG    1       26.517 -28.320   8.531  0.00  0.00    +0.001 C 
ATOM     18  C   LIG    1       25.843 -29.479   8.614  0.00  0.00    +0.003 C 
BRANCH  18  19
ATOM     19  C   LIG    1       24.470 -29.769   8.232  0.00  0.00    -0.044 C 
ATOM     20  C   LIG    1       23.942 -29.820   6.992  0.00  0.00    +0.094 C 
ATOM     21  C   LIG    1       23.577 -30.071   9.415  0.00  0.00    +0.044 C 
BRANCH  20  22
ATOM     22  C   LIG    1       24.492 -29.605   5.637  0.00  0.00    +0.330 C 
ATOM     23  O   LIG    1       25.470 -30.221   5.254  0.00  0.00    -0.246 OA
BRANCH  22  24
ATOM     24  O   LIG    1       23.904 -28.645   4.907  0.00  0.00    -0.477 OA
ATOM     25  H   LIG    1       24.436 -27.835   4.826  0.00  0.00    +0.295 HD
ENDBRANCH  22  24
ENDBRANCH  20  22
ENDBRANCH  18  19
ENDBRANCH  15  17
ENDBRANCH   2  14
TORSDOF 7
ENDMDL
MODEL 7
REMARK VINA RESULT:      -7.2      5.842      8.933
REMARK  Name = *****
REMARK                            x       y       z     vdW  Elec       q    Type
REMARK                         _______ _______ _______ _____ _____    ______ ____
ROOT
ATOM      1  C   LIG    1       27.745 -20.495   6.296  0.00  0.00    +0.009 C 
ATOM      2  C   LIG    1       26.624 -20.587   7.028  0.00  0.00    +0.004 C 
ENDROOT
BRANCH   1   8
ATOM      3  C   LIG    1       31.337 -18.914   7.990  0.00  0.00    +0.123 A 
ATOM      4  C   LIG    1       30.810 -20.115   8.501  0.00  0.00    -0.005 A 
ATOM      5  C   LIG    1       31.437 -20.734   9.727  0.00  0.00    +0.048 C 
ATOM      6  C   LIG    1       29.700 -20.722   7.861  0.00  0.00    -0.037 A 
ATOM      7  C   LIG    1       29.227 -22.086   8.304  0.00  0.00    +0.045 C 
ATOM      8  C   LIG    1       29.022 -20.013   6.841  0.00  0.00    -0.019 A 
ATOM      9  C   LIG    1       29.525 -18.781   6.372  0.00  0.00    -0.040 A 
ATOM     10  C   LIG    1       28.833 -17.978   5.298  0.00  0.00    +0.044 C 
ATOM     11  C   LIG    1       30.706 -18.274   6.924  0.00  0.00    +0.049 A 
BRANCH   3  13
ATOM     12  C   LIG    1       32.419 -17.190   9.204  0.00  0.00    +0.277 C 
ATOM     13  O   LIG    1       32.500 -18.456   8.557  0.00  0.00    -0.495 OA
ENDBRANCH   3  13
ENDBRANCH   1   8
BRANCH   2  14
ATOM     14  C   LIG    1       25.347 -21.162   6.593  0.00  0.00    -0.050 C 
ATOM     15  C   LIG    1       24.213 -20.434   6.538  0.00  0.00    +0.003 C 
ATOM     16  C   LIG    1       25.468 -22.613   6.190  0.00  0.00    +0.044 C 
BRANCH  15  17
ATOM     17  C   LIG    1       22.898 -20.874   6.127  0.00  0.00    +0.001 C 
ATOM     18  C   LIG    1       22.153 -20.344   5.143  0.00  0.00    +0.003 C 
BRANCH  18  19
ATOM     19  C   LIG    1       22.458 -19.224   4.266  0.00  0.00    -0.044 C 
ATOM     20  C   LIG    1       23.567 -19.021   3.527  0.00  0.00    +0.094 C 
ATOM     21  C   LIG    1       21.340 -18.208   4.191  0.00  0.00    +0.044 C 
BRANCH  20  22
ATOM     22  C   LIG    1       24.823 -19.779   3.339  0.00  0.00    +0.330 C 
ATOM     23  O   LIG    1       24.802 -20.968   3.080  0.00  0.00    -0.246 OA
BRANCH  22  24
ATOM     24  O   LIG    1       25.960 -19.099   3.552  0.00  0.00    -0.477 OA
ATOM     25  H   LIG    1       26.325 -19.219   4.445  0.00  0.00    +0.295 HD
ENDBRANCH  22  24
ENDBRANCH  20  22
ENDBRANCH  18  19
ENDBRANCH  15  17
ENDBRANCH   2  14
TORSDOF 7
ENDMDL
MODEL 8
REMARK VINA RESULT:      -7.1      2.063      3.345
REMARK  Name = *****
REMARK                            x       y       z     vdW  Elec       q    Type
REMARK                         _______ _______ _______ _____ _____    ______ ____
ROOT
ATOM      1  C   LIG    1       25.749 -28.511   7.285  0.00  0.00    +0.009 C 
ATOM      2  C   LIG    1       24.913 -27.516   6.954  0.00  0.00    +0.004 C 
ENDROOT
BRANCH   1   8
ATOM      3  C   LIG    1       24.474 -31.601   9.950  0.00  0.00    +0.123 A 
ATOM      4  C   LIG    1       24.044 -31.633   8.609  0.00  0.00    -0.005 A 
ATOM      5  C   LIG    1       23.028 -32.665   8.184  0.00  0.00    +0.048 C 
ATOM      6  C   LIG    1       24.568 -30.695   7.683  0.00  0.00    -0.037 A 
ATOM      7  C   LIG    1       24.235 -30.818   6.215  0.00  0.00    +0.045 C 
ATOM      8  C   LIG    1       25.363 -29.625   8.162  0.00  0.00    -0.019 A 
ATOM      9  C   LIG    1       25.743 -29.571   9.519  0.00  0.00    -0.040 A 
ATOM     10  C   LIG    1       26.576 -28.446  10.083  0.00  0.00    +0.044 C 
ATOM     11  C   LIG    1       25.331 -30.590  10.384  0.00  0.00    +0.049 A 
BRANCH   3  13
ATOM     12  C   LIG    1       24.323 -32.469  12.150  0.00  0.00    +0.277 C 
ATOM     13  O   LIG    1       24.050 -32.624  10.761  0.00  0.00    -0.495 OA
ENDBRANCH   3  13
ENDBRANCH   1   8
BRANCH   2  14
ATOM     14  C   LIG    1       25.184 -26.435   5.999  0.00  0.00    -0.050 C 
ATOM     15  C   LIG    1       24.905 -25.145   6.276  0.00  0.00    +0.003 C 
ATOM     16  C   LIG    1       25.830 -26.930   4.726  0.00  0.00    +0.044 C 
BRANCH  15  17
ATOM     17  C   LIG    1       25.123 -23.991   5.433  0.00  0.00    +0.001 C 
ATOM     18  C   LIG    1       24.695 -22.740   5.670  0.00  0.00    +0.003 C 
BRANCH  18  19
ATOM     19  C   LIG    1       23.922 -22.234   6.794  0.00  0.00    -0.044 C 
ATOM     20  C   LIG    1       24.317 -21.384   7.762  0.00  0.00    +0.094 C 
ATOM     21  C   LIG    1       22.496 -22.737   6.806  0.00  0.00    +0.044 C 
BRANCH  20  22
ATOM     22  C   LIG    1       25.591 -20.695   8.061  0.00  0.00    +0.330 C 
ATOM     23  O   LIG    1       26.313 -20.299   7.164  0.00  0.00    -0.246 OA
BRANCH  22  24
ATOM     24  O   LIG    1       25.928 -20.612   9.356  0.00  0.00    -0.477 OA
ATOM     25  H   LIG    1       25.173 -20.704   9.963  0.00  0.00    +0.295 HD
ENDBRANCH  22  24
ENDBRANCH  20  22
ENDBRANCH  18  19
ENDBRANCH  15  17
ENDBRANCH   2  14
TORSDOF 7
ENDMDL
MODEL 9
REMARK VINA RESULT:      -7.0      6.198      9.390
REMARK  Name = *****
REMARK                            x       y       z     vdW  Elec       q    Type
REMARK                         _______ _______ _______ _____ _____    ______ ____
ROOT
ATOM      1  C   LIG    1       26.316 -20.372   5.005  0.00  0.00    +0.009 C 
ATOM      2  C   LIG    1       27.000 -20.013   6.102  0.00  0.00    +0.004 C 
ENDROOT
BRANCH   1   8
ATOM      3  C   LIG    1       22.151 -19.722   4.296  0.00  0.00    +0.123 A 
ATOM      4  C   LIG    1       22.552 -20.860   5.022  0.00  0.00    -0.005 A 
ATOM      5  C   LIG    1       21.522 -21.896   5.400  0.00  0.00    +0.048 C 
ATOM      6  C   LIG    1       23.915 -21.017   5.382  0.00  0.00    -0.037 A 
ATOM      7  C   LIG    1       24.329 -22.149   6.292  0.00  0.00    +0.045 C 
ATOM      8  C   LIG    1       24.876 -20.129   4.842  0.00  0.00    -0.019 A 
ATOM      9  C   LIG    1       24.470 -19.022   4.068  0.00  0.00    -0.040 A 
ATOM     10  C   LIG    1       25.453 -18.055   3.457  0.00  0.00    +0.044 C 
ATOM     11  C   LIG    1       23.105 -18.809   3.847  0.00  0.00    +0.049 A 
BRANCH   3  13
ATOM     12  C   LIG    1       20.427 -18.499   3.223  0.00  0.00    +0.277 C 
ATOM     13  O   LIG    1       20.803 -19.550   4.109  0.00  0.00    -0.495 OA
ENDBRANCH   3  13
ENDBRANCH   1   8
BRANCH   2  14
ATOM     14  C   LIG    1       28.451 -20.117   6.293  0.00  0.00    -0.050 C 
ATOM     15  C   LIG    1       29.282 -19.080   6.063  0.00  0.00    +0.003 C 
ATOM     16  C   LIG    1       28.877 -21.476   6.801  0.00  0.00    +0.044 C 
BRANCH  15  17
ATOM     17  C   LIG    1       30.720 -19.047   6.214  0.00  0.00    +0.001 C 
ATOM     18  C   LIG    1       31.399 -19.065   7.373  0.00  0.00    +0.003 C 
BRANCH  18  19
ATOM     19  C   LIG    1       30.887 -19.113   8.733  0.00  0.00    -0.044 C 
ATOM     20  C   LIG    1       30.818 -20.175   9.561  0.00  0.00    +0.094 C 
ATOM     21  C   LIG    1       30.416 -17.767   9.237  0.00  0.00    +0.044 C 
BRANCH  20  22
ATOM     22  C   LIG    1       31.186 -21.601   9.428  0.00  0.00    +0.330 C 
ATOM     23  O   LIG    1       30.738 -22.436  10.192  0.00  0.00    -0.246 OA
BRANCH  22  24
ATOM     24  O   LIG    1       32.091 -21.891   8.482  0.00  0.00    -0.477 OA
ATOM     25  H   LIG    1       32.781 -22.509   8.777  0.00  0.00    +0.295 HD
ENDBRANCH  22  24
ENDBRANCH  20  22
ENDBRANCH  18  19
ENDBRANCH  15  17
ENDBRANCH   2  14
TORSDOF 7
ENDMDL
