MODEL 1
REMARK VINA RESULT:      -4.1      0.000      0.000
REMARK  Name = *****
REMARK                            x       y       z     vdW  Elec       q    Type
REMARK                         _______ _______ _______ _____ _____    ______ ____
ROOT
ATOM      1  N   LIG    1       25.000 -17.331   3.360  0.00  0.00    -0.287 NA
ATOM      2  C   LIG    1       23.709 -17.417   4.020  0.00  0.00    +0.108 C 
ATOM      3  C   LIG    1       23.213 -18.881   4.024  0.00  0.00    +0.039 C 
ATOM      4  C   LIG    1       21.885 -18.944   4.775  0.00  0.00    +0.030 C 
ATOM      5  C   LIG    1       24.286 -19.726   4.776  0.00  0.00    +0.108 C 
ATOM      6  N   LIG    1       25.569 -19.713   4.053  0.00  0.00    -0.287 NA
ATOM      7  C   LIG    1       25.951 -18.339   3.771  0.00  0.00    +0.171 C 
ENDROOT
BRANCH   3   8
ATOM      8  N   LIG    1       23.050 -19.327   2.611  0.00  0.00    -0.323 NA
ATOM      9  H   LIG    1       23.839 -19.954   2.389  0.00  0.00    +0.119 HD
ATOM     10  H   LIG    1       23.271 -18.510   2.051  0.00  0.00    +0.119 HD
ENDBRANCH   3   8
BRANCH   1  11
ATOM     11  C   LIG    1       25.616 -15.979   3.336  0.00  0.00    +0.089 C 
BRANCH  11  12
ATOM     12  C   LIG    1       24.983 -14.664   3.986  0.00  0.00    +0.003 C 
BRANCH  12  13
ATOM     13  C   LIG    1       24.017 -13.760   3.180  0.00  0.00    +0.001 C 
ATOM     14  C   LIG    1       24.080 -12.257   3.136  0.00  0.00    +0.004 C 
ENDBRANCH  12  13
BRANCH  12  15
ATOM     15  C   LIG    1       26.057 -13.691   4.562  0.00  0.00    +0.005 C 
BRANCH  15  16
ATOM     16  C   LIG    1       27.549 -13.975   4.250  0.00  0.00    +0.000 C 
BRANCH  16  18
ATOM     17  C   LIG    1       29.051 -12.082   5.052  0.00  0.00    +0.004 C 
ATOM     18  C   LIG    1       28.389 -12.765   3.852  0.00  0.00    -0.003 C 
ENDBRANCH  16  18
ENDBRANCH  15  16
ENDBRANCH  12  15
ENDBRANCH  11  12
ENDBRANCH   1  11
BRANCH   6  19
ATOM     19  C   LIG    1       26.651 -20.433   4.831  0.00  0.00    +0.089 C 
BRANCH  19  20
ATOM     20  C   LIG    1       26.577 -20.536   6.430  0.00  0.00    +0.003 C 
BRANCH  20  21
ATOM     21  C   LIG    1       25.594 -21.572   7.022  0.00  0.00    +0.001 C 
ATOM     22  C   LIG    1       24.139 -21.259   6.877  0.00  0.00    +0.004 C 
ENDBRANCH  20  21
BRANCH  20  23
ATOM     23  C   LIG    1       27.976 -20.902   7.037  0.00  0.00    +0.005 C 
BRANCH  23  24
ATOM     24  C   LIG    1       29.221 -20.275   6.340  0.00  0.00    +0.000 C 
BRANCH  24  25
ATOM     25  C   LIG    1       29.338 -18.756   6.498  0.00  0.00    -0.003 C 
ATOM     26  C   LIG    1       29.238 -18.042   5.153  0.00  0.00    +0.004 C 
ENDBRANCH  24  25
ENDBRANCH  23  24
ENDBRANCH  20  23
ENDBRANCH  19  20
ENDBRANCH   6  19
TORSDOF 13
ENDMDL
MODEL 2
REMARK VINA RESULT:      -3.6      1.625      6.844
REMARK  Name = *****
REMARK                            x       y       z     vdW  Elec       q    Type
REMARK                         _______ _______ _______ _____ _____    ______ ____
ROOT
ATOM      1  N   LIG    1       26.268 -20.349   5.648  0.00  0.00    -0.287 NA
ATOM      2  C   LIG    1       27.241 -19.960   6.654  0.00  0.00    +0.108 C 
ATOM      3  C   LIG    1       28.499 -19.375   5.974  0.00  0.00    +0.039 C 
ATOM      4  C   LIG    1       29.474 -18.922   7.059  0.00  0.00    +0.030 C 
ATOM      5  C   LIG    1       28.037 -18.146   5.133  0.00  0.00    +0.108 C 
ATOM      6  N   LIG    1       27.124 -18.559   4.053  0.00  0.00    -0.287 NA
ATOM      7  C   LIG    1       26.050 -19.365   4.612  0.00  0.00    +0.171 C 
ENDROOT
BRANCH   3   8
ATOM      8  N   LIG    1       29.107 -20.433   5.117  0.00  0.00    -0.323 NA
ATOM      9  H   LIG    1       28.513 -20.536   4.280  0.00  0.00    +0.119 HD
ATOM     10  H   LIG    1       28.926 -21.303   5.607  0.00  0.00    +0.119 HD
ENDBRANCH   3   8
BRANCH   1  11
ATOM     11  C   LIG    1       24.984 -20.880   6.173  0.00  0.00    +0.089 C 
BRANCH  11  12
ATOM     12  C   LIG    1       23.749 -21.359   5.280  0.00  0.00    +0.003 C 
BRANCH  12  13
ATOM     13  C   LIG    1       23.902 -21.568   3.752  0.00  0.00    +0.001 C 
ATOM     14  C   LIG    1       24.298 -20.497   2.772  0.00  0.00    +0.004 C 
ENDBRANCH  12  13
BRANCH  12  15
ATOM     15  C   LIG    1       22.493 -20.448   5.436  0.00  0.00    +0.005 C 
BRANCH  15  16
ATOM     16  C   LIG    1       22.702 -18.914   5.512  0.00  0.00    +0.000 C 
BRANCH  16  18
ATOM     17  C   LIG    1       20.992 -18.877   3.627  0.00  0.00    +0.004 C 
ATOM     18  C   LIG    1       22.065 -18.097   4.392  0.00  0.00    -0.003 C 
ENDBRANCH  16  18
ENDBRANCH  15  16
ENDBRANCH  12  15
ENDBRANCH  11  12
ENDBRANCH   1  11
BRANCH   6  19
ATOM     19  C   LIG    1       26.577 -17.364   3.302  0.00  0.00    +0.089 C 
BRANCH  19  20
ATOM     20  C   LIG    1       26.620 -15.898   3.954  0.00  0.00    +0.003 C 
BRANCH  20  21
ATOM     21  C   LIG    1       27.941 -15.108   3.818  0.00  0.00    +0.001 C 
ATOM     22  C   LIG    1       27.863 -13.640   4.088  0.00  0.00    +0.004 C 
ENDBRANCH  20  21
BRANCH  20  23
ATOM     23  C   LIG    1       25.518 -14.972   3.332  0.00  0.00    +0.005 C 
BRANCH  23  24
ATOM     24  C   LIG    1       24.329 -14.585   4.263  0.00  0.00    +0.000 C 
BRANCH  24  25
ATOM     25  C   LIG    1       24.079 -13.079   4.379  0.00  0.00    -0.003 C 
ATOM     26  C   LIG    1       23.964 -12.421   3.007  0.00  0.00    +0.004 C 
ENDBRANCH  24  25
ENDBRANCH  23  24
ENDBRANCH  20  23
ENDBRANCH  19  20
ENDBRANCH   6  19
TORSDOF 13
ENDMDL
MODEL 3
REMARK VINA RESULT:      -3.3      1.672      6.527
REMARK  Name = *****
REMARK                            x       y       z     vdW  Elec       q    Type
REMARK                         _______ _______ _______ _____ _____    ______ ____
ROOT
ATOM      1  N   LIG    1       25.997 -19.452   4.282  0.00  0.00    -0.287 NA
ATOM      2  C   LIG    1       26.497 -19.906   5.568  0.00  0.00    +0.108 C 
ATOM      3  C   LIG    1       28.012 -19.619   5.677  0.00  0.00    +0.039 C 
ATOM      4  C   LIG    1       28.492 -20.054   7.061  0.00  0.00    +0.030 C 
ATOM      5  C   LIG    1       28.200 -18.081   5.511  0.00  0.00    +0.108 C 
ATOM      6  N   LIG    1       27.780 -17.639   4.170  0.00  0.00    -0.287 NA
ATOM      7  C   LIG    1       26.438 -18.130   3.899  0.00  0.00    +0.171 C 
ENDROOT
BRANCH   3   8
ATOM      8  N   LIG    1       28.714 -20.380   4.604  0.00  0.00    -0.323 NA
ATOM      9  H   LIG    1       29.382 -21.020   5.061  0.00  0.00    +0.119 HD
ATOM     10  H   LIG    1       29.336 -19.707   4.170  0.00  0.00    +0.119 HD
ENDBRANCH   3   8
BRANCH   1  11
ATOM     11  C   LIG    1       24.536 -19.621   4.069  0.00  0.00    +0.089 C 
BRANCH  11  12
ATOM     12  C   LIG    1       23.449 -19.799   5.226  0.00  0.00    +0.003 C 
BRANCH  12  13
ATOM     13  C   LIG    1       22.725 -21.152   5.440  0.00  0.00    +0.001 C 
ATOM     14  C   LIG    1       21.458 -21.570   4.743  0.00  0.00    +0.004 C 
ENDBRANCH  12  13
BRANCH  12  15
ATOM     15  C   LIG    1       22.307 -18.739   5.159  0.00  0.00    +0.005 C 
BRANCH  15  16
ATOM     16  C   LIG    1       22.502 -17.506   4.240  0.00  0.00    +0.000 C 
BRANCH  16  18
ATOM     17  C   LIG    1       23.149 -15.089   4.711  0.00  0.00    +0.004 C 
ATOM     18  C   LIG    1       22.065 -16.165   4.821  0.00  0.00    -0.003 C 
ENDBRANCH  16  18
ENDBRANCH  15  16
ENDBRANCH  12  15
ENDBRANCH  11  12
ENDBRANCH   1  11
BRANCH   6  19
ATOM     19  C   LIG    1       27.849 -16.133   4.036  0.00  0.00    +0.089 C 
BRANCH  19  20
ATOM     20  C   LIG    1       26.511 -15.265   3.860  0.00  0.00    +0.003 C 
BRANCH  20  21
ATOM     21  C   LIG    1       26.303 -14.090   4.844  0.00  0.00    +0.001 C 
ATOM     22  C   LIG    1       27.542 -13.416   5.339  0.00  0.00    +0.004 C 
ENDBRANCH  20  21
BRANCH  20  23
ATOM     23  C   LIG    1       26.437 -14.625   2.431  0.00  0.00    +0.005 C 
BRANCH  23  24
ATOM     24  C   LIG    1       26.007 -13.128   2.362  0.00  0.00    +0.000 C 
BRANCH  24  25
ATOM     25  C   LIG    1       24.509 -12.909   2.130  0.00  0.00    -0.003 C 
ATOM     26  C   LIG    1       23.982 -11.727   2.939  0.00  0.00    +0.004 C 
ENDBRANCH  24  25
ENDBRANCH  23  24
ENDBRANCH  20  23
ENDBRANCH  19  20
ENDBRANCH   6  19
TORSDOF 13
ENDMDL
MODEL 4
REMARK VINA RESULT:      -3.1      1.803      6.726
REMARK  Name = *****
REMARK                            x       y       z     vdW  Elec       q    Type
REMARK                         _______ _______ _______ _____ _____    ______ ____
ROOT
ATOM      1  N   LIG    1       26.635 -16.616   3.352  0.00  0.00    -0.287 NA
ATOM      2  C   LIG    1       27.614 -15.680   3.876  0.00  0.00    +0.108 C 
ATOM      3  C   LIG    1       27.165 -14.230   3.592  0.00  0.00    +0.039 C 
ATOM      4  C   LIG    1       28.185 -13.273   4.207  0.00  0.00    +0.030 C 
ATOM      5  C   LIG    1       25.778 -14.036   4.277  0.00  0.00    +0.108 C 
ATOM      6  N   LIG    1       24.765 -14.919   3.677  0.00  0.00    -0.287 NA
ATOM      7  C   LIG    1       25.262 -16.286   3.665  0.00  0.00    +0.171 C 
ENDROOT
BRANCH   3   8
ATOM      8  N   LIG    1       27.081 -14.044   2.115  0.00  0.00    -0.323 NA
ATOM      9  H   LIG    1       27.541 -13.149   1.886  0.00  0.00    +0.119 HD
ATOM     10  H   LIG    1       26.107 -13.828   1.933  0.00  0.00    +0.119 HD
ENDBRANCH   3   8
BRANCH   1  11
ATOM     11  C   LIG    1       26.921 -18.051   3.608  0.00  0.00    +0.089 C 
BRANCH  11  12
ATOM     12  C   LIG    1       27.434 -18.657   4.995  0.00  0.00    +0.003 C 
BRANCH  12  13
ATOM     13  C   LIG    1       28.937 -18.631   5.370  0.00  0.00    +0.001 C 
ATOM     14  C   LIG    1       29.473 -18.545   6.774  0.00  0.00    +0.004 C 
ENDBRANCH  12  13
BRANCH  12  15
ATOM     15  C   LIG    1       26.991 -20.136   5.215  0.00  0.00    +0.005 C 
BRANCH  15  16
ATOM     16  C   LIG    1       26.384 -20.525   6.587  0.00  0.00    +0.000 C 
BRANCH  16  18
ATOM     17  C   LIG    1       23.912 -20.909   7.062  0.00  0.00    +0.004 C 
ATOM     18  C   LIG    1       25.222 -21.513   6.546  0.00  0.00    -0.003 C 
ENDBRANCH  16  18
ENDBRANCH  15  16
ENDBRANCH  12  15
ENDBRANCH  11  12
ENDBRANCH   1  11
BRANCH   6  19
ATOM     19  C   LIG    1       23.443 -14.825   4.410  0.00  0.00    +0.089 C 
BRANCH  19  20
ATOM     20  C   LIG    1       22.734 -16.142   4.991  0.00  0.00    +0.003 C 
BRANCH  20  21
ATOM     21  C   LIG    1       21.690 -15.939   6.113  0.00  0.00    +0.001 C 
ATOM     22  C   LIG    1       21.601 -14.564   6.691  0.00  0.00    +0.004 C 
ENDBRANCH  20  21
BRANCH  20  23
ATOM     23  C   LIG    1       21.978 -16.922   3.860  0.00  0.00    +0.005 C 
BRANCH  23  24
ATOM     24  C   LIG    1       21.551 -18.384   4.192  0.00  0.00    +0.000 C 
BRANCH  24  25
ATOM     25  C   LIG    1       22.688 -19.278   4.693  0.00  0.00    -0.003 C 
ATOM     26  C   LIG    1       23.745 -19.502   3.615  0.00  0.00    +0.004 C 
ENDBRANCH  24  25
ENDBRANCH  23  24
ENDBRANCH  20  23
ENDBRANCH  19  20
ENDBRANCH   6  19
TORSDOF 13
ENDMDL
MODEL 5
REMARK VINA RESULT:      -2.7      1.567      4.520
REMARK  Name = *****
REMARK                            x       y       z     vdW  Elec       q    Type
REMARK                         _______ _______ _______ _____ _____    ______ ____
ROOT
ATOM      1  N   LIG    1       27.006 -18.096   4.431  0.00  0.00    -0.287 NA
ATOM      2  C   LIG    1       28.214 -18.817   4.792  0.00  0.00    +0.108 C 
ATOM      3  C   LIG    1       27.888 -19.905   5.839  0.00  0.00    +0.039 C 
ATOM      4  C   LIG    1       29.167 -20.681   6.151  0.00  0.00    +0.030 C 
ATOM      5  C   LIG    1       26.834 -20.858   5.197  0.00  0.00    +0.108 C 
ATOM      6  N   LIG    1       25.577 -20.145   4.921  0.00  0.00    -0.287 NA
ATOM      7  C   LIG    1       25.863 -18.938   4.160  0.00  0.00    +0.171 C 
ENDROOT
BRANCH   3   8
ATOM      8  N   LIG    1       27.356 -19.238   7.062  0.00  0.00    -0.323 NA
ATOM      9  H   LIG    1       28.130 -19.168   7.741  0.00  0.00    +0.119 HD
ATOM     10  H   LIG    1       26.759 -19.931   7.500  0.00  0.00    +0.119 HD
ENDBRANCH   3   8
BRANCH   1  11
ATOM     11  C   LIG    1       27.172 -17.053   3.387  0.00  0.00    +0.089 C 
BRANCH  11  12
ATOM     12  C   LIG    1       27.131 -15.476   3.643  0.00  0.00    +0.003 C 
BRANCH  12  13
ATOM     13  C   LIG    1       27.453 -14.884   5.038  0.00  0.00    +0.001 C 
ATOM     14  C   LIG    1       27.275 -13.440   5.423  0.00  0.00    +0.004 C 
ENDBRANCH  12  13
BRANCH  12  15
ATOM     15  C   LIG    1       25.772 -14.827   3.236  0.00  0.00    +0.005 C 
BRANCH  15  16
ATOM     16  C   LIG    1       25.788 -13.676   2.198  0.00  0.00    +0.000 C 
BRANCH  16  18
ATOM     17  C   LIG    1       24.012 -12.400   3.502  0.00  0.00    +0.004 C 
ATOM     18  C   LIG    1       24.521 -12.829   2.123  0.00  0.00    -0.003 C 
ENDBRANCH  16  18
ENDBRANCH  15  16
ENDBRANCH  12  15
ENDBRANCH  11  12
ENDBRANCH   1  11
BRANCH   6  19
ATOM     19  C   LIG    1       24.586 -21.029   4.192  0.00  0.00    +0.089 C 
BRANCH  19  20
ATOM     20  C   LIG    1       23.041 -21.053   4.622  0.00  0.00    +0.003 C 
BRANCH  20  21
ATOM     21  C   LIG    1       22.734 -21.191   6.131  0.00  0.00    +0.001 C 
ATOM     22  C   LIG    1       23.877 -20.945   7.062  0.00  0.00    +0.004 C 
ENDBRANCH  20  21
BRANCH  20  23
ATOM     23  C   LIG    1       22.309 -19.742   4.170  0.00  0.00    +0.005 C 
BRANCH  23  24
ATOM     24  C   LIG    1       22.557 -18.473   5.041  0.00  0.00    +0.000 C 
BRANCH  24  25
ATOM     25  C   LIG    1       21.842 -17.214   4.545  0.00  0.00    -0.003 C 
ATOM     26  C   LIG    1       22.703 -15.968   4.732  0.00  0.00    +0.004 C 
ENDBRANCH  24  25
ENDBRANCH  23  24
ENDBRANCH  20  23
ENDBRANCH  19  20
ENDBRANCH   6  19
TORSDOF 13
ENDMDL
MODEL 6
REMARK VINA RESULT:      -1.8      0.973      3.343
REMARK  Name = *****
REMARK                            x       y       z     vdW  Elec       q    Type
REMARK                         _______ _______ _______ _____ _____    ______ ____
ROOT
ATOM      1  N   LIG    1       25.468 -17.403   3.306  0.00  0.00    -0.287 NA
ATOM      2  C   LIG    1       24.147 -17.243   3.886  0.00  0.00    +0.108 C 
ATOM      3  C   LIG    1       23.328 -18.540   3.704  0.00  0.00    +0.039 C 
ATOM      4  C   LIG    1       21.968 -18.358   4.376  0.00  0.00    +0.030 C 
ATOM      5  C   LIG    1       24.117 -19.684   4.410  0.00  0.00    +0.108 C 
ATOM      6  N   LIG    1       25.419 -19.908   3.758  0.00  0.00    -0.287 NA
ATOM      7  C   LIG    1       26.128 -18.643   3.649  0.00  0.00    +0.171 C 
ENDROOT
BRANCH   3   8
ATOM      8  N   LIG    1       23.172 -18.797   2.243  0.00  0.00    -0.323 NA
ATOM      9  H   LIG    1       22.321 -18.307   1.929  0.00  0.00    +0.119 HD
ATOM     10  H   LIG    1       22.887 -19.769   2.177  0.00  0.00    +0.119 HD
ENDBRANCH   3   8
BRANCH   1  11
ATOM     11  C   LIG    1       26.380 -16.240   3.462  0.00  0.00    +0.089 C 
BRANCH  11  12
ATOM     12  C   LIG    1       25.977 -14.713   3.223  0.00  0.00    +0.003 C 
BRANCH  12  13
ATOM     13  C   LIG    1       27.043 -13.657   2.836  0.00  0.00    +0.001 C 
ATOM     14  C   LIG    1       28.198 -13.241   3.706  0.00  0.00    +0.004 C 
ENDBRANCH  12  13
BRANCH  12  15
ATOM     15  C   LIG    1       25.212 -14.087   4.430  0.00  0.00    +0.005 C 
BRANCH  15  16
ATOM     16  C   LIG    1       24.879 -12.574   4.385  0.00  0.00    +0.000 C 
BRANCH  16  18
ATOM     17  C   LIG    1       24.231 -12.657   1.924  0.00  0.00    +0.004 C 
ATOM     18  C   LIG    1       23.872 -12.144   3.322  0.00  0.00    -0.003 C 
ENDBRANCH  16  18
ENDBRANCH  15  16
ENDBRANCH  12  15
ENDBRANCH  11  12
ENDBRANCH   1  11
BRANCH   6  19
ATOM     19  C   LIG    1       26.244 -20.935   4.504  0.00  0.00    +0.089 C 
BRANCH  19  20
ATOM     20  C   LIG    1       26.800 -20.625   5.976  0.00  0.00    +0.003 C 
BRANCH  20  21
ATOM     21  C   LIG    1       27.694 -19.375   6.139  0.00  0.00    +0.001 C 
ATOM     22  C   LIG    1       29.156 -19.573   5.899  0.00  0.00    +0.004 C 
ENDBRANCH  20  21
BRANCH  20  23
ATOM     23  C   LIG    1       25.624 -20.426   6.994  0.00  0.00    +0.005 C 
BRANCH  23  24
ATOM     24  C   LIG    1       24.564 -21.568   7.062  0.00  0.00    +0.000 C 
BRANCH  24  25
ATOM     25  C   LIG    1       23.111 -21.087   7.030  0.00  0.00    -0.003 C 
ATOM     26  C   LIG    1       22.437 -21.423   5.703  0.00  0.00    +0.004 C 
ENDBRANCH  24  25
ENDBRANCH  23  24
ENDBRANCH  20  23
ENDBRANCH  19  20
ENDBRANCH   6  19
TORSDOF 13
ENDMDL
MODEL 7
REMARK VINA RESULT:      -1.7      2.310      6.033
REMARK  Name = *****
REMARK                            x       y       z     vdW  Elec       q    Type
REMARK                         _______ _______ _______ _____ _____    ______ ____
ROOT
ATOM      1  N   LIG    1       23.434 -15.065   4.470  0.00  0.00    -0.287 NA
ATOM      2  C   LIG    1       23.086 -13.875   3.713  0.00  0.00    +0.108 C 
ATOM      3  C   LIG    1       24.304 -12.928   3.626  0.00  0.00    +0.039 C 
ATOM      4  C   LIG    1       23.922 -11.718   2.776  0.00  0.00    +0.030 C 
ATOM      5  C   LIG    1       25.453 -13.721   2.932  0.00  0.00    +0.108 C 
ATOM      6  N   LIG    1       25.868 -14.873   3.749  0.00  0.00    -0.287 NA
ATOM      7  C   LIG    1       24.698 -15.662   4.101  0.00  0.00    +0.171 C 
ENDROOT
BRANCH   3   8
ATOM      8  N   LIG    1       24.678 -12.513   5.009  0.00  0.00    -0.323 NA
ATOM      9  H   LIG    1       24.352 -11.544   5.143  0.00  0.00    +0.119 HD
ATOM     10  H   LIG    1       25.685 -12.391   4.983  0.00  0.00    +0.119 HD
ENDBRANCH   3   8
BRANCH   1  11
ATOM     11  C   LIG    1       22.362 -16.087   4.583  0.00  0.00    +0.089 C 
BRANCH  11  12
ATOM     12  C   LIG    1       22.559 -17.659   4.374  0.00  0.00    +0.003 C 
BRANCH  12  13
ATOM     13  C   LIG    1       21.682 -18.447   3.369  0.00  0.00    +0.001 C 
ATOM     14  C   LIG    1       20.179 -18.402   3.319  0.00  0.00    +0.004 C 
ENDBRANCH  12  13
BRANCH  12  15
ATOM     15  C   LIG    1       22.469 -18.467   5.705  0.00  0.00    +0.005 C 
BRANCH  15  16
ATOM     16  C   LIG    1       22.723 -19.995   5.656  0.00  0.00    +0.000 C 
BRANCH  16  18
ATOM     17  C   LIG    1       24.696 -20.782   7.060  0.00  0.00    +0.004 C 
ATOM     18  C   LIG    1       23.174 -20.639   6.964  0.00  0.00    -0.003 C 
ENDBRANCH  16  18
ENDBRANCH  15  16
ENDBRANCH  12  15
ENDBRANCH  11  12
ENDBRANCH   1  11
BRANCH   6  19
ATOM     19  C   LIG    1       26.902 -15.718   3.033  0.00  0.00    +0.089 C 
BRANCH  19  20
ATOM     20  C   LIG    1       27.303 -17.167   3.591  0.00  0.00    +0.003 C 
BRANCH  20  21
ATOM     21  C   LIG    1       28.273 -17.211   4.795  0.00  0.00    +0.001 C 
ATOM     22  C   LIG    1       28.728 -18.567   5.226  0.00  0.00    +0.004 C 
ENDBRANCH  20  21
BRANCH  20  23
ATOM     23  C   LIG    1       26.035 -17.965   4.053  0.00  0.00    +0.005 C 
BRANCH  23  24
ATOM     24  C   LIG    1       25.500 -19.048   3.068  0.00  0.00    +0.000 C 
BRANCH  24  25
ATOM     25  C   LIG    1       25.259 -20.420   3.703  0.00  0.00    -0.003 C 
ATOM     26  C   LIG    1       24.119 -21.166   3.016  0.00  0.00    +0.004 C 
ENDBRANCH  24  25
ENDBRANCH  23  24
ENDBRANCH  20  23
ENDBRANCH  19  20
ENDBRANCH   6  19
TORSDOF 13
ENDMDL
MODEL 8
REMARK VINA RESULT:      -1.7      1.969      5.634
REMARK  Name = *****
REMARK                            x       y       z     vdW  Elec       q    Type
REMARK                         _______ _______ _______ _____ _____    ______ ____
ROOT
ATOM      1  N   LIG    1       25.043 -14.686   4.345  0.00  0.00    -0.287 NA
ATOM      2  C   LIG    1       25.777 -13.556   3.804  0.00  0.00    +0.108 C 
ATOM      3  C   LIG    1       27.257 -13.628   4.241  0.00  0.00    +0.039 C 
ATOM      4  C   LIG    1       28.011 -12.460   3.608  0.00  0.00    +0.030 C 
ATOM      5  C   LIG    1       27.828 -14.978   3.707  0.00  0.00    +0.108 C 
ATOM      6  N   LIG    1       27.144 -16.123   4.330  0.00  0.00    -0.287 NA
ATOM      7  C   LIG    1       25.705 -15.962   4.190  0.00  0.00    +0.171 C 
ENDROOT
BRANCH   3   8
ATOM      8  N   LIG    1       27.313 -13.557   5.729  0.00  0.00    -0.323 NA
ATOM      9  H   LIG    1       26.997 -14.467   6.098  0.00  0.00    +0.119 HD
ATOM     10  H   LIG    1       26.545 -12.949   5.992  0.00  0.00    +0.119 HD
ENDBRANCH   3   8
BRANCH   1  11
ATOM     11  C   LIG    1       23.612 -14.766   3.954  0.00  0.00    +0.089 C 
BRANCH  11  12
ATOM     12  C   LIG    1       22.582 -15.885   4.443  0.00  0.00    +0.003 C 
BRANCH  12  13
ATOM     13  C   LIG    1       22.104 -15.942   5.916  0.00  0.00    +0.001 C 
ATOM     14  C   LIG    1       21.522 -14.781   6.677  0.00  0.00    +0.004 C 
ENDBRANCH  12  13
BRANCH  12  15
ATOM     15  C   LIG    1       23.058 -17.335   4.119  0.00  0.00    +0.005 C 
BRANCH  15  16
ATOM     16  C   LIG    1       22.043 -18.495   4.280  0.00  0.00    +0.000 C 
BRANCH  16  18
ATOM     17  C   LIG    1       21.750 -20.949   4.892  0.00  0.00    +0.004 C 
ATOM     18  C   LIG    1       22.471 -19.634   5.201  0.00  0.00    -0.003 C 
ENDBRANCH  16  18
ENDBRANCH  15  16
ENDBRANCH  12  15
ENDBRANCH  11  12
ENDBRANCH   1  11
BRANCH   6  19
ATOM     19  C   LIG    1       27.608 -17.436   3.735  0.00  0.00    +0.089 C 
BRANCH  19  20
ATOM     20  C   LIG    1       28.283 -18.560   4.658  0.00  0.00    +0.003 C 
BRANCH  20  21
ATOM     21  C   LIG    1       29.377 -18.093   5.646  0.00  0.00    +0.001 C 
ATOM     22  C   LIG    1       29.475 -18.852   6.930  0.00  0.00    +0.004 C 
ENDBRANCH  20  21
BRANCH  20  23
ATOM     23  C   LIG    1       27.209 -19.283   5.544  0.00  0.00    +0.005 C 
BRANCH  23  24
ATOM     24  C   LIG    1       26.071 -20.030   4.784  0.00  0.00    +0.000 C 
BRANCH  24  25
ATOM     25  C   LIG    1       25.556 -21.286   5.491  0.00  0.00    -0.003 C 
ATOM     26  C   LIG    1       26.190 -21.457   6.868  0.00  0.00    +0.004 C 
ENDBRANCH  24  25
ENDBRANCH  23  24
ENDBRANCH  20  23
ENDBRANCH  19  20
ENDBRANCH   6  19
TORSDOF 13
ENDMDL
MODEL 9
REMARK VINA RESULT:      -1.6      1.759      5.473
REMARK  Name = *****
REMARK                            x       y       z     vdW  Elec       q    Type
REMARK                         _______ _______ _______ _____ _____    ______ ____
ROOT
ATOM      1  N   LIG    1       25.254 -15.592   3.377  0.00  0.00    -0.287 NA
ATOM      2  C   LIG    1       25.329 -14.253   3.932  0.00  0.00    +0.108 C 
ATOM      3  C   LIG    1       23.921 -13.618   3.973  0.00  0.00    +0.039 C 
ATOM      4  C   LIG    1       24.027 -12.236   4.615  0.00  0.00    +0.030 C 
ATOM      5  C   LIG    1       23.025 -14.543   4.853  0.00  0.00    +0.108 C 
ATOM      6  N   LIG    1       22.874 -15.872   4.237  0.00  0.00    -0.287 NA
ATOM      7  C   LIG    1       24.188 -16.407   3.916  0.00  0.00    +0.171 C 
ENDROOT
BRANCH   3   8
ATOM      8  N   LIG    1       23.408 -13.520   2.576  0.00  0.00    -0.323 NA
ATOM      9  H   LIG    1       24.148 -13.865   1.947  0.00  0.00    +0.119 HD
ATOM     10  H   LIG    1       23.405 -12.527   2.367  0.00  0.00    +0.119 HD
ENDBRANCH   3   8
BRANCH   1  11
ATOM     11  C   LIG    1       26.538 -16.338   3.332  0.00  0.00    +0.089 C 
BRANCH  11  12
ATOM     12  C   LIG    1       27.693 -16.255   4.434  0.00  0.00    +0.003 C 
BRANCH  12  13
ATOM     13  C   LIG    1       28.641 -15.031   4.507  0.00  0.00    +0.001 C 
ATOM     14  C   LIG    1       28.431 -13.735   3.771  0.00  0.00    +0.004 C 
ENDBRANCH  12  13
BRANCH  12  15
ATOM     15  C   LIG    1       28.639 -17.495   4.420  0.00  0.00    +0.005 C 
BRANCH  15  16
ATOM     16  C   LIG    1       29.276 -17.949   5.758  0.00  0.00    +0.000 C 
BRANCH  16  18
ATOM     17  C   LIG    1       27.627 -19.884   5.605  0.00  0.00    +0.004 C 
ATOM     18  C   LIG    1       28.935 -19.366   6.212  0.00  0.00    -0.003 C 
ENDBRANCH  16  18
ENDBRANCH  15  16
ENDBRANCH  12  15
ENDBRANCH  11  12
ENDBRANCH   1  11
BRANCH   6  19
ATOM     19  C   LIG    1       22.105 -16.816   5.136  0.00  0.00    +0.089 C 
BRANCH  19  20
ATOM     20  C   LIG    1       21.635 -18.254   4.603  0.00  0.00    +0.003 C 
BRANCH  20  21
ATOM     21  C   LIG    1       21.131 -18.331   3.144  0.00  0.00    +0.001 C 
ATOM     22  C   LIG    1       19.648 -18.353   2.958  0.00  0.00    +0.004 C 
ENDBRANCH  20  21
BRANCH  20  23
ATOM     23  C   LIG    1       22.803 -19.297   4.691  0.00  0.00    +0.005 C 
BRANCH  23  24
ATOM     24  C   LIG    1       22.391 -20.780   4.937  0.00  0.00    +0.000 C 
BRANCH  24  25
ATOM     25  C   LIG    1       22.956 -21.390   6.223  0.00  0.00    -0.003 C 
ATOM     26  C   LIG    1       24.231 -20.680   6.670  0.00  0.00    +0.004 C 
ENDBRANCH  24  25
ENDBRANCH  23  24
ENDBRANCH  20  23
ENDBRANCH  19  20
ENDBRANCH   6  19
TORSDOF 13
ENDMDL
