MODEL 1
REMARK VINA RESULT:      -9.2      0.000      0.000
REMARK  Name = *****
REMARK                            x       y       z     vdW  Elec       q    Type
REMARK                         _______ _______ _______ _____ _____    ______ ____
ROOT
ATOM      1  CA  LIG    1       26.599 -20.031   5.312  0.00  0.00    +0.123 C 
ATOM      2  N   LIG    1       25.610 -20.831   5.780  0.00  0.00    -0.249 N 
ATOM      3  C   LIG    1       25.468 -21.329   7.124  0.00  0.00    +0.169 C 
ATOM      4  CA  LIG    1       24.423 -22.324   6.509  0.00  0.00    +0.191 C 
ATOM      5  S   LIG    1       26.982 -21.990   7.816  0.00  0.00    -0.131 S 
ATOM      6  C   LIG    1       28.204 -21.191   6.759  0.00  0.00    +0.104 C 
ATOM      7  C   LIG    1       24.396 -21.273   5.354  0.00  0.00    +0.244 C 
ATOM      8  O   LIG    1       23.666 -21.082   4.413  0.00  0.00    -0.273 OA
ATOM      9  C   LIG    1       27.789 -19.964   5.963  0.00  0.00    -0.021 C 
ENDROOT
BRANCH   4  10
ATOM     10  N   LIG    1       24.874 -23.697   6.093  0.00  0.00    -0.299 N 
ATOM     11  H   LIG    1       25.774 -23.810   5.646  0.00  0.00    +0.150 HD
ATOM     12  C   LIG    1       24.098 -24.833   6.298  0.00  0.00    +0.247 C 
ATOM     13  O   LIG    1       22.974 -24.790   6.790  0.00  0.00    -0.273 OA
BRANCH  12  14
ATOM     14  C   LIG    1       24.668 -26.121   5.694  0.00  0.00    +0.230 C 
BRANCH  14  15
ATOM     15  C   LIG    1       25.019 -27.245   6.652  0.00  0.00    -0.010 A 
ATOM     16  C   LIG    1       26.020 -27.166   7.637  0.00  0.00    +0.006 A 
ATOM     17  C   LIG    1       26.275 -28.234   8.500  0.00  0.00    +0.000 A 
ATOM     18  C   LIG    1       25.546 -29.411   8.387  0.00  0.00    +0.000 A 
ATOM     19  C   LIG    1       24.566 -29.523   7.405  0.00  0.00    +0.000 A 
ATOM     20  C   LIG    1       24.303 -28.450   6.548  0.00  0.00    +0.006 A 
ENDBRANCH  14  15
BRANCH  14  21
ATOM     21  O   LIG    1       23.704 -26.580   4.736  0.00  0.00    -0.378 OA
ATOM     22  H   LIG    1       24.180 -26.647   3.886  0.00  0.00    +0.211 HD
ENDBRANCH  14  21
ENDBRANCH  12  14
ENDBRANCH   4  10
BRANCH   1  24
ATOM     23  O   LIG    1       26.509 -18.119   3.865  0.00  0.00    -0.244 OA
ATOM     24  C   LIG    1       26.255 -19.294   4.067  0.00  0.00    +0.351 C 
BRANCH  24  25
ATOM     25  OXT LIG    1       25.813 -20.067   3.074  0.00  0.00    -0.476 OA
ATOM     26  HXT LIG    1       25.777 -19.410   2.335  0.00  0.00    +0.295 HD
ENDBRANCH  24  25
ENDBRANCH   1  24
BRANCH   9  27
ATOM     27  C   LIG    1       28.958 -19.011   5.698  0.00  0.00    +0.111 C 
BRANCH  27  28
ATOM     28  S   LIG    1       29.615 -18.075   7.108  0.00  0.00    -0.080 S 
BRANCH  28  29
ATOM     29  C   LIG    1       30.687 -19.150   7.894  0.00  0.00    +0.211 A 
ATOM     30  N   LIG    1       31.623 -18.833   8.835  0.00  0.00    -0.196 N 
ATOM     31  N   LIG    1       32.167 -19.978   9.299  0.00  0.00    -0.042 NA
ATOM     32  N   LIG    1       31.701 -20.933   8.509  0.00  0.00    -0.022 NA
ATOM     33  N   LIG    1       30.789 -20.428   7.621  0.00  0.00    -0.102 NA
BRANCH  30  34
ATOM     34  C   LIG    1       32.008 -17.608   9.471  0.00  0.00    +0.345 C 
BRANCH  34  35
ATOM     35  S   LIG    1       31.248 -17.191  11.018  0.00  0.00    +0.100 S 
ATOM     36  O   LIG    1       30.109 -16.272  10.892  0.00  0.00    -0.146 OA
ATOM     37  O   LIG    1       32.246 -16.964  12.017  0.00  0.00    -0.146 OA
BRANCH  35  38
ATOM     38  O   LIG    1       30.661 -18.683  11.291  0.00  0.00    -0.252 OA
ATOM     39  H   LIG    1       29.790 -18.652  11.745  0.00  0.00    +0.244 HD
ENDBRANCH  35  38
ENDBRANCH  34  35
ENDBRANCH  30  34
ENDBRANCH  28  29
ENDBRANCH  27  28
ENDBRANCH   9  27
TORSDOF 12
ENDMDL
MODEL 2
REMARK VINA RESULT:      -8.0      1.879      2.348
REMARK  Name = *****
REMARK                            x       y       z     vdW  Elec       q    Type
REMARK                         _______ _______ _______ _____ _____    ______ ____
ROOT
ATOM      1  CA  LIG    1       26.341 -20.070   5.263  0.00  0.00    +0.123 C 
ATOM      2  N   LIG    1       25.498 -20.997   5.780  0.00  0.00    -0.249 N 
ATOM      3  C   LIG    1       25.440 -21.439   7.149  0.00  0.00    +0.169 C 
ATOM      4  CA  LIG    1       24.576 -22.626   6.596  0.00  0.00    +0.191 C 
ATOM      5  S   LIG    1       27.042 -21.801   7.863  0.00  0.00    -0.131 S 
ATOM      6  C   LIG    1       28.115 -20.868   6.756  0.00  0.00    +0.104 C 
ATOM      7  C   LIG    1       24.376 -21.657   5.388  0.00  0.00    +0.244 C 
ATOM      8  O   LIG    1       23.624 -21.640   4.444  0.00  0.00    -0.273 OA
ATOM      9  C   LIG    1       27.502 -19.771   5.900  0.00  0.00    -0.021 C 
ENDROOT
BRANCH   4  10
ATOM     10  N   LIG    1       25.249 -23.924   6.249  0.00  0.00    -0.299 N 
ATOM     11  H   LIG    1       26.230 -23.925   6.005  0.00  0.00    +0.150 HD
ATOM     12  C   LIG    1       24.574 -25.140   6.251  0.00  0.00    +0.247 C 
ATOM     13  O   LIG    1       23.373 -25.233   6.491  0.00  0.00    -0.273 OA
BRANCH  12  14
ATOM     14  C   LIG    1       25.394 -26.334   5.750  0.00  0.00    +0.230 C 
BRANCH  14  15
ATOM     15  C   LIG    1       25.098 -27.691   6.363  0.00  0.00    -0.010 A 
ATOM     16  C   LIG    1       25.559 -28.112   7.622  0.00  0.00    +0.006 A 
ATOM     17  C   LIG    1       25.230 -29.369   8.133  0.00  0.00    +0.000 A 
ATOM     18  C   LIG    1       24.444 -30.240   7.390  0.00  0.00    +0.000 A 
ATOM     19  C   LIG    1       23.994 -29.856   6.130  0.00  0.00    +0.000 A 
ATOM     20  C   LIG    1       24.314 -28.594   5.623  0.00  0.00    +0.006 A 
ENDBRANCH  14  15
BRANCH  14  21
ATOM     21  O   LIG    1       25.202 -26.388   4.329  0.00  0.00    -0.378 OA
ATOM     22  H   LIG    1       24.257 -26.194   4.177  0.00  0.00    +0.211 HD
ENDBRANCH  14  21
ENDBRANCH  12  14
ENDBRANCH   4  10
BRANCH   1  24
ATOM     23  O   LIG    1       25.773 -18.271   3.780  0.00  0.00    -0.244 OA
ATOM     24  C   LIG    1       25.880 -19.468   3.983  0.00  0.00    +0.351 C 
BRANCH  24  25
ATOM     25  OXT LIG    1       25.775 -20.334   2.974  0.00  0.00    -0.476 OA
ATOM     26  HXT LIG    1       26.457 -21.001   3.236  0.00  0.00    +0.295 HD
ENDBRANCH  24  25
ENDBRANCH   1  24
BRANCH   9  27
ATOM     27  C   LIG    1       28.497 -18.653   5.575  0.00  0.00    +0.111 C 
BRANCH  27  28
ATOM     28  S   LIG    1       30.225 -18.895   6.076  0.00  0.00    -0.080 S 
BRANCH  28  29
ATOM     29  C   LIG    1       30.241 -18.622   7.764  0.00  0.00    +0.211 A 
ATOM     30  N   LIG    1       30.907 -19.350   8.706  0.00  0.00    -0.196 N 
ATOM     31  N   LIG    1       30.770 -18.732   9.898  0.00  0.00    -0.042 NA
ATOM     32  N   LIG    1       29.883 -17.771   9.696  0.00  0.00    -0.022 NA
ATOM     33  N   LIG    1       29.534 -17.700   8.373  0.00  0.00    -0.102 NA
BRANCH  30  34
ATOM     34  C   LIG    1       31.773 -20.490   8.643  0.00  0.00    +0.345 C 
BRANCH  34  35
ATOM     35  S   LIG    1       31.124 -22.063   9.142  0.00  0.00    +0.100 S 
ATOM     36  O   LIG    1       31.998 -23.197   8.815  0.00  0.00    -0.146 OA
ATOM     37  O   LIG    1       29.722 -22.134   8.864  0.00  0.00    -0.146 OA
BRANCH  35  38
ATOM     38  O   LIG    1       31.259 -21.770  10.736  0.00  0.00    -0.252 OA
ATOM     39  H   LIG    1       31.249 -20.806  10.929  0.00  0.00    +0.244 HD
ENDBRANCH  35  38
ENDBRANCH  34  35
ENDBRANCH  30  34
ENDBRANCH  28  29
ENDBRANCH  27  28
ENDBRANCH   9  27
TORSDOF 12
ENDMDL
MODEL 3
REMARK VINA RESULT:      -8.0      6.321      9.926
REMARK  Name = *****
REMARK                            x       y       z     vdW  Elec       q    Type
REMARK                         _______ _______ _______ _____ _____    ______ ____
ROOT
ATOM      1  CA  LIG    1       24.334 -31.102   9.874  0.00  0.00    +0.123 C 
ATOM      2  N   LIG    1       24.718 -30.660   8.652  0.00  0.00    -0.249 N 
ATOM      3  C   LIG    1       25.927 -29.945   8.336  0.00  0.00    +0.169 C 
ATOM      4  CA  LIG    1       25.225 -29.615   6.973  0.00  0.00    +0.191 C 
ATOM      5  S   LIG    1       26.291 -28.602   9.463  0.00  0.00    -0.131 S 
ATOM      6  C   LIG    1       25.311 -29.096  10.892  0.00  0.00    +0.104 C 
ATOM      7  C   LIG    1       24.338 -30.841   7.359  0.00  0.00    +0.244 C 
ATOM      8  O   LIG    1       23.546 -31.524   6.757  0.00  0.00    -0.273 OA
ATOM      9  C   LIG    1       24.852 -30.542  10.998  0.00  0.00    -0.021 C 
ENDROOT
BRANCH   4  10
ATOM     10  N   LIG    1       24.473 -28.322   6.829  0.00  0.00    -0.299 N 
ATOM     11  H   LIG    1       23.519 -28.263   7.159  0.00  0.00    +0.150 HD
ATOM     12  C   LIG    1       25.038 -27.187   6.256  0.00  0.00    +0.247 C 
ATOM     13  O   LIG    1       26.172 -27.174   5.787  0.00  0.00    -0.273 OA
BRANCH  12  14
ATOM     14  C   LIG    1       24.077 -26.006   6.083  0.00  0.00    +0.230 C 
BRANCH  14  15
ATOM     15  C   LIG    1       24.519 -24.661   6.632  0.00  0.00    -0.010 A 
ATOM     16  C   LIG    1       25.841 -24.343   6.989  0.00  0.00    +0.006 A 
ATOM     17  C   LIG    1       26.180 -23.077   7.470  0.00  0.00    +0.000 A 
ATOM     18  C   LIG    1       25.200 -22.103   7.619  0.00  0.00    +0.000 A 
ATOM     19  C   LIG    1       23.880 -22.400   7.295  0.00  0.00    +0.000 A 
ATOM     20  C   LIG    1       23.543 -23.664   6.804  0.00  0.00    +0.006 A 
ENDBRANCH  14  15
BRANCH  14  21
ATOM     21  O   LIG    1       23.820 -25.896   4.676  0.00  0.00    -0.378 OA
ATOM     22  H   LIG    1       23.205 -26.622   4.458  0.00  0.00    +0.211 HD
ENDBRANCH  14  21
ENDBRANCH  12  14
ENDBRANCH   4  10
BRANCH   1  24
ATOM     23  O   LIG    1       23.536 -33.342  10.191  0.00  0.00    -0.244 OA
ATOM     24  C   LIG    1       23.324 -32.194   9.843  0.00  0.00    +0.351 C 
BRANCH  24  25
ATOM     25  OXT LIG    1       22.080 -31.786   9.588  0.00  0.00    -0.476 OA
ATOM     26  HXT LIG    1       22.048 -31.907   8.606  0.00  0.00    +0.295 HD
ENDBRANCH  24  25
ENDBRANCH   1  24
BRANCH   9  27
ATOM     27  C   LIG    1       24.678 -31.000  12.448  0.00  0.00    +0.111 C 
BRANCH  27  28
ATOM     28  S   LIG    1       24.972 -29.776  13.757  0.00  0.00    -0.080 S 
BRANCH  28  29
ATOM     29  C   LIG    1       26.670 -29.728  13.947  0.00  0.00    +0.211 A 
ATOM     30  N   LIG    1       27.420 -28.662  14.353  0.00  0.00    -0.196 N 
ATOM     31  N   LIG    1       28.698 -29.073  14.501  0.00  0.00    -0.042 NA
ATOM     32  N   LIG    1       28.733 -30.299  14.006  0.00  0.00    -0.022 NA
ATOM     33  N   LIG    1       27.479 -30.715  13.645  0.00  0.00    -0.102 NA
BRANCH  30  34
ATOM     34  C   LIG    1       27.100 -27.324  14.751  0.00  0.00    +0.345 C 
BRANCH  34  35
ATOM     35  S   LIG    1       26.792 -26.123  13.483  0.00  0.00    +0.100 S 
ATOM     36  O   LIG    1       27.473 -24.841  13.701  0.00  0.00    -0.146 OA
ATOM     37  O   LIG    1       25.414 -26.148  13.099  0.00  0.00    -0.146 OA
BRANCH  35  38
ATOM     38  O   LIG    1       27.603 -26.931  12.327  0.00  0.00    -0.252 OA
ATOM     39  H   LIG    1       28.257 -26.354  11.873  0.00  0.00    +0.244 HD
ENDBRANCH  35  38
ENDBRANCH  34  35
ENDBRANCH  30  34
ENDBRANCH  28  29
ENDBRANCH  27  28
ENDBRANCH   9  27
TORSDOF 12
ENDMDL
MODEL 4
REMARK VINA RESULT:      -7.8      3.548      6.812
REMARK  Name = *****
REMARK                            x       y       z     vdW  Elec       q    Type
REMARK                         _______ _______ _______ _____ _____    ______ ____
ROOT
ATOM      1  CA  LIG    1       25.941 -21.373   7.190  0.00  0.00    +0.123 C 
ATOM      2  N   LIG    1       24.702 -21.315   6.645  0.00  0.00    -0.249 N 
ATOM      3  C   LIG    1       24.372 -21.392   5.245  0.00  0.00    +0.169 C 
ATOM      4  CA  LIG    1       22.962 -20.857   5.678  0.00  0.00    +0.191 C 
ATOM      5  S   LIG    1       25.398 -20.361   4.201  0.00  0.00    -0.131 S 
ATOM      6  C   LIG    1       26.827 -20.124   5.274  0.00  0.00    +0.104 C 
ATOM      7  C   LIG    1       23.415 -21.377   7.080  0.00  0.00    +0.244 C 
ATOM      8  O   LIG    1       22.842 -21.578   8.123  0.00  0.00    -0.273 OA
ATOM      9  C   LIG    1       27.033 -21.082   6.436  0.00  0.00    -0.021 C 
ENDROOT
BRANCH   4  10
ATOM     10  N   LIG    1       22.687 -19.381   5.620  0.00  0.00    -0.299 N 
ATOM     11  H   LIG    1       22.606 -18.856   6.481  0.00  0.00    +0.150 HD
ATOM     12  C   LIG    1       22.538 -18.694   4.420  0.00  0.00    +0.247 C 
ATOM     13  O   LIG    1       22.575 -19.252   3.327  0.00  0.00    -0.273 OA
BRANCH  12  14
ATOM     14  C   LIG    1       22.138 -17.222   4.564  0.00  0.00    +0.230 C 
BRANCH  14  15
ATOM     15  C   LIG    1       23.207 -16.179   4.293  0.00  0.00    -0.010 A 
ATOM     16  C   LIG    1       23.049 -14.801   4.524  0.00  0.00    +0.006 A 
ATOM     17  C   LIG    1       24.085 -13.899   4.270  0.00  0.00    +0.000 A 
ATOM     18  C   LIG    1       25.296 -14.352   3.765  0.00  0.00    +0.000 A 
ATOM     19  C   LIG    1       25.470 -15.709   3.506  0.00  0.00    +0.000 A 
ATOM     20  C   LIG    1       24.437 -16.613   3.770  0.00  0.00    +0.006 A 
ENDBRANCH  14  15
BRANCH  14  21
ATOM     21  O   LIG    1       21.024 -17.017   3.685  0.00  0.00    -0.378 OA
ATOM     22  H   LIG    1       21.273 -16.275   3.101  0.00  0.00    +0.211 HD
ENDBRANCH  14  21
ENDBRANCH  12  14
ENDBRANCH   4  10
BRANCH   1  24
ATOM     23  O   LIG    1       26.195 -22.872   9.046  0.00  0.00    -0.244 OA
ATOM     24  C   LIG    1       25.963 -21.751   8.628  0.00  0.00    +0.351 C 
BRANCH  24  25
ATOM     25  OXT LIG    1       25.903 -20.718   9.470  0.00  0.00    -0.476 OA
ATOM     26  HXT LIG    1       26.384 -20.030   8.945  0.00  0.00    +0.295 HD
ENDBRANCH  24  25
ENDBRANCH   1  24
BRANCH   9  27
ATOM     27  C   LIG    1       28.509 -21.246   6.810  0.00  0.00    +0.111 C 
BRANCH  27  28
ATOM     28  S   LIG    1       29.515 -19.740   6.940  0.00  0.00    -0.080 S 
BRANCH  28  29
ATOM     29  C   LIG    1       30.759 -20.131   8.045  0.00  0.00    +0.211 A 
ATOM     30  N   LIG    1       31.432 -19.268   8.861  0.00  0.00    -0.196 N 
ATOM     31  N   LIG    1       32.238 -19.989   9.670  0.00  0.00    -0.042 NA
ATOM     32  N   LIG    1       32.184 -21.227   9.208  0.00  0.00    -0.022 NA
ATOM     33  N   LIG    1       31.277 -21.327   8.186  0.00  0.00    -0.102 NA
BRANCH  30  34
ATOM     34  C   LIG    1       31.347 -17.857   9.091  0.00  0.00    +0.345 C 
BRANCH  34  35
ATOM     35  S   LIG    1       31.327 -17.281  10.768  0.00  0.00    +0.100 S 
ATOM     36  O   LIG    1       30.451 -16.123  10.989  0.00  0.00    -0.146 OA
ATOM     37  O   LIG    1       32.650 -17.294  11.313  0.00  0.00    -0.146 OA
BRANCH  35  38
ATOM     38  O   LIG    1       30.577 -18.598  11.359  0.00  0.00    -0.252 OA
ATOM     39  H   LIG    1       31.023 -19.426  11.073  0.00  0.00    +0.244 HD
ENDBRANCH  35  38
ENDBRANCH  34  35
ENDBRANCH  30  34
ENDBRANCH  28  29
ENDBRANCH  27  28
ENDBRANCH   9  27
TORSDOF 12
ENDMDL
MODEL 5
REMARK VINA RESULT:      -7.7      6.312     10.620
REMARK  Name = *****
REMARK                            x       y       z     vdW  Elec       q    Type
REMARK                         _______ _______ _______ _____ _____    ______ ____
ROOT
ATOM      1  CA  LIG    1       24.365 -30.676   8.969  0.00  0.00    +0.123 C 
ATOM      2  N   LIG    1       24.723 -29.920   7.902  0.00  0.00    -0.249 N 
ATOM      3  C   LIG    1       25.987 -29.262   7.699  0.00  0.00    +0.169 C 
ATOM      4  CA  LIG    1       25.247 -28.465   6.569  0.00  0.00    +0.191 C 
ATOM      5  S   LIG    1       26.579 -28.370   9.134  0.00  0.00    -0.131 S 
ATOM      6  C   LIG    1       25.638 -29.180  10.439  0.00  0.00    +0.104 C 
ATOM      7  C   LIG    1       24.244 -29.660   6.656  0.00  0.00    +0.244 C 
ATOM      8  O   LIG    1       23.340 -30.047   5.957  0.00  0.00    -0.273 OA
ATOM      9  C   LIG    1       25.016 -30.538  10.153  0.00  0.00    -0.021 C 
ENDROOT
BRANCH   4  10
ATOM     10  N   LIG    1       24.647 -27.124   6.888  0.00  0.00    -0.299 N 
ATOM     11  H   LIG    1       23.811 -27.076   7.455  0.00  0.00    +0.150 HD
ATOM     12  C   LIG    1       25.199 -25.931   6.434  0.00  0.00    +0.247 C 
ATOM     13  O   LIG    1       26.186 -25.891   5.705  0.00  0.00    -0.273 OA
BRANCH  12  14
ATOM     14  C   LIG    1       24.378 -24.677   6.756  0.00  0.00    +0.230 C 
BRANCH  14  15
ATOM     15  C   LIG    1       25.079 -23.336   6.639  0.00  0.00    -0.010 A 
ATOM     16  C   LIG    1       26.105 -22.897   7.495  0.00  0.00    +0.006 A 
ATOM     17  C   LIG    1       26.720 -21.657   7.315  0.00  0.00    +0.000 A 
ATOM     18  C   LIG    1       26.312 -20.819   6.285  0.00  0.00    +0.000 A 
ATOM     19  C   LIG    1       25.283 -21.220   5.439  0.00  0.00    +0.000 A 
ATOM     20  C   LIG    1       24.674 -22.466   5.612  0.00  0.00    +0.006 A 
ENDBRANCH  14  15
BRANCH  14  21
ATOM     21  O   LIG    1       23.236 -24.708   5.889  0.00  0.00    -0.378 OA
ATOM     22  H   LIG    1       23.589 -24.697   4.978  0.00  0.00    +0.211 HD
ENDBRANCH  14  21
ENDBRANCH  12  14
ENDBRANCH   4  10
BRANCH   1  24
ATOM     23  O   LIG    1       23.334 -32.685   8.157  0.00  0.00    -0.244 OA
ATOM     24  C   LIG    1       23.231 -31.604   8.711  0.00  0.00    +0.351 C 
BRANCH  24  25
ATOM     25  OXT LIG    1       22.092 -31.262   9.314  0.00  0.00    -0.476 OA
ATOM     26  HXT LIG    1       21.465 -31.300   8.550  0.00  0.00    +0.295 HD
ENDBRANCH  24  25
ENDBRANCH   1  24
BRANCH   9  27
ATOM     27  C   LIG    1       24.879 -31.399  11.412  0.00  0.00    +0.111 C 
BRANCH  27  28
ATOM     28  S   LIG    1       24.499 -30.551  12.972  0.00  0.00    -0.080 S 
BRANCH  28  29
ATOM     29  C   LIG    1       22.863 -30.074  12.832  0.00  0.00    +0.211 A 
ATOM     30  N   LIG    1       22.227 -29.106  13.553  0.00  0.00    -0.196 N 
ATOM     31  N   LIG    1       20.985 -28.947  13.048  0.00  0.00    -0.042 NA
ATOM     32  N   LIG    1       20.828 -29.933  12.180  0.00  0.00    -0.022 NA
ATOM     33  N   LIG    1       21.987 -30.651  12.046  0.00  0.00    -0.102 NA
BRANCH  30  34
ATOM     34  C   LIG    1       22.650 -28.201  14.580  0.00  0.00    +0.345 C 
BRANCH  34  35
ATOM     35  S   LIG    1       23.469 -26.705  14.095  0.00  0.00    +0.100 S 
ATOM     36  O   LIG    1       24.668 -26.923  13.276  0.00  0.00    -0.146 OA
ATOM     37  O   LIG    1       23.503 -25.781  15.187  0.00  0.00    -0.146 OA
BRANCH  35  38
ATOM     38  O   LIG    1       22.273 -26.205  13.111  0.00  0.00    -0.252 OA
ATOM     39  H   LIG    1       21.835 -25.396  13.458  0.00  0.00    +0.244 HD
ENDBRANCH  35  38
ENDBRANCH  34  35
ENDBRANCH  30  34
ENDBRANCH  28  29
ENDBRANCH  27  28
ENDBRANCH   9  27
TORSDOF 12
ENDMDL
MODEL 6
REMARK VINA RESULT:      -7.6      7.044     11.572
REMARK  Name = *****
REMARK                            x       y       z     vdW  Elec       q    Type
REMARK                         _______ _______ _______ _____ _____    ______ ____
ROOT
ATOM      1  CA  LIG    1       24.158 -31.269   9.724  0.00  0.00    +0.123 C 
ATOM      2  N   LIG    1       24.625 -30.758   8.559  0.00  0.00    -0.249 N 
ATOM      3  C   LIG    1       25.854 -30.033   8.368  0.00  0.00    +0.169 C 
ATOM      4  CA  LIG    1       25.246 -29.619   6.982  0.00  0.00    +0.191 C 
ATOM      5  S   LIG    1       26.143 -28.760   9.594  0.00  0.00    -0.131 S 
ATOM      6  C   LIG    1       25.067 -29.331  10.922  0.00  0.00    +0.104 C 
ATOM      7  C   LIG    1       24.333 -30.861   7.235  0.00  0.00    +0.244 C 
ATOM      8  O   LIG    1       23.583 -31.503   6.542  0.00  0.00    -0.273 OA
ATOM      9  C   LIG    1       24.600 -30.778  10.911  0.00  0.00    -0.021 C 
ENDROOT
BRANCH   4  10
ATOM     10  N   LIG    1       24.507 -28.316   6.864  0.00  0.00    -0.299 N 
ATOM     11  H   LIG    1       23.603 -28.216   7.306  0.00  0.00    +0.150 HD
ATOM     12  C   LIG    1       25.018 -27.226   6.166  0.00  0.00    +0.247 C 
ATOM     13  O   LIG    1       26.085 -27.267   5.561  0.00  0.00    -0.273 OA
BRANCH  12  14
ATOM     14  C   LIG    1       24.066 -26.031   6.051  0.00  0.00    +0.230 C 
BRANCH  14  15
ATOM     15  C   LIG    1       24.546 -24.701   6.604  0.00  0.00    -0.010 A 
ATOM     16  C   LIG    1       25.880 -24.418   6.949  0.00  0.00    +0.006 A 
ATOM     17  C   LIG    1       26.255 -23.164   7.433  0.00  0.00    +0.000 A 
ATOM     18  C   LIG    1       25.301 -22.167   7.600  0.00  0.00    +0.000 A 
ATOM     19  C   LIG    1       23.970 -22.429   7.289  0.00  0.00    +0.000 A 
ATOM     20  C   LIG    1       23.597 -23.682   6.793  0.00  0.00    +0.006 A 
ENDBRANCH  14  15
BRANCH  14  21
ATOM     21  O   LIG    1       23.755 -25.895   4.658  0.00  0.00    -0.378 OA
ATOM     22  H   LIG    1       24.605 -25.965   4.183  0.00  0.00    +0.211 HD
ENDBRANCH  14  21
ENDBRANCH  12  14
ENDBRANCH   4  10
BRANCH   1  24
ATOM     23  O   LIG    1       23.405 -33.543   9.590  0.00  0.00    -0.244 OA
ATOM     24  C   LIG    1       23.151 -32.351   9.561  0.00  0.00    +0.351 C 
BRANCH  24  25
ATOM     25  OXT LIG    1       21.885 -31.932   9.576  0.00  0.00    -0.476 OA
ATOM     26  HXT LIG    1       21.418 -32.760   9.300  0.00  0.00    +0.295 HD
ENDBRANCH  24  25
ENDBRANCH   1  24
BRANCH   9  27
ATOM     27  C   LIG    1       24.327 -31.320  12.317  0.00  0.00    +0.111 C 
BRANCH  27  28
ATOM     28  S   LIG    1       23.415 -30.250  13.467  0.00  0.00    -0.080 S 
BRANCH  28  29
ATOM     29  C   LIG    1       21.765 -30.525  13.114  0.00  0.00    +0.211 A 
ATOM     30  N   LIG    1       20.690 -29.902  13.681  0.00  0.00    -0.196 N 
ATOM     31  N   LIG    1       19.575 -30.306  13.036  0.00  0.00    -0.042 NA
ATOM     32  N   LIG    1       19.965 -31.288  12.240  0.00  0.00    -0.022 NA
ATOM     33  N   LIG    1       21.325 -31.444  12.289  0.00  0.00    -0.102 NA
BRANCH  30  34
ATOM     34  C   LIG    1       20.553 -28.875  14.670  0.00  0.00    +0.345 C 
BRANCH  34  35
ATOM     35  S   LIG    1       20.360 -27.201  14.118  0.00  0.00    +0.100 S 
ATOM     36  O   LIG    1       21.131 -26.880  12.910  0.00  0.00    -0.146 OA
ATOM     37  O   LIG    1       20.368 -26.305  15.234  0.00  0.00    -0.146 OA
BRANCH  35  38
ATOM     38  O   LIG    1       18.801 -27.376  13.687  0.00  0.00    -0.252 OA
ATOM     39  H   LIG    1       18.359 -28.085  14.206  0.00  0.00    +0.244 HD
ENDBRANCH  35  38
ENDBRANCH  34  35
ENDBRANCH  30  34
ENDBRANCH  28  29
ENDBRANCH  27  28
ENDBRANCH   9  27
TORSDOF 12
ENDMDL
MODEL 7
REMARK VINA RESULT:      -7.5      7.069     12.052
REMARK  Name = *****
REMARK                            x       y       z     vdW  Elec       q    Type
REMARK                         _______ _______ _______ _____ _____    ______ ____
ROOT
ATOM      1  CA  LIG    1       24.293 -31.327   9.674  0.00  0.00    +0.123 C 
ATOM      2  N   LIG    1       24.709 -30.807   8.494  0.00  0.00    -0.249 N 
ATOM      3  C   LIG    1       25.920 -30.064   8.260  0.00  0.00    +0.169 C 
ATOM      4  CA  LIG    1       25.255 -29.654   6.899  0.00  0.00    +0.191 C 
ATOM      5  S   LIG    1       26.237 -28.791   9.479  0.00  0.00    -0.131 S 
ATOM      6  C   LIG    1       25.220 -29.381  10.844  0.00  0.00    +0.104 C 
ATOM      7  C   LIG    1       24.370 -30.910   7.181  0.00  0.00    +0.244 C 
ATOM      8  O   LIG    1       23.602 -31.559   6.514  0.00  0.00    -0.273 OA
ATOM      9  C   LIG    1       24.773 -30.834  10.845  0.00  0.00    -0.021 C 
ENDROOT
BRANCH   4  10
ATOM     10  N   LIG    1       24.495 -28.361   6.814  0.00  0.00    -0.299 N 
ATOM     11  H   LIG    1       23.592 -28.284   7.264  0.00  0.00    +0.150 HD
ATOM     12  C   LIG    1       24.983 -27.249   6.135  0.00  0.00    +0.247 C 
ATOM     13  O   LIG    1       26.046 -27.260   5.521  0.00  0.00    -0.273 OA
BRANCH  12  14
ATOM     14  C   LIG    1       24.012 -26.067   6.051  0.00  0.00    +0.230 C 
BRANCH  14  15
ATOM     15  C   LIG    1       24.489 -24.732   6.594  0.00  0.00    -0.010 A 
ATOM     16  C   LIG    1       25.823 -24.443   6.933  0.00  0.00    +0.006 A 
ATOM     17  C   LIG    1       26.195 -23.184   7.408  0.00  0.00    +0.000 A 
ATOM     18  C   LIG    1       25.239 -22.189   7.571  0.00  0.00    +0.000 A 
ATOM     19  C   LIG    1       23.908 -22.458   7.265  0.00  0.00    +0.000 A 
ATOM     20  C   LIG    1       23.537 -23.715   6.779  0.00  0.00    +0.006 A 
ENDBRANCH  14  15
BRANCH  14  21
ATOM     21  O   LIG    1       23.658 -25.931   4.668  0.00  0.00    -0.378 OA
ATOM     22  H   LIG    1       24.130 -26.645   4.197  0.00  0.00    +0.211 HD
ENDBRANCH  14  21
ENDBRANCH  12  14
ENDBRANCH   4  10
BRANCH   1  24
ATOM     23  O   LIG    1       23.516 -33.593   9.803  0.00  0.00    -0.244 OA
ATOM     24  C   LIG    1       23.295 -32.423   9.545  0.00  0.00    +0.351 C 
BRANCH  24  25
ATOM     25  OXT LIG    1       22.050 -32.008   9.308  0.00  0.00    -0.476 OA
ATOM     26  HXT LIG    1       21.534 -32.759   9.694  0.00  0.00    +0.295 HD
ENDBRANCH  24  25
ENDBRANCH   1  24
BRANCH   9  27
ATOM     27  C   LIG    1       24.560 -31.384  12.259  0.00  0.00    +0.111 C 
BRANCH  27  28
ATOM     28  S   LIG    1       22.861 -31.789  12.755  0.00  0.00    -0.080 S 
BRANCH  28  29
ATOM     29  C   LIG    1       22.045 -30.288  12.813  0.00  0.00    +0.211 A 
ATOM     30  N   LIG    1       20.695 -30.087  12.781  0.00  0.00    -0.196 N 
ATOM     31  N   LIG    1       20.456 -28.774  12.982  0.00  0.00    -0.042 NA
ATOM     32  N   LIG    1       21.641 -28.189  12.937  0.00  0.00    -0.022 NA
ATOM     33  N   LIG    1       22.639 -29.120  12.818  0.00  0.00    -0.102 NA
BRANCH  30  34
ATOM     34  C   LIG    1       19.567 -30.968  12.715  0.00  0.00    +0.345 C 
BRANCH  34  35
ATOM     35  S   LIG    1       19.030 -31.523  11.119  0.00  0.00    +0.100 S 
ATOM     36  O   LIG    1       17.585 -31.384  10.896  0.00  0.00    -0.146 OA
ATOM     37  O   LIG    1       19.697 -32.739  10.765  0.00  0.00    -0.146 OA
BRANCH  35  38
ATOM     38  O   LIG    1       19.780 -30.336  10.298  0.00  0.00    -0.252 OA
ATOM     39  H   LIG    1       19.417 -30.238   9.390  0.00  0.00    +0.244 HD
ENDBRANCH  35  38
ENDBRANCH  34  35
ENDBRANCH  30  34
ENDBRANCH  28  29
ENDBRANCH  27  28
ENDBRANCH   9  27
TORSDOF 12
ENDMDL
MODEL 8
REMARK VINA RESULT:      -7.5      7.629     10.113
REMARK  Name = *****
REMARK                            x       y       z     vdW  Elec       q    Type
REMARK                         _______ _______ _______ _____ _____    ______ ____
ROOT
ATOM      1  CA  LIG    1       24.369 -29.093  12.072  0.00  0.00    +0.123 C 
ATOM      2  N   LIG    1       24.273 -29.825  10.936  0.00  0.00    -0.249 N 
ATOM      3  C   LIG    1       25.364 -30.346  10.153  0.00  0.00    +0.169 C 
ATOM      4  CA  LIG    1       24.285 -30.584   9.040  0.00  0.00    +0.191 C 
ATOM      5  S   LIG    1       26.668 -29.157   9.845  0.00  0.00    -0.131 S 
ATOM      6  C   LIG    1       26.358 -27.977  11.171  0.00  0.00    +0.104 C 
ATOM      7  C   LIG    1       23.301 -30.484  10.250  0.00  0.00    +0.244 C 
ATOM      8  O   LIG    1       22.134 -30.749  10.404  0.00  0.00    -0.273 OA
ATOM      9  C   LIG    1       25.511 -28.416  12.355  0.00  0.00    -0.021 C 
ENDROOT
BRANCH   4  10
ATOM     10  N   LIG    1       24.078 -29.538   7.981  0.00  0.00    -0.299 N 
ATOM     11  H   LIG    1       23.581 -28.688   8.212  0.00  0.00    +0.150 HD
ATOM     12  C   LIG    1       24.547 -29.688   6.680  0.00  0.00    +0.247 C 
ATOM     13  O   LIG    1       25.122 -30.702   6.293  0.00  0.00    -0.273 OA
BRANCH  12  14
ATOM     14  C   LIG    1       24.132 -28.575   5.712  0.00  0.00    +0.230 C 
BRANCH  14  15
ATOM     15  C   LIG    1       24.653 -27.176   5.993  0.00  0.00    -0.010 A 
ATOM     16  C   LIG    1       23.853 -26.020   6.018  0.00  0.00    +0.006 A 
ATOM     17  C   LIG    1       24.396 -24.767   6.304  0.00  0.00    +0.000 A 
ATOM     18  C   LIG    1       25.757 -24.638   6.556  0.00  0.00    +0.000 A 
ATOM     19  C   LIG    1       26.574 -25.763   6.513  0.00  0.00    +0.000 A 
ATOM     20  C   LIG    1       26.028 -27.020   6.238  0.00  0.00    +0.006 A 
ENDBRANCH  14  15
BRANCH  14  21
ATOM     21  O   LIG    1       24.549 -28.997   4.407  0.00  0.00    -0.378 OA
ATOM     22  H   LIG    1       25.392 -29.472   4.533  0.00  0.00    +0.211 HD
ENDBRANCH  14  21
ENDBRANCH  12  14
ENDBRANCH   4  10
BRANCH   1  24
ATOM     23  O   LIG    1       22.303 -28.218  12.923  0.00  0.00    -0.244 OA
ATOM     24  C   LIG    1       23.141 -29.103  12.913  0.00  0.00    +0.351 C 
BRANCH  24  25
ATOM     25  OXT LIG    1       22.905 -30.261  13.530  0.00  0.00    -0.476 OA
ATOM     26  HXT LIG    1       23.678 -30.794  13.216  0.00  0.00    +0.295 HD
ENDBRANCH  24  25
ENDBRANCH   1  24
BRANCH   9  27
ATOM     27  C   LIG    1       25.876 -27.678  13.646  0.00  0.00    +0.111 C 
BRANCH  27  28
ATOM     28  S   LIG    1       27.630 -27.625  14.116  0.00  0.00    -0.080 S 
BRANCH  28  29
ATOM     29  C   LIG    1       28.041 -29.243  14.483  0.00  0.00    +0.211 A 
ATOM     30  N   LIG    1       29.286 -29.731  14.755  0.00  0.00    -0.196 N 
ATOM     31  N   LIG    1       29.165 -31.025  15.123  0.00  0.00    -0.042 NA
ATOM     32  N   LIG    1       27.903 -31.342  14.883  0.00  0.00    -0.022 NA
ATOM     33  N   LIG    1       27.195 -30.244  14.471  0.00  0.00    -0.102 NA
BRANCH  30  34
ATOM     34  C   LIG    1       30.584 -29.131  14.847  0.00  0.00    +0.345 C 
BRANCH  34  35
ATOM     35  S   LIG    1       31.777 -29.518  13.594  0.00  0.00    +0.100 S 
ATOM     36  O   LIG    1       32.223 -30.917  13.611  0.00  0.00    -0.146 OA
ATOM     37  O   LIG    1       32.734 -28.461  13.475  0.00  0.00    -0.146 OA
BRANCH  35  38
ATOM     38  O   LIG    1       30.740 -29.337  12.354  0.00  0.00    -0.252 OA
ATOM     39  H   LIG    1       31.090 -29.741  11.528  0.00  0.00    +0.244 HD
ENDBRANCH  35  38
ENDBRANCH  34  35
ENDBRANCH  30  34
ENDBRANCH  28  29
ENDBRANCH  27  28
ENDBRANCH   9  27
TORSDOF 12
ENDMDL
MODEL 9
REMARK VINA RESULT:      -7.3      7.323     10.114
REMARK  Name = *****
REMARK                            x       y       z     vdW  Elec       q    Type
REMARK                         _______ _______ _______ _____ _____    ______ ____
ROOT
ATOM      1  CA  LIG    1       24.136 -30.205  11.593  0.00  0.00    +0.123 C 
ATOM      2  N   LIG    1       24.147 -30.717  10.338  0.00  0.00    -0.249 N 
ATOM      3  C   LIG    1       25.306 -30.971   9.523  0.00  0.00    +0.169 C 
ATOM      4  CA  LIG    1       24.287 -31.104   8.338  0.00  0.00    +0.191 C 
ATOM      5  S   LIG    1       26.484 -29.623   9.496  0.00  0.00    -0.131 S 
ATOM      6  C   LIG    1       26.018 -28.747  11.001  0.00  0.00    +0.104 C 
ATOM      7  C   LIG    1       23.268 -31.330   9.501  0.00  0.00    +0.244 C 
ATOM      8  O   LIG    1       22.132 -31.733   9.552  0.00  0.00    -0.273 OA
ATOM      9  C   LIG    1       25.193 -29.482  12.046  0.00  0.00    -0.021 C 
ENDROOT
BRANCH   4  10
ATOM     10  N   LIG    1       23.997 -29.904   7.480  0.00  0.00    -0.299 N 
ATOM     11  H   LIG    1       23.328 -29.216   7.798  0.00  0.00    +0.150 HD
ATOM     12  C   LIG    1       24.619 -29.694   6.254  0.00  0.00    +0.247 C 
ATOM     13  O   LIG    1       25.411 -30.495   5.765  0.00  0.00    -0.273 OA
BRANCH  12  14
ATOM     14  C   LIG    1       24.104 -28.483   5.469  0.00  0.00    +0.230 C 
BRANCH  14  15
ATOM     15  C   LIG    1       24.652 -27.120   5.849  0.00  0.00    -0.010 A 
ATOM     16  C   LIG    1       23.861 -25.980   6.074  0.00  0.00    +0.006 A 
ATOM     17  C   LIG    1       24.432 -24.760   6.443  0.00  0.00    +0.000 A 
ATOM     18  C   LIG    1       25.810 -24.649   6.580  0.00  0.00    +0.000 A 
ATOM     19  C   LIG    1       26.618 -25.757   6.340  0.00  0.00    +0.000 A 
ATOM     20  C   LIG    1       26.045 -26.981   5.981  0.00  0.00    +0.006 A 
ENDBRANCH  14  15
BRANCH  14  21
ATOM     21  O   LIG    1       24.379 -28.750   4.087  0.00  0.00    -0.378 OA
ATOM     22  H   LIG    1       23.598 -29.225   3.743  0.00  0.00    +0.211 HD
ENDBRANCH  14  21
ENDBRANCH  12  14
ENDBRANCH   4  10
BRANCH   1  24
ATOM     23  O   LIG    1       22.746 -31.451  13.101  0.00  0.00    -0.244 OA
ATOM     24  C   LIG    1       22.895 -30.492  12.362  0.00  0.00    +0.351 C 
BRANCH  24  25
ATOM     25  OXT LIG    1       21.998 -29.506  12.349  0.00  0.00    -0.476 OA
ATOM     26  HXT LIG    1       22.547 -28.758  12.692  0.00  0.00    +0.295 HD
ENDBRANCH  24  25
ENDBRANCH   1  24
BRANCH   9  27
ATOM     27  C   LIG    1       25.445 -28.965  13.465  0.00  0.00    +0.111 C 
BRANCH  27  28
ATOM     28  S   LIG    1       26.818 -27.802  13.703  0.00  0.00    -0.080 S 
BRANCH  28  29
ATOM     29  C   LIG    1       26.083 -26.262  13.807  0.00  0.00    +0.211 A 
ATOM     30  N   LIG    1       24.995 -25.922  14.557  0.00  0.00    -0.196 N 
ATOM     31  N   LIG    1       24.814 -24.587  14.465  0.00  0.00    -0.042 NA
ATOM     32  N   LIG    1       25.657 -24.182  13.529  0.00  0.00    -0.022 NA
ATOM     33  N   LIG    1       26.444 -25.218  13.100  0.00  0.00    -0.102 NA
BRANCH  30  34
ATOM     34  C   LIG    1       24.155 -26.647  15.463  0.00  0.00    +0.345 C 
BRANCH  34  35
ATOM     35  S   LIG    1       22.479 -26.967  14.979  0.00  0.00    +0.100 S 
ATOM     36  O   LIG    1       21.517 -25.977  15.477  0.00  0.00    -0.146 OA
ATOM     37  O   LIG    1       22.190 -28.365  15.084  0.00  0.00    -0.146 OA
BRANCH  35  38
ATOM     38  O   LIG    1       22.732 -26.672  13.399  0.00  0.00    -0.252 OA
ATOM     39  H   LIG    1       23.124 -25.782  13.256  0.00  0.00    +0.244 HD
ENDBRANCH  35  38
ENDBRANCH  34  35
ENDBRANCH  30  34
ENDBRANCH  28  29
ENDBRANCH  27  28
ENDBRANCH   9  27
TORSDOF 12
ENDMDL
