MODEL 1
REMARK VINA RESULT:      -3.9      0.000      0.000
REMARK  Name = *****
REMARK                            x       y       z     vdW  Elec       q    Type
REMARK                         _______ _______ _______ _____ _____    ______ ____
ROOT
ATOM      1  C   LIG    1       25.256 -19.189   3.994  0.00  0.00    +0.133 C 
ATOM      2  C   LIG    1       25.780 -19.651   2.612  0.00  0.00    +0.054 C 
ENDROOT
BRANCH   1   3
ATOM      3  C   LIG    1       26.287 -19.691   5.061  0.00  0.00    +0.077 A 
ATOM      4  N   LIG    1       27.598 -19.332   4.904  0.00  0.00    -0.257 NA
ATOM      5  C   LIG    1       28.499 -19.797   5.806  0.00  0.00    +0.111 A 
ATOM      6  C   LIG    1       28.176 -20.593   6.885  0.00  0.00    +0.020 A 
ATOM      7  C   LIG    1       26.842 -20.935   7.060  0.00  0.00    +0.003 A 
ATOM      8  C   LIG    1       25.891 -20.481   6.141  0.00  0.00    +0.026 A 
ENDBRANCH   1   3
BRANCH   1   9
ATOM      9  C   LIG    1       23.859 -19.761   4.319  0.00  0.00    -0.010 A 
ATOM     10  C   LIG    1       23.681 -21.048   4.863  0.00  0.00    +0.007 A 
ATOM     11  C   LIG    1       22.406 -21.572   5.096  0.00  0.00    +0.000 A 
ATOM     12  C   LIG    1       21.276 -20.823   4.784  0.00  0.00    +0.000 A 
ATOM     13  C   LIG    1       21.424 -19.529   4.295  0.00  0.00    +0.000 A 
ATOM     14  C   LIG    1       22.699 -18.989   4.100  0.00  0.00    +0.007 A 
ENDBRANCH   1   9
BRANCH   1  15
ATOM     15  O   LIG    1       25.235 -17.723   4.021  0.00  0.00    -0.362 OA
BRANCH  15  16
ATOM     16  C   LIG    1       26.194 -17.020   3.208  0.00  0.00    +0.177 C 
BRANCH  16  17
ATOM     17  C   LIG    1       26.283 -15.547   3.684  0.00  0.00    +0.112 C 
BRANCH  17  19
ATOM     18  C   LIG    1       25.863 -13.637   2.206  0.00  0.00    +0.104 C 
ATOM     19  N   LIG    1       26.858 -14.583   2.718  0.00  0.00    -0.306 NA
ATOM     20  C   LIG    1       27.963 -13.839   3.339  0.00  0.00    +0.104 C 
ENDBRANCH  17  19
ENDBRANCH  16  17
ENDBRANCH  15  16
ENDBRANCH   1  15
TORSDOF 6
ENDMDL
MODEL 2
REMARK VINA RESULT:      -3.5      0.896      1.748
REMARK  Name = *****
REMARK                            x       y       z     vdW  Elec       q    Type
REMARK                         _______ _______ _______ _____ _____    ______ ____
ROOT
ATOM      1  C   LIG    1       25.393 -19.110   3.808  0.00  0.00    +0.133 C 
ATOM      2  C   LIG    1       25.967 -19.686   2.490  0.00  0.00    +0.054 C 
ENDROOT
BRANCH   1   3
ATOM      3  C   LIG    1       26.385 -19.517   4.951  0.00  0.00    +0.077 A 
ATOM      4  N   LIG    1       25.890 -20.238   6.002  0.00  0.00    -0.257 NA
ATOM      5  C   LIG    1       26.738 -20.558   7.011  0.00  0.00    +0.111 A 
ATOM      6  C   LIG    1       28.075 -20.222   7.037  0.00  0.00    +0.020 A 
ATOM      7  C   LIG    1       28.584 -19.514   5.957  0.00  0.00    +0.003 A 
ATOM      8  C   LIG    1       27.732 -19.159   4.907  0.00  0.00    +0.026 A 
ENDBRANCH   1   3
BRANCH   1   9
ATOM      9  C   LIG    1       23.986 -19.656   4.130  0.00  0.00    -0.010 A 
ATOM     10  C   LIG    1       22.856 -18.820   4.214  0.00  0.00    +0.007 A 
ATOM     11  C   LIG    1       21.599 -19.324   4.563  0.00  0.00    +0.000 A 
ATOM     12  C   LIG    1       21.443 -20.677   4.845  0.00  0.00    +0.000 A 
ATOM     13  C   LIG    1       22.532 -21.534   4.719  0.00  0.00    +0.000 A 
ATOM     14  C   LIG    1       23.779 -21.037   4.328  0.00  0.00    +0.007 A 
ENDBRANCH   1   9
BRANCH   1  15
ATOM     15  O   LIG    1       25.371 -17.647   3.710  0.00  0.00    -0.362 OA
BRANCH  15  16
ATOM     16  C   LIG    1       26.616 -16.970   3.449  0.00  0.00    +0.177 C 
BRANCH  16  17
ATOM     17  C   LIG    1       26.352 -15.446   3.332  0.00  0.00    +0.112 C 
BRANCH  17  19
ATOM     18  C   LIG    1       28.075 -13.705   3.416  0.00  0.00    +0.104 C 
ATOM     19  N   LIG    1       27.184 -14.572   4.191  0.00  0.00    -0.306 NA
ATOM     20  C   LIG    1       26.329 -13.746   5.054  0.00  0.00    +0.104 C 
ENDBRANCH  17  19
ENDBRANCH  16  17
ENDBRANCH  15  16
ENDBRANCH   1  15
TORSDOF 6
ENDMDL
MODEL 3
REMARK VINA RESULT:      -2.6      1.730      6.029
REMARK  Name = *****
REMARK                            x       y       z     vdW  Elec       q    Type
REMARK                         _______ _______ _______ _____ _____    ______ ____
ROOT
ATOM      1  C   LIG    1       25.787 -18.555   3.732  0.00  0.00    +0.133 C 
ATOM      2  C   LIG    1       26.006 -19.091   2.296  0.00  0.00    +0.054 C 
ENDROOT
BRANCH   1   3
ATOM      3  C   LIG    1       25.648 -16.999   3.620  0.00  0.00    +0.077 A 
ATOM      4  N   LIG    1       26.729 -16.291   3.169  0.00  0.00    -0.257 NA
ATOM      5  C   LIG    1       26.625 -14.939   3.107  0.00  0.00    +0.111 A 
ATOM      6  C   LIG    1       25.491 -14.232   3.449  0.00  0.00    +0.020 A 
ATOM      7  C   LIG    1       24.385 -14.953   3.880  0.00  0.00    +0.003 A 
ATOM      8  C   LIG    1       24.466 -16.346   3.966  0.00  0.00    +0.026 A 
ENDBRANCH   1   3
BRANCH   1   9
ATOM      9  C   LIG    1       26.957 -18.901   4.678  0.00  0.00    -0.010 A 
ATOM     10  C   LIG    1       28.141 -18.139   4.720  0.00  0.00    +0.007 A 
ATOM     11  C   LIG    1       29.214 -18.501   5.540  0.00  0.00    +0.000 A 
ATOM     12  C   LIG    1       29.132 -19.639   6.335  0.00  0.00    +0.000 A 
ATOM     13  C   LIG    1       27.955 -20.381   6.352  0.00  0.00    +0.000 A 
ATOM     14  C   LIG    1       26.866 -19.996   5.563  0.00  0.00    +0.007 A 
ENDBRANCH   1   9
BRANCH   1  15
ATOM     15  O   LIG    1       24.526 -19.099   4.248  0.00  0.00    -0.362 OA
BRANCH  15  16
ATOM     16  C   LIG    1       24.000 -20.286   3.626  0.00  0.00    +0.177 C 
BRANCH  16  17
ATOM     17  C   LIG    1       24.093 -21.469   4.625  0.00  0.00    +0.112 C 
BRANCH  17  19
ATOM     18  C   LIG    1       23.329 -20.914   6.886  0.00  0.00    +0.104 C 
ATOM     19  N   LIG    1       23.000 -21.571   5.619  0.00  0.00    -0.306 NA
ATOM     20  C   LIG    1       21.764 -20.993   5.076  0.00  0.00    +0.104 C 
ENDBRANCH  17  19
ENDBRANCH  16  17
ENDBRANCH  15  16
ENDBRANCH   1  15
TORSDOF 6
ENDMDL
MODEL 4
REMARK VINA RESULT:      -2.1      1.790      6.023
REMARK  Name = *****
REMARK                            x       y       z     vdW  Elec       q    Type
REMARK                         _______ _______ _______ _____ _____    ______ ____
ROOT
ATOM      1  C   LIG    1       25.823 -18.598   3.731  0.00  0.00    +0.133 C 
ATOM      2  C   LIG    1       26.097 -19.086   2.288  0.00  0.00    +0.054 C 
ENDROOT
BRANCH   1   3
ATOM      3  C   LIG    1       25.688 -17.038   3.665  0.00  0.00    +0.077 A 
ATOM      4  N   LIG    1       24.475 -16.487   3.976  0.00  0.00    -0.257 NA
ATOM      5  C   LIG    1       24.344 -15.140   3.882  0.00  0.00    +0.111 A 
ATOM      6  C   LIG    1       25.362 -14.286   3.513  0.00  0.00    +0.020 A 
ATOM      7  C   LIG    1       26.600 -14.843   3.222  0.00  0.00    +0.003 A 
ATOM      8  C   LIG    1       26.763 -16.229   3.299  0.00  0.00    +0.026 A 
ENDBRANCH   1   3
BRANCH   1   9
ATOM      9  C   LIG    1       26.957 -18.975   4.709  0.00  0.00    -0.010 A 
ATOM     10  C   LIG    1       26.844 -20.049   5.613  0.00  0.00    +0.007 A 
ATOM     11  C   LIG    1       27.858 -20.340   6.532  0.00  0.00    +0.000 A 
ATOM     12  C   LIG    1       29.007 -19.557   6.573  0.00  0.00    +0.000 A 
ATOM     13  C   LIG    1       29.167 -18.523   5.657  0.00  0.00    +0.000 A 
ATOM     14  C   LIG    1       28.172 -18.258   4.711  0.00  0.00    +0.007 A 
ENDBRANCH   1   9
BRANCH   1  15
ATOM     15  O   LIG    1       24.544 -19.157   4.181  0.00  0.00    -0.362 OA
BRANCH  15  16
ATOM     16  C   LIG    1       24.100 -20.390   3.581  0.00  0.00    +0.177 C 
BRANCH  16  17
ATOM     17  C   LIG    1       24.186 -21.527   4.632  0.00  0.00    +0.112 C 
BRANCH  17  19
ATOM     18  C   LIG    1       23.487 -20.971   6.915  0.00  0.00    +0.104 C 
ATOM     19  N   LIG    1       23.098 -21.572   5.636  0.00  0.00    -0.306 NA
ATOM     20  C   LIG    1       21.903 -20.890   5.121  0.00  0.00    +0.104 C 
ENDBRANCH  17  19
ENDBRANCH  16  17
ENDBRANCH  15  16
ENDBRANCH   1  15
TORSDOF 6
ENDMDL
MODEL 5
REMARK VINA RESULT:      -1.6      1.912      5.561
REMARK  Name = *****
REMARK                            x       y       z     vdW  Elec       q    Type
REMARK                         _______ _______ _______ _____ _____    ______ ____
ROOT
ATOM      1  C   LIG    1       25.149 -18.434   3.862  0.00  0.00    +0.133 C 
ATOM      2  C   LIG    1       25.692 -19.081   2.564  0.00  0.00    +0.054 C 
ENDROOT
BRANCH   1   3
ATOM      3  C   LIG    1       23.718 -19.027   4.099  0.00  0.00    +0.077 A 
ATOM      4  N   LIG    1       23.624 -20.252   4.702  0.00  0.00    -0.257 NA
ATOM      5  C   LIG    1       22.389 -20.785   4.874  0.00  0.00    +0.111 A 
ATOM      6  C   LIG    1       21.216 -20.163   4.500  0.00  0.00    +0.020 A 
ATOM      7  C   LIG    1       21.310 -18.908   3.912  0.00  0.00    +0.003 A 
ATOM      8  C   LIG    1       22.570 -18.337   3.711  0.00  0.00    +0.026 A 
ENDBRANCH   1   3
BRANCH   1   9
ATOM      9  C   LIG    1       25.059 -16.896   3.764  0.00  0.00    -0.010 A 
ATOM     10  C   LIG    1       23.914 -16.183   4.171  0.00  0.00    +0.007 A 
ATOM     11  C   LIG    1       23.828 -14.795   4.021  0.00  0.00    +0.000 A 
ATOM     12  C   LIG    1       24.882 -14.087   3.454  0.00  0.00    +0.000 A 
ATOM     13  C   LIG    1       26.045 -14.760   3.093  0.00  0.00    +0.000 A 
ATOM     14  C   LIG    1       26.148 -16.142   3.281  0.00  0.00    +0.007 A 
ENDBRANCH   1   9
BRANCH   1  15
ATOM     15  O   LIG    1       26.009 -18.833   4.980  0.00  0.00    -0.362 OA
BRANCH  15  16
ATOM     16  C   LIG    1       26.826 -20.008   4.816  0.00  0.00    +0.177 C 
BRANCH  16  17
ATOM     17  C   LIG    1       27.220 -20.554   6.213  0.00  0.00    +0.112 C 
BRANCH  17  19
ATOM     18  C   LIG    1       29.447 -21.125   7.062  0.00  0.00    +0.104 C 
ATOM     19  N   LIG    1       28.494 -20.050   6.775  0.00  0.00    -0.306 NA
ATOM     20  C   LIG    1       29.110 -19.086   5.854  0.00  0.00    +0.104 C 
ENDBRANCH  17  19
ENDBRANCH  16  17
ENDBRANCH  15  16
ENDBRANCH   1  15
TORSDOF 6
ENDMDL
MODEL 6
REMARK VINA RESULT:      -0.9      1.844      5.380
REMARK  Name = *****
REMARK                            x       y       z     vdW  Elec       q    Type
REMARK                         _______ _______ _______ _____ _____    ______ ____
ROOT
ATOM      1  C   LIG    1       25.718 -19.164   4.220  0.00  0.00    +0.133 C 
ATOM      2  C   LIG    1       25.761 -19.903   2.860  0.00  0.00    +0.054 C 
ENDROOT
BRANCH   1   3
ATOM      3  C   LIG    1       25.996 -17.651   3.923  0.00  0.00    +0.077 A 
ATOM      4  N   LIG    1       24.926 -16.846   3.640  0.00  0.00    -0.257 NA
ATOM      5  C   LIG    1       25.168 -15.544   3.345  0.00  0.00    +0.111 A 
ATOM      6  C   LIG    1       26.423 -14.972   3.332  0.00  0.00    +0.020 A 
ATOM      7  C   LIG    1       27.506 -15.782   3.646  0.00  0.00    +0.003 A 
ATOM      8  C   LIG    1       27.290 -17.131   3.943  0.00  0.00    +0.026 A 
ENDBRANCH   1   3
BRANCH   1   9
ATOM      9  C   LIG    1       26.770 -19.695   5.217  0.00  0.00    -0.010 A 
ATOM     10  C   LIG    1       28.112 -19.268   5.192  0.00  0.00    +0.007 A 
ATOM     11  C   LIG    1       29.065 -19.803   6.065  0.00  0.00    +0.000 A 
ATOM     12  C   LIG    1       28.699 -20.785   6.980  0.00  0.00    +0.000 A 
ATOM     13  C   LIG    1       27.370 -21.187   7.061  0.00  0.00    +0.000 A 
ATOM     14  C   LIG    1       26.409 -20.622   6.217  0.00  0.00    +0.007 A 
ENDBRANCH   1   9
BRANCH   1  15
ATOM     15  O   LIG    1       24.367 -19.288   4.778  0.00  0.00    -0.362 OA
BRANCH  15  16
ATOM     16  C   LIG    1       23.470 -20.234   4.165  0.00  0.00    +0.177 C 
BRANCH  16  17
ATOM     17  C   LIG    1       22.007 -19.781   4.412  0.00  0.00    +0.112 C 
BRANCH  17  19
ATOM     18  C   LIG    1       20.221 -18.454   3.384  0.00  0.00    +0.104 C 
ATOM     19  N   LIG    1       21.618 -18.479   3.824  0.00  0.00    -0.306 NA
ATOM     20  C   LIG    1       21.844 -17.397   4.792  0.00  0.00    +0.104 C 
ENDBRANCH  17  19
ENDBRANCH  16  17
ENDBRANCH  15  16
ENDBRANCH   1  15
TORSDOF 6
ENDMDL
