MODEL 1
REMARK VINA RESULT:      -9.9      0.000      0.000
REMARK  Name = *****
REMARK                            x       y       z     vdW  Elec       q    Type
REMARK                         _______ _______ _______ _____ _____    ______ ____
ROOT
ATOM      1  C   LIG    1       29.556 -19.078   7.716  0.00  0.00    -0.023 A 
ATOM      2  C   LIG    1       28.453 -19.924   7.858  0.00  0.00    +0.036 A 
ATOM      3  C   LIG    1       27.661 -20.221   6.753  0.00  0.00    +0.109 A 
ATOM      4  C   LIG    1       27.973 -19.699   5.487  0.00  0.00    +0.029 A 
ATOM      5  C   LIG    1       29.083 -18.860   5.347  0.00  0.00    +0.003 A 
ATOM      6  C   LIG    1       29.871 -18.550   6.457  0.00  0.00    +0.008 A 
ENDROOT
BRANCH   3   7
ATOM      7  S   LIG    1       26.270 -21.322   6.922  0.00  0.00    +0.072 S 
ATOM      8  O   LIG    1       25.219 -20.612   7.625  0.00  0.00    -0.150 OA
ATOM      9  O   LIG    1       26.776 -22.597   7.386  0.00  0.00    -0.150 OA
BRANCH   7  10
ATOM     10  N   LIG    1       25.775 -21.429   5.298  0.00  0.00    -0.216 N 
ATOM     11  H   LIG    1       26.575 -21.136   4.739  0.00  0.00    +0.174 HD
BRANCH  10  12
ATOM     12  C   LIG    1       24.623 -20.633   4.976  0.00  0.00    +0.048 A 
ATOM     13  C   LIG    1       23.364 -20.973   5.474  0.00  0.00    +0.024 A 
ATOM     14  C   LIG    1       22.256 -20.189   5.146  0.00  0.00    +0.002 A 
ATOM     15  C   LIG    1       22.405 -19.079   4.314  0.00  0.00    +0.000 A 
ATOM     16  C   LIG    1       23.661 -18.760   3.797  0.00  0.00    +0.002 A 
ATOM     17  C   LIG    1       24.770 -19.542   4.122  0.00  0.00    +0.024 A 
ENDBRANCH  10  12
ENDBRANCH   7  10
ENDBRANCH   3   7
BRANCH   1  19
ATOM     18  C   LIG    1       30.424 -17.549   9.414  0.00  0.00    +0.070 C 
ATOM     19  C   LIG    1       30.391 -18.780   8.879  0.00  0.00    +0.013 C 
BRANCH  18  21
ATOM     20  O   LIG    1       31.271 -17.727  11.630  0.00  0.00    -0.269 OA
ATOM     21  C   LIG    1       31.387 -17.248  10.505  0.00  0.00    +0.259 C 
ATOM     22  N   LIG    1       32.413 -16.398  10.207  0.00  0.00    -0.194 N 
ATOM     23  H   LIG    1       33.206 -16.428  10.845  0.00  0.00    +0.182 HD
BRANCH  22  24
ATOM     24  O   LIG    1       32.687 -16.039   8.875  0.00  0.00    -0.295 OA
ATOM     25  H   LIG    1       33.191 -15.210   8.995  0.00  0.00    +0.241 HD
ENDBRANCH  22  24
ENDBRANCH  18  21
ENDBRANCH   1  19
TORSDOF 6
ENDMDL
MODEL 2
REMARK VINA RESULT:      -9.9      2.767      3.426
REMARK  Name = *****
REMARK                            x       y       z     vdW  Elec       q    Type
REMARK                         _______ _______ _______ _____ _____    ______ ____
ROOT
ATOM      1  C   LIG    1       27.466 -21.419   7.705  0.00  0.00    -0.023 A 
ATOM      2  C   LIG    1       26.737 -22.385   7.005  0.00  0.00    +0.036 A 
ATOM      3  C   LIG    1       25.348 -22.393   7.079  0.00  0.00    +0.109 A 
ATOM      4  C   LIG    1       24.665 -21.423   7.832  0.00  0.00    +0.029 A 
ATOM      5  C   LIG    1       25.396 -20.453   8.523  0.00  0.00    +0.003 A 
ATOM      6  C   LIG    1       26.791 -20.450   8.460  0.00  0.00    +0.008 A 
ENDROOT
BRANCH   3   7
ATOM      7  S   LIG    1       24.412 -23.605   6.167  0.00  0.00    +0.072 S 
ATOM      8  O   LIG    1       23.028 -23.516   6.590  0.00  0.00    -0.150 OA
ATOM      9  O   LIG    1       25.150 -24.850   6.213  0.00  0.00    -0.150 OA
BRANCH   7  10
ATOM     10  N   LIG    1       24.483 -22.924   4.609  0.00  0.00    -0.216 N 
ATOM     11  H   LIG    1       25.458 -22.979   4.321  0.00  0.00    +0.174 HD
BRANCH  10  12
ATOM     12  C   LIG    1       24.014 -21.567   4.534  0.00  0.00    +0.048 A 
ATOM     13  C   LIG    1       22.719 -21.241   4.937  0.00  0.00    +0.024 A 
ATOM     14  C   LIG    1       22.282 -19.917   4.853  0.00  0.00    +0.002 A 
ATOM     15  C   LIG    1       23.133 -18.929   4.355  0.00  0.00    +0.000 A 
ATOM     16  C   LIG    1       24.417 -19.266   3.928  0.00  0.00    +0.002 A 
ATOM     17  C   LIG    1       24.856 -20.588   4.010  0.00  0.00    +0.024 A 
ENDBRANCH  10  12
ENDBRANCH   7  10
ENDBRANCH   3   7
BRANCH   1  19
ATOM     18  C   LIG    1       29.660 -20.539   8.323  0.00  0.00    +0.070 C 
ATOM     19  C   LIG    1       28.924 -21.408   7.613  0.00  0.00    +0.013 C 
BRANCH  18  21
ATOM     20  O   LIG    1       31.622 -19.736   7.242  0.00  0.00    -0.269 OA
ATOM     21  C   LIG    1       31.127 -20.464   8.099  0.00  0.00    +0.259 C 
ATOM     22  N   LIG    1       31.914 -21.253   8.888  0.00  0.00    -0.194 N 
ATOM     23  H   LIG    1       32.896 -20.987   8.933  0.00  0.00    +0.182 HD
BRANCH  22  24
ATOM     24  O   LIG    1       31.383 -21.900  10.018  0.00  0.00    -0.295 OA
ATOM     25  H   LIG    1       30.553 -22.272   9.659  0.00  0.00    +0.241 HD
ENDBRANCH  22  24
ENDBRANCH  18  21
ENDBRANCH   1  19
TORSDOF 6
ENDMDL
MODEL 3
REMARK VINA RESULT:      -9.7      4.220      8.910
REMARK  Name = *****
REMARK                            x       y       z     vdW  Elec       q    Type
REMARK                         _______ _______ _______ _____ _____    ______ ____
ROOT
ATOM      1  C   LIG    1       24.733 -24.788   6.175  0.00  0.00    -0.023 A 
ATOM      2  C   LIG    1       25.623 -23.801   6.609  0.00  0.00    +0.036 A 
ATOM      3  C   LIG    1       25.132 -22.617   7.152  0.00  0.00    +0.109 A 
ATOM      4  C   LIG    1       23.750 -22.412   7.293  0.00  0.00    +0.029 A 
ATOM      5  C   LIG    1       22.864 -23.405   6.866  0.00  0.00    +0.003 A 
ATOM      6  C   LIG    1       23.353 -24.588   6.309  0.00  0.00    +0.008 A 
ENDROOT
BRANCH   3   7
ATOM      7  S   LIG    1       26.262 -21.367   7.734  0.00  0.00    +0.072 S 
ATOM      8  O   LIG    1       26.513 -21.608   9.141  0.00  0.00    -0.150 OA
ATOM      9  O   LIG    1       25.786 -20.089   7.248  0.00  0.00    -0.150 OA
BRANCH   7  10
ATOM     10  N   LIG    1       27.674 -21.835   6.908  0.00  0.00    -0.216 N 
ATOM     11  H   LIG    1       27.937 -22.742   7.289  0.00  0.00    +0.174 HD
BRANCH  10  12
ATOM     12  C   LIG    1       28.765 -20.907   7.026  0.00  0.00    +0.048 A 
ATOM     13  C   LIG    1       28.871 -19.822   6.154  0.00  0.00    +0.024 A 
ATOM     14  C   LIG    1       29.940 -18.933   6.284  0.00  0.00    +0.002 A 
ATOM     15  C   LIG    1       30.905 -19.138   7.270  0.00  0.00    +0.000 A 
ATOM     16  C   LIG    1       30.810 -20.239   8.120  0.00  0.00    +0.002 A 
ATOM     17  C   LIG    1       29.742 -21.129   7.993  0.00  0.00    +0.024 A 
ENDBRANCH  10  12
ENDBRANCH   7  10
ENDBRANCH   3   7
BRANCH   1  19
ATOM     18  C   LIG    1       24.589 -27.191   5.754  0.00  0.00    +0.070 C 
ATOM     19  C   LIG    1       25.255 -26.034   5.616  0.00  0.00    +0.013 C 
BRANCH  18  21
ATOM     20  O   LIG    1       26.428 -28.570   5.144  0.00  0.00    -0.269 OA
ATOM     21  C   LIG    1       25.215 -28.458   5.297  0.00  0.00    +0.259 C 
ATOM     22  N   LIG    1       24.376 -29.504   5.039  0.00  0.00    -0.194 N 
ATOM     23  H   LIG    1       24.816 -30.422   5.013  0.00  0.00    +0.182 HD
BRANCH  22  24
ATOM     24  O   LIG    1       23.027 -29.460   5.435  0.00  0.00    -0.295 OA
ATOM     25  H   LIG    1       22.749 -28.590   5.087  0.00  0.00    +0.241 HD
ENDBRANCH  22  24
ENDBRANCH  18  21
ENDBRANCH   1  19
TORSDOF 6
ENDMDL
MODEL 4
REMARK VINA RESULT:      -9.6      3.694      4.878
REMARK  Name = *****
REMARK                            x       y       z     vdW  Elec       q    Type
REMARK                         _______ _______ _______ _____ _____    ______ ____
ROOT
ATOM      1  C   LIG    1       27.179 -20.523   7.162  0.00  0.00    -0.023 A 
ATOM      2  C   LIG    1       26.268 -21.130   6.294  0.00  0.00    +0.036 A 
ATOM      3  C   LIG    1       25.055 -21.606   6.784  0.00  0.00    +0.109 A 
ATOM      4  C   LIG    1       24.725 -21.461   8.142  0.00  0.00    +0.029 A 
ATOM      5  C   LIG    1       25.636 -20.846   9.006  0.00  0.00    +0.003 A 
ATOM      6  C   LIG    1       26.858 -20.379   8.519  0.00  0.00    +0.008 A 
ENDROOT
BRANCH   3   7
ATOM      7  S   LIG    1       23.876 -22.355   5.676  0.00  0.00    +0.072 S 
ATOM      8  O   LIG    1       23.474 -21.355   4.707  0.00  0.00    -0.150 OA
ATOM      9  O   LIG    1       22.912 -23.071   6.485  0.00  0.00    -0.150 OA
BRANCH   7  10
ATOM     10  N   LIG    1       24.893 -23.442   4.852  0.00  0.00    -0.216 N 
ATOM     11  H   LIG    1       24.496 -23.549   3.920  0.00  0.00    +0.174 HD
BRANCH  10  12
ATOM     12  C   LIG    1       25.029 -24.724   5.487  0.00  0.00    +0.048 A 
ATOM     13  C   LIG    1       25.920 -24.900   6.546  0.00  0.00    +0.024 A 
ATOM     14  C   LIG    1       26.039 -26.155   7.148  0.00  0.00    +0.002 A 
ATOM     15  C   LIG    1       25.282 -27.230   6.682  0.00  0.00    +0.000 A 
ATOM     16  C   LIG    1       24.413 -27.055   5.605  0.00  0.00    +0.002 A 
ATOM     17  C   LIG    1       24.292 -25.802   5.001  0.00  0.00    +0.024 A 
ENDBRANCH  10  12
ENDBRANCH   7  10
ENDBRANCH   3   7
BRANCH   1  19
ATOM     18  C   LIG    1       29.514 -19.856   7.435  0.00  0.00    +0.070 C 
ATOM     19  C   LIG    1       28.445 -20.015   6.639  0.00  0.00    +0.013 C 
BRANCH  18  21
ATOM     20  O   LIG    1       30.744 -18.598   5.834  0.00  0.00    -0.269 OA
ATOM     21  C   LIG    1       30.739 -19.207   6.900  0.00  0.00    +0.259 C 
ATOM     22  N   LIG    1       31.877 -19.325   7.646  0.00  0.00    -0.194 N 
ATOM     23  H   LIG    1       32.612 -18.654   7.432  0.00  0.00    +0.182 HD
BRANCH  22  24
ATOM     24  O   LIG    1       31.826 -19.809   8.966  0.00  0.00    -0.295 OA
ATOM     25  H   LIG    1       30.907 -20.138   9.019  0.00  0.00    +0.241 HD
ENDBRANCH  22  24
ENDBRANCH  18  21
ENDBRANCH   1  19
TORSDOF 6
ENDMDL
MODEL 5
REMARK VINA RESULT:      -9.5      4.161      8.624
REMARK  Name = *****
REMARK                            x       y       z     vdW  Elec       q    Type
REMARK                         _______ _______ _______ _____ _____    ______ ____
ROOT
ATOM      1  C   LIG    1       24.655 -24.877   6.413  0.00  0.00    -0.023 A 
ATOM      2  C   LIG    1       25.562 -23.892   6.814  0.00  0.00    +0.036 A 
ATOM      3  C   LIG    1       25.096 -22.641   7.209  0.00  0.00    +0.109 A 
ATOM      4  C   LIG    1       23.719 -22.365   7.233  0.00  0.00    +0.029 A 
ATOM      5  C   LIG    1       22.815 -23.355   6.839  0.00  0.00    +0.003 A 
ATOM      6  C   LIG    1       23.280 -24.606   6.430  0.00  0.00    +0.008 A 
ENDROOT
BRANCH   3   7
ATOM      7  S   LIG    1       26.245 -21.391   7.750  0.00  0.00    +0.072 S 
ATOM      8  O   LIG    1       26.511 -21.605   9.159  0.00  0.00    -0.150 OA
ATOM      9  O   LIG    1       25.775 -20.119   7.242  0.00  0.00    -0.150 OA
BRANCH   7  10
ATOM     10  N   LIG    1       27.642 -21.890   6.916  0.00  0.00    -0.216 N 
ATOM     11  H   LIG    1       27.888 -22.801   7.298  0.00  0.00    +0.174 HD
BRANCH  10  12
ATOM     12  C   LIG    1       28.752 -20.985   7.024  0.00  0.00    +0.048 A 
ATOM     13  C   LIG    1       29.708 -21.151   8.027  0.00  0.00    +0.024 A 
ATOM     14  C   LIG    1       30.778 -20.258   8.118  0.00  0.00    +0.002 A 
ATOM     15  C   LIG    1       30.882 -19.197   7.218  0.00  0.00    +0.000 A 
ATOM     16  C   LIG    1       29.909 -19.019   6.235  0.00  0.00    +0.002 A 
ATOM     17  C   LIG    1       28.838 -19.909   6.143  0.00  0.00    +0.024 A 
ENDBRANCH  10  12
ENDBRANCH   7  10
ENDBRANCH   3   7
BRANCH   1  19
ATOM     18  C   LIG    1       24.513 -27.316   6.374  0.00  0.00    +0.070 C 
ATOM     19  C   LIG    1       25.150 -26.192   6.010  0.00  0.00    +0.013 C 
BRANCH  18  21
ATOM     20  O   LIG    1       25.038 -29.152   4.954  0.00  0.00    -0.269 OA
ATOM     21  C   LIG    1       25.120 -28.637   6.066  0.00  0.00    +0.259 C 
ATOM     22  N   LIG    1       25.773 -29.270   7.085  0.00  0.00    -0.194 N 
ATOM     23  H   LIG    1       26.417 -30.006   6.802  0.00  0.00    +0.182 HD
BRANCH  22  24
ATOM     24  O   LIG    1       26.075 -28.590   8.279  0.00  0.00    -0.295 OA
ATOM     25  H   LIG    1       26.296 -29.332   8.876  0.00  0.00    +0.241 HD
ENDBRANCH  22  24
ENDBRANCH  18  21
ENDBRANCH   1  19
TORSDOF 6
ENDMDL
MODEL 6
REMARK VINA RESULT:      -9.3      2.145      2.929
REMARK  Name = *****
REMARK                            x       y       z     vdW  Elec       q    Type
REMARK                         _______ _______ _______ _____ _____    ______ ____
ROOT
ATOM      1  C   LIG    1       29.586 -19.034   7.399  0.00  0.00    -0.023 A 
ATOM      2  C   LIG    1       28.622 -19.710   8.153  0.00  0.00    +0.036 A 
ATOM      3  C   LIG    1       27.515 -20.269   7.521  0.00  0.00    +0.109 A 
ATOM      4  C   LIG    1       27.366 -20.181   6.126  0.00  0.00    +0.029 A 
ATOM      5  C   LIG    1       28.336 -19.511   5.375  0.00  0.00    +0.003 A 
ATOM      6  C   LIG    1       29.441 -18.939   6.008  0.00  0.00    +0.008 A 
ENDROOT
BRANCH   3   7
ATOM      7  S   LIG    1       26.298 -21.158   8.472  0.00  0.00    +0.072 S 
ATOM      8  O   LIG    1       25.836 -20.286   9.535  0.00  0.00    -0.150 OA
ATOM      9  O   LIG    1       26.832 -22.477   8.739  0.00  0.00    -0.150 OA
BRANCH   7  10
ATOM     10  N   LIG    1       25.034 -21.240   7.336  0.00  0.00    -0.216 N 
ATOM     11  H   LIG    1       24.240 -20.767   7.762  0.00  0.00    +0.174 HD
BRANCH  10  12
ATOM     12  C   LIG    1       24.673 -22.576   6.949  0.00  0.00    +0.048 A 
ATOM     13  C   LIG    1       23.344 -22.999   7.014  0.00  0.00    +0.024 A 
ATOM     14  C   LIG    1       23.015 -24.302   6.636  0.00  0.00    +0.002 A 
ATOM     15  C   LIG    1       24.010 -25.181   6.209  0.00  0.00    +0.000 A 
ATOM     16  C   LIG    1       25.340 -24.762   6.172  0.00  0.00    +0.002 A 
ATOM     17  C   LIG    1       25.673 -23.460   6.550  0.00  0.00    +0.024 A 
ENDBRANCH  10  12
ENDBRANCH   7  10
ENDBRANCH   3   7
BRANCH   1  19
ATOM     18  C   LIG    1       30.619 -17.508   9.004  0.00  0.00    +0.070 C 
ATOM     19  C   LIG    1       30.752 -18.460   8.068  0.00  0.00    +0.013 C 
BRANCH  18  21
ATOM     20  O   LIG    1       32.516 -16.076   8.898  0.00  0.00    -0.269 OA
ATOM     21  C   LIG    1       31.830 -16.850   9.561  0.00  0.00    +0.259 C 
ATOM     22  N   LIG    1       32.160 -17.153  10.850  0.00  0.00    -0.194 N 
ATOM     23  H   LIG    1       32.793 -16.498  11.305  0.00  0.00    +0.182 HD
BRANCH  22  24
ATOM     24  O   LIG    1       31.259 -17.842  11.682  0.00  0.00    -0.295 OA
ATOM     25  H   LIG    1       31.197 -17.237  12.447  0.00  0.00    +0.241 HD
ENDBRANCH  22  24
ENDBRANCH  18  21
ENDBRANCH   1  19
TORSDOF 6
ENDMDL
MODEL 7
REMARK VINA RESULT:      -9.2      3.131      4.136
REMARK  Name = *****
REMARK                            x       y       z     vdW  Elec       q    Type
REMARK                         _______ _______ _______ _____ _____    ______ ____
ROOT
ATOM      1  C   LIG    1       27.784 -20.214   7.069  0.00  0.00    -0.023 A 
ATOM      2  C   LIG    1       26.509 -20.695   7.376  0.00  0.00    +0.036 A 
ATOM      3  C   LIG    1       25.514 -20.693   6.403  0.00  0.00    +0.109 A 
ATOM      4  C   LIG    1       25.785 -20.234   5.103  0.00  0.00    +0.029 A 
ATOM      5  C   LIG    1       27.064 -19.761   4.797  0.00  0.00    +0.003 A 
ATOM      6  C   LIG    1       28.060 -19.751   5.775  0.00  0.00    +0.008 A 
ENDROOT
BRANCH   3   7
ATOM      7  S   LIG    1       23.894 -21.332   6.781  0.00  0.00    +0.072 S 
ATOM      8  O   LIG    1       23.333 -21.882   5.562  0.00  0.00    -0.150 OA
ATOM      9  O   LIG    1       23.200 -20.328   7.560  0.00  0.00    -0.150 OA
BRANCH   7  10
ATOM     10  N   LIG    1       24.318 -22.660   7.756  0.00  0.00    -0.216 N 
ATOM     11  H   LIG    1       25.121 -22.361   8.307  0.00  0.00    +0.174 HD
BRANCH  10  12
ATOM     12  C   LIG    1       24.631 -23.857   7.024  0.00  0.00    +0.048 A 
ATOM     13  C   LIG    1       25.958 -24.213   6.780  0.00  0.00    +0.024 A 
ATOM     14  C   LIG    1       26.240 -25.378   6.063  0.00  0.00    +0.002 A 
ATOM     15  C   LIG    1       25.200 -26.174   5.582  0.00  0.00    +0.000 A 
ATOM     16  C   LIG    1       23.875 -25.798   5.805  0.00  0.00    +0.002 A 
ATOM     17  C   LIG    1       23.590 -24.634   6.520  0.00  0.00    +0.024 A 
ENDBRANCH  10  12
ENDBRANCH   7  10
ENDBRANCH   3   7
BRANCH   1  19
ATOM     18  C   LIG    1       29.995 -20.860   7.886  0.00  0.00    +0.070 C 
ATOM     19  C   LIG    1       28.828 -20.230   8.092  0.00  0.00    +0.013 C 
BRANCH  18  21
ATOM     20  O   LIG    1       30.979 -21.932   9.768  0.00  0.00    -0.269 OA
ATOM     21  C   LIG    1       30.974 -20.975   8.997  0.00  0.00    +0.259 C 
ATOM     22  N   LIG    1       31.874 -19.958   9.137  0.00  0.00    -0.194 N 
ATOM     23  H   LIG    1       32.699 -20.176   9.692  0.00  0.00    +0.182 HD
BRANCH  22  24
ATOM     24  O   LIG    1       32.028 -18.990   8.128  0.00  0.00    -0.295 OA
ATOM     25  H   LIG    1       32.050 -19.546   7.324  0.00  0.00    +0.241 HD
ENDBRANCH  22  24
ENDBRANCH  18  21
ENDBRANCH   1  19
TORSDOF 6
ENDMDL
MODEL 8
REMARK VINA RESULT:      -9.1      2.636      8.289
REMARK  Name = *****
REMARK                            x       y       z     vdW  Elec       q    Type
REMARK                         _______ _______ _______ _____ _____    ______ ____
ROOT
ATOM      1  C   LIG    1       27.135 -20.326   6.980  0.00  0.00    -0.023 A 
ATOM      2  C   LIG    1       28.184 -20.098   7.875  0.00  0.00    +0.036 A 
ATOM      3  C   LIG    1       29.356 -19.492   7.431  0.00  0.00    +0.109 A 
ATOM      4  C   LIG    1       29.487 -19.082   6.094  0.00  0.00    +0.029 A 
ATOM      5  C   LIG    1       28.433 -19.303   5.203  0.00  0.00    +0.003 A 
ATOM      6  C   LIG    1       27.261 -19.922   5.644  0.00  0.00    +0.008 A 
ENDROOT
BRANCH   3   7
ATOM      7  S   LIG    1       30.686 -19.174   8.575  0.00  0.00    +0.072 S 
ATOM      8  O   LIG    1       31.866 -18.831   7.806  0.00  0.00    -0.150 OA
ATOM      9  O   LIG    1       30.689 -20.247   9.547  0.00  0.00    -0.150 OA
BRANCH   7  10
ATOM     10  N   LIG    1       30.133 -17.727   9.278  0.00  0.00    -0.216 N 
ATOM     11  H   LIG    1       29.829 -17.136   8.507  0.00  0.00    +0.174 HD
BRANCH  10  12
ATOM     12  C   LIG    1       31.113 -17.044  10.076  0.00  0.00    +0.048 A 
ATOM     13  C   LIG    1       32.079 -16.236   9.476  0.00  0.00    +0.024 A 
ATOM     14  C   LIG    1       33.025 -15.583  10.269  0.00  0.00    +0.002 A 
ATOM     15  C   LIG    1       33.013 -15.751  11.654  0.00  0.00    +0.000 A 
ATOM     16  C   LIG    1       32.063 -16.582  12.247  0.00  0.00    +0.002 A 
ATOM     17  C   LIG    1       31.116 -17.236  11.457  0.00  0.00    +0.024 A 
ENDBRANCH  10  12
ENDBRANCH   7  10
ENDBRANCH   3   7
BRANCH   1  19
ATOM     18  C   LIG    1       25.053 -21.548   6.606  0.00  0.00    +0.070 C 
ATOM     19  C   LIG    1       25.904 -20.951   7.456  0.00  0.00    +0.013 C 
BRANCH  18  21
ATOM     20  O   LIG    1       22.982 -21.344   7.760  0.00  0.00    -0.269 OA
ATOM     21  C   LIG    1       23.746 -22.049   7.105  0.00  0.00    +0.259 C 
ATOM     22  N   LIG    1       23.429 -23.344   6.813  0.00  0.00    -0.194 N 
ATOM     23  H   LIG    1       22.442 -23.583   6.898  0.00  0.00    +0.182 HD
BRANCH  22  24
ATOM     24  O   LIG    1       24.178 -24.075   5.874  0.00  0.00    -0.295 OA
ATOM     25  H   LIG    1       23.485 -24.350   5.241  0.00  0.00    +0.241 HD
ENDBRANCH  22  24
ENDBRANCH  18  21
ENDBRANCH   1  19
TORSDOF 6
ENDMDL
MODEL 9
REMARK VINA RESULT:      -9.1      2.843      3.786
REMARK  Name = *****
REMARK                            x       y       z     vdW  Elec       q    Type
REMARK                         _______ _______ _______ _____ _____    ______ ____
ROOT
ATOM      1  C   LIG    1       28.027 -20.014   7.310  0.00  0.00    -0.023 A 
ATOM      2  C   LIG    1       26.775 -20.549   7.628  0.00  0.00    +0.036 A 
ATOM      3  C   LIG    1       25.800 -20.663   6.641  0.00  0.00    +0.109 A 
ATOM      4  C   LIG    1       26.069 -20.268   5.320  0.00  0.00    +0.029 A 
ATOM      5  C   LIG    1       27.325 -19.742   5.004  0.00  0.00    +0.003 A 
ATOM      6  C   LIG    1       28.300 -19.615   5.995  0.00  0.00    +0.008 A 
ENDROOT
BRANCH   3   7
ATOM      7  S   LIG    1       24.212 -21.370   7.034  0.00  0.00    +0.072 S 
ATOM      8  O   LIG    1       23.201 -20.354   6.813  0.00  0.00    -0.150 OA
ATOM      9  O   LIG    1       24.343 -22.060   8.300  0.00  0.00    -0.150 OA
BRANCH   7  10
ATOM     10  N   LIG    1       24.059 -22.484   5.757  0.00  0.00    -0.216 N 
ATOM     11  H   LIG    1       23.068 -22.514   5.524  0.00  0.00    +0.174 HD
BRANCH  10  12
ATOM     12  C   LIG    1       24.541 -23.804   6.061  0.00  0.00    +0.048 A 
ATOM     13  C   LIG    1       25.897 -24.025   6.303  0.00  0.00    +0.024 A 
ATOM     14  C   LIG    1       26.345 -25.316   6.593  0.00  0.00    +0.002 A 
ATOM     15  C   LIG    1       25.443 -26.380   6.626  0.00  0.00    +0.000 A 
ATOM     16  C   LIG    1       24.093 -26.157   6.356  0.00  0.00    +0.002 A 
ATOM     17  C   LIG    1       23.642 -24.869   6.065  0.00  0.00    +0.024 A 
ENDBRANCH  10  12
ENDBRANCH   7  10
ENDBRANCH   3   7
BRANCH   1  19
ATOM     18  C   LIG    1       30.024 -18.987   8.275  0.00  0.00    +0.070 C 
ATOM     19  C   LIG    1       29.050 -19.908   8.348  0.00  0.00    +0.013 C 
BRANCH  18  21
ATOM     20  O   LIG    1       32.084 -19.760   9.178  0.00  0.00    -0.269 OA
ATOM     21  C   LIG    1       31.125 -18.999   9.272  0.00  0.00    +0.259 C 
ATOM     22  N   LIG    1       31.021 -18.128  10.318  0.00  0.00    -0.194 N 
ATOM     23  H   LIG    1       31.888 -17.938  10.817  0.00  0.00    +0.182 HD
BRANCH  22  24
ATOM     24  O   LIG    1       30.061 -17.100  10.306  0.00  0.00    -0.295 OA
ATOM     25  H   LIG    1       29.267 -17.570  10.631  0.00  0.00    +0.241 HD
ENDBRANCH  22  24
ENDBRANCH  18  21
ENDBRANCH   1  19
TORSDOF 6
ENDMDL
