MODEL 1
REMARK VINA RESULT:       0.6      0.000      0.000
REMARK  Name = *****
REMARK                            x       y       z     vdW  Elec       q    Type
REMARK                         _______ _______ _______ _____ _____    ______ ____
ROOT
ATOM      1  O   LIG    1       22.913 -21.347   3.127  0.00  0.00    -0.273 OA
ATOM      2  C   LIG    1       23.533 -20.281   3.153  0.00  0.00    +0.241 C 
ATOM      3  N   LIG    1       23.151 -19.197   3.954  0.00  0.00    -0.269 N 
ATOM      4  C   LIG    1       23.852 -17.949   3.963  0.00  0.00    +0.046 A 
ATOM      5  C   LIG    1       25.258 -17.856   3.887  0.00  0.00    +0.023 A 
ATOM      6  C   LIG    1       25.891 -16.601   3.843  0.00  0.00    +0.032 A 
ATOM      7  C   LIG    1       25.134 -15.436   3.909  0.00  0.00    +0.042 A 
ATOM      8  C   LIG    1       23.752 -15.505   4.004  0.00  0.00    +0.022 A 
ATOM      9 CL   LIG    1       25.915 -13.904   3.877  0.00  0.00    -0.084 Cl
ATOM     10  C   LIG    1       26.137 -19.064   3.865  0.00  0.00    +0.075 C 
ATOM     11  N   LIG    1       25.941 -20.071   3.080  0.00  0.00    -0.273 NA
ATOM     12  C   LIG    1       23.117 -16.751   4.033  0.00  0.00    +0.025 A 
ATOM     13  C   LIG    1       24.741 -20.069   2.249  0.00  0.00    +0.238 C 
ENDROOT
BRANCH  10  14
ATOM     14  C   LIG    1       27.323 -19.133   4.783  0.00  0.00    +0.001 A 
ATOM     15  C   LIG    1       27.368 -20.145   5.753  0.00  0.00    +0.010 A 
ATOM     16  C   LIG    1       28.442 -20.226   6.640  0.00  0.00    +0.001 A 
ATOM     17  C   LIG    1       29.475 -19.294   6.570  0.00  0.00    +0.000 A 
ATOM     18  C   LIG    1       29.430 -18.272   5.620  0.00  0.00    +0.001 A 
ATOM     19  C   LIG    1       28.353 -18.184   4.733  0.00  0.00    +0.010 A 
ENDBRANCH  10  14
BRANCH   3  20
ATOM     20  C   LIG    1       21.969 -19.370   4.806  0.00  0.00    +0.117 C 
BRANCH  20  21
ATOM     21  C   LIG    1       22.350 -19.905   6.161  0.00  0.00    +0.007 C 
ATOM     22  C   LIG    1       22.469 -21.389   6.420  0.00  0.00    +0.005 C 
ATOM     23  C   LIG    1       23.706 -20.540   6.352  0.00  0.00    +0.005 C 
ENDBRANCH  20  21
ENDBRANCH   3  20
TORSDOF 3
ENDMDL
MODEL 2
REMARK VINA RESULT:       1.6      2.388      4.702
REMARK  Name = *****
REMARK                            x       y       z     vdW  Elec       q    Type
REMARK                         _______ _______ _______ _____ _____    ______ ____
ROOT
ATOM      1  O   LIG    1       27.085 -20.767   4.482  0.00  0.00    -0.273 OA
ATOM      2  C   LIG    1       26.004 -20.275   4.152  0.00  0.00    +0.241 C 
ATOM      3  N   LIG    1       24.860 -20.338   4.959  0.00  0.00    -0.269 N 
ATOM      4  C   LIG    1       23.597 -19.794   4.562  0.00  0.00    +0.046 A 
ATOM      5  C   LIG    1       23.469 -18.576   3.860  0.00  0.00    +0.023 A 
ATOM      6  C   LIG    1       22.206 -18.117   3.447  0.00  0.00    +0.032 A 
ATOM      7  C   LIG    1       21.063 -18.845   3.760  0.00  0.00    +0.042 A 
ATOM      8  C   LIG    1       21.164 -20.035   4.467  0.00  0.00    +0.022 A 
ATOM      9 CL   LIG    1       19.519 -18.268   3.271  0.00  0.00    -0.084 Cl
ATOM     10  C   LIG    1       24.647 -17.716   3.534  0.00  0.00    +0.075 C 
ATOM     11  N   LIG    1       25.730 -18.169   2.995  0.00  0.00    -0.273 NA
ATOM     12  C   LIG    1       22.420 -20.503   4.867  0.00  0.00    +0.025 A 
ATOM     13  C   LIG    1       25.843 -19.610   2.790  0.00  0.00    +0.238 C 
ENDROOT
BRANCH  10  14
ATOM     14  C   LIG    1       24.592 -16.245   3.828  0.00  0.00    +0.001 A 
ATOM     15  C   LIG    1       25.716 -15.457   3.542  0.00  0.00    +0.010 A 
ATOM     16  C   LIG    1       25.712 -14.090   3.823  0.00  0.00    +0.001 A 
ATOM     17  C   LIG    1       24.588 -13.503   4.399  0.00  0.00    +0.000 A 
ATOM     18  C   LIG    1       23.471 -14.282   4.704  0.00  0.00    +0.001 A 
ATOM     19  C   LIG    1       23.474 -15.653   4.429  0.00  0.00    +0.010 A 
ENDBRANCH  10  14
BRANCH   3  20
ATOM     20  C   LIG    1       24.986 -21.005   6.259  0.00  0.00    +0.117 C 
BRANCH  20  21
ATOM     21  C   LIG    1       26.119 -20.422   7.061  0.00  0.00    +0.007 C 
ATOM     22  C   LIG    1       27.494 -21.049   7.061  0.00  0.00    +0.005 C 
ATOM     23  C   LIG    1       27.265 -19.749   6.344  0.00  0.00    +0.005 C 
ENDBRANCH  20  21
ENDBRANCH   3  20
TORSDOF 3
ENDMDL
MODEL 3
REMARK VINA RESULT:       1.7      2.885      5.919
REMARK  Name = *****
REMARK                            x       y       z     vdW  Elec       q    Type
REMARK                         _______ _______ _______ _____ _____    ______ ____
ROOT
ATOM      1  O   LIG    1       26.032 -15.741   2.410  0.00  0.00    -0.273 OA
ATOM      2  C   LIG    1       26.452 -16.748   2.986  0.00  0.00    +0.241 C 
ATOM      3  N   LIG    1       27.134 -16.698   4.208  0.00  0.00    -0.269 N 
ATOM      4  C   LIG    1       27.647 -17.863   4.862  0.00  0.00    +0.046 A 
ATOM      5  C   LIG    1       26.961 -19.096   4.888  0.00  0.00    +0.023 A 
ATOM      6  C   LIG    1       27.539 -20.224   5.497  0.00  0.00    +0.032 A 
ATOM      7  C   LIG    1       28.782 -20.123   6.112  0.00  0.00    +0.042 A 
ATOM      8  C   LIG    1       29.465 -18.915   6.116  0.00  0.00    +0.022 A 
ATOM      9 CL   LIG    1       29.475 -21.500   6.875  0.00  0.00    -0.084 Cl
ATOM     10  C   LIG    1       25.601 -19.265   4.293  0.00  0.00    +0.075 C 
ATOM     11  N   LIG    1       25.291 -18.866   3.104  0.00  0.00    -0.273 NA
ATOM     12  C   LIG    1       28.901 -17.795   5.498  0.00  0.00    +0.025 A 
ATOM     13  C   LIG    1       26.293 -18.123   2.347  0.00  0.00    +0.238 C 
ENDROOT
BRANCH  10  14
ATOM     14  C   LIG    1       24.523 -19.939   5.092  0.00  0.00    +0.001 A 
ATOM     15  C   LIG    1       24.866 -20.556   6.303  0.00  0.00    +0.010 A 
ATOM     16  C   LIG    1       23.895 -21.213   7.061  0.00  0.00    +0.001 A 
ATOM     17  C   LIG    1       22.578 -21.264   6.611  0.00  0.00    +0.000 A 
ATOM     18  C   LIG    1       22.231 -20.669   5.397  0.00  0.00    +0.001 A 
ATOM     19  C   LIG    1       23.201 -20.014   4.633  0.00  0.00    +0.010 A 
ENDBRANCH  10  14
BRANCH   3  20
ATOM     20  C   LIG    1       27.327 -15.379   4.821  0.00  0.00    +0.117 C 
BRANCH  20  21
ATOM     21  C   LIG    1       27.847 -14.385   3.816  0.00  0.00    +0.007 C 
ATOM     22  C   LIG    1       27.139 -13.074   3.561  0.00  0.00    +0.005 C 
ATOM     23  C   LIG    1       28.446 -13.086   4.301  0.00  0.00    +0.005 C 
ENDBRANCH  20  21
ENDBRANCH   3  20
TORSDOF 3
ENDMDL
