MODEL 1
REMARK VINA RESULT:      -5.7      0.000      0.000
REMARK  Name = *****
REMARK                            x       y       z     vdW  Elec       q    Type
REMARK                         _______ _______ _______ _____ _____    ______ ____
ROOT
ATOM      1  O   LIG    1       24.651 -28.843  11.840  0.00  0.00    -0.340 OA
ENDROOT
BRANCH   1   7
ATOM      2  C   LIG    1       21.843 -26.582  14.511  0.00  0.00    +0.039 C 
ATOM      3  C   LIG    1       22.425 -27.414  13.364  0.00  0.00    +0.138 C 
ATOM      4  C   LIG    1       21.999 -28.903  13.544  0.00  0.00    +0.114 C 
ATOM      5  C   LIG    1       23.203 -29.732  14.168  0.00  0.00    +0.167 C 
ATOM      6  C   LIG    1       24.485 -28.888  14.351  0.00  0.00    +0.200 C 
ATOM      7  C   LIG    1       24.730 -28.102  13.069  0.00  0.00    +0.282 C 
ATOM      8  O   LIG    1       23.783 -27.044  13.113  0.00  0.00    -0.344 OA
BRANCH   6   9
ATOM      9  O   LIG    1       25.615 -29.667  14.759  0.00  0.00    -0.384 OA
ATOM     10  H   LIG    1       25.901 -29.305  15.621  0.00  0.00    +0.210 HD
ENDBRANCH   6   9
BRANCH   5  11
ATOM     11  O   LIG    1       22.845 -30.185  15.498  0.00  0.00    -0.387 OA
ATOM     12  H   LIG    1       22.008 -30.680  15.399  0.00  0.00    +0.210 HD
ENDBRANCH   5  11
BRANCH   4  13
ATOM     13  N   LIG    1       21.213 -29.446  12.360  0.00  0.00    -0.300 NA
ATOM     14  H   LIG    1       20.555 -28.769  11.986  0.00  0.00    +0.123 HD
BRANCH  13  15
ATOM     15  C   LIG    1       20.640 -30.836  12.489  0.00  0.00    +0.109 C 
ATOM     16  C   LIG    1       21.095 -31.941  11.463  0.00  0.00    +0.166 C 
ATOM     17  C   LIG    1       20.219 -32.156  10.189  0.00  0.00    +0.177 C 
ATOM     18  C   LIG    1       18.818 -31.515  10.246  0.00  0.00    +0.173 C 
ATOM     19  C   LIG    1       18.296 -31.360  11.627  0.00  0.00    -0.016 C 
ATOM     20  C   LIG    1       19.168 -31.000  12.646  0.00  0.00    -0.002 C 
BRANCH  18  21
ATOM     21  O   LIG    1       17.915 -32.336   9.469  0.00  0.00    -0.385 OA
ATOM     22  H   LIG    1       17.292 -31.721   9.026  0.00  0.00    +0.210 HD
ENDBRANCH  18  21
BRANCH  17  23
ATOM     23  O   LIG    1       20.084 -33.588   9.958  0.00  0.00    -0.386 OA
ATOM     24  H   LIG    1       20.937 -33.891   9.587  0.00  0.00    +0.210 HD
ENDBRANCH  17  23
BRANCH  16  25
ATOM     25  O   LIG    1       22.460 -31.803  11.085  0.00  0.00    -0.387 OA
ATOM     26  H   LIG    1       22.829 -32.706  11.069  0.00  0.00    +0.210 HD
ENDBRANCH  16  25
BRANCH  19  27
ATOM     27  C   LIG    1       16.880 -31.619  11.957  0.00  0.00    +0.189 C 
BRANCH  27  28
ATOM     28  O   LIG    1       16.241 -30.381  12.258  0.00  0.00    -0.391 OA
ATOM     29  H   LIG    1       15.319 -30.601  12.477  0.00  0.00    +0.210 HD
ENDBRANCH  27  28
ENDBRANCH  19  27
ENDBRANCH  13  15
ENDBRANCH   4  13
ENDBRANCH   1   7
BRANCH   1  30
ATOM     30  C   LIG    1       25.797 -29.677  11.483  0.00  0.00    +0.183 C 
ATOM     31  C   LIG    1       27.116 -28.879  11.393  0.00  0.00    +0.178 C 
ATOM     32  O   LIG    1       27.283 -28.117  10.173  0.00  0.00    -0.341 OA
ATOM     33  C   LIG    1       26.853 -28.673   8.900  0.00  0.00    +0.282 C 
ATOM     34  C   LIG    1       26.517 -30.166   9.036  0.00  0.00    +0.201 C 
ATOM     35  C   LIG    1       25.465 -30.361  10.135  0.00  0.00    +0.179 C 
BRANCH  35  36
ATOM     36  O   LIG    1       25.267 -31.771  10.343  0.00  0.00    -0.386 OA
ATOM     37  H   LIG    1       24.304 -31.915  10.441  0.00  0.00    +0.210 HD
ENDBRANCH  35  36
BRANCH  34  38
ATOM     38  O   LIG    1       26.105 -30.800   7.821  0.00  0.00    -0.384 OA
ATOM     39  H   LIG    1       26.872 -31.266   7.450  0.00  0.00    +0.210 HD
ENDBRANCH  34  38
BRANCH  31  40
ATOM     40  C   LIG    1       28.358 -29.717  11.824  0.00  0.00    +0.190 C 
BRANCH  40  41
ATOM     41  O   LIG    1       29.607 -29.065  11.706  0.00  0.00    -0.392 OA
ATOM     42  H   LIG    1       29.901 -28.833  12.605  0.00  0.00    +0.209 HD
ENDBRANCH  40  41
ENDBRANCH  31  40
BRANCH  33  43
ATOM     43  O   LIG    1       25.767 -27.876   8.336  0.00  0.00    -0.340 OA
BRANCH  43  44
ATOM     44  C   LIG    1       26.001 -27.081   7.121  0.00  0.00    +0.183 C 
ATOM     45  C   LIG    1       24.738 -26.364   6.576  0.00  0.00    +0.178 C 
ATOM     46  O   LIG    1       23.727 -27.269   6.091  0.00  0.00    -0.341 OA
ATOM     47  C   LIG    1       24.135 -28.626   5.959  0.00  0.00    +0.279 C 
ATOM     48  C   LIG    1       25.481 -28.766   5.239  0.00  0.00    +0.201 C 
ATOM     49  C   LIG    1       26.576 -28.006   6.002  0.00  0.00    +0.179 C 
BRANCH  49  50
ATOM     50  O   LIG    1       27.345 -27.237   5.053  0.00  0.00    -0.386 OA
ATOM     51  H   LIG    1       28.246 -27.614   5.045  0.00  0.00    +0.210 HD
ENDBRANCH  49  50
BRANCH  48  52
ATOM     52  O   LIG    1       25.880 -30.143   5.113  0.00  0.00    -0.384 OA
ATOM     53  H   LIG    1       26.004 -30.302   4.156  0.00  0.00    +0.210 HD
ENDBRANCH  48  52
BRANCH  47  54
ATOM     54  O   LIG    1       23.154 -29.309   5.183  0.00  0.00    -0.365 OA
ATOM     55  H   LIG    1       23.635 -30.059   4.790  0.00  0.00    +0.213 HD
ENDBRANCH  47  54
BRANCH  45  56
ATOM     56  C   LIG    1       25.038 -25.313   5.475  0.00  0.00    +0.190 C 
BRANCH  56  57
ATOM     57  O   LIG    1       26.166 -24.514   5.817  0.00  0.00    -0.392 OA
ATOM     58  H   LIG    1       26.417 -24.011   5.020  0.00  0.00    +0.209 HD
ENDBRANCH  56  57
ENDBRANCH  45  56
ENDBRANCH  43  44
ENDBRANCH  33  43
ENDBRANCH   1  30
TORSDOF 22
ENDMDL
MODEL 2
REMARK VINA RESULT:      -5.7      2.303      8.075
REMARK  Name = *****
REMARK                            x       y       z     vdW  Elec       q    Type
REMARK                         _______ _______ _______ _____ _____    ______ ____
ROOT
ATOM      1  O   LIG    1       23.276 -30.226   8.921  0.00  0.00    -0.340 OA
ENDROOT
BRANCH   1   7
ATOM      2  C   LIG    1       25.784 -30.092   5.204  0.00  0.00    +0.039 C 
ATOM      3  C   LIG    1       24.721 -29.798   6.267  0.00  0.00    +0.138 C 
ATOM      4  C   LIG    1       25.104 -28.491   7.027  0.00  0.00    +0.114 C 
ATOM      5  C   LIG    1       25.765 -28.860   8.424  0.00  0.00    +0.167 C 
ATOM      6  C   LIG    1       25.778 -30.381   8.702  0.00  0.00    +0.200 C 
ATOM      7  C   LIG    1       24.398 -30.940   8.380  0.00  0.00    +0.282 C 
ATOM      8  O   LIG    1       24.359 -30.995   6.960  0.00  0.00    -0.344 OA
BRANCH   6   9
ATOM      9  O   LIG    1       26.222 -30.704  10.025  0.00  0.00    -0.384 OA
ATOM     10  H   LIG    1       25.862 -30.009  10.612  0.00  0.00    +0.210 HD
ENDBRANCH   6   9
BRANCH   5  11
ATOM     11  O   LIG    1       27.156 -28.454   8.427  0.00  0.00    -0.387 OA
ATOM     12  H   LIG    1       27.215 -27.683   7.828  0.00  0.00    +0.210 HD
ENDBRANCH   5  11
BRANCH   4  13
ATOM     13  N   LIG    1       24.036 -27.412   6.932  0.00  0.00    -0.300 NA
ATOM     14  H   LIG    1       23.103 -27.796   6.819  0.00  0.00    +0.123 HD
BRANCH  13  15
ATOM     15  C   LIG    1       24.319 -26.238   6.026  0.00  0.00    +0.109 C 
ATOM     16  C   LIG    1       25.773 -25.637   5.997  0.00  0.00    +0.166 C 
ATOM     17  C   LIG    1       26.083 -24.437   6.946  0.00  0.00    +0.177 C 
ATOM     18  C   LIG    1       24.844 -23.744   7.547  0.00  0.00    +0.173 C 
ATOM     19  C   LIG    1       23.628 -23.877   6.706  0.00  0.00    -0.016 C 
ATOM     20  C   LIG    1       23.390 -25.073   6.041  0.00  0.00    -0.002 C 
BRANCH  18  21
ATOM     21  O   LIG    1       25.158 -22.344   7.738  0.00  0.00    -0.385 OA
ATOM     22  H   LIG    1       25.453 -22.005   6.865  0.00  0.00    +0.210 HD
ENDBRANCH  18  21
BRANCH  17  23
ATOM     23  O   LIG    1       26.872 -23.457   6.210  0.00  0.00    -0.386 OA
ATOM     24  H   LIG    1       27.307 -22.892   6.879  0.00  0.00    +0.210 HD
ENDBRANCH  17  23
BRANCH  16  25
ATOM     25  O   LIG    1       26.777 -26.634   6.146  0.00  0.00    -0.387 OA
ATOM     26  H   LIG    1       26.685 -27.227   5.378  0.00  0.00    +0.210 HD
ENDBRANCH  16  25
BRANCH  19  27
ATOM     27  C   LIG    1       22.682 -22.758   6.522  0.00  0.00    +0.189 C 
BRANCH  27  28
ATOM     28  O   LIG    1       23.148 -21.928   5.459  0.00  0.00    -0.391 OA
ATOM     29  H   LIG    1       24.084 -21.746   5.652  0.00  0.00    +0.210 HD
ENDBRANCH  27  28
ENDBRANCH  19  27
ENDBRANCH  13  15
ENDBRANCH   4  13
ENDBRANCH   1   7
BRANCH   1  30
ATOM     30  C   LIG    1       22.464 -30.910   9.927  0.00  0.00    +0.183 C 
ATOM     31  C   LIG    1       21.789 -29.937  10.917  0.00  0.00    +0.178 C 
ATOM     32  O   LIG    1       22.658 -29.428  11.957  0.00  0.00    -0.341 OA
ATOM     33  C   LIG    1       23.641 -30.300  12.580  0.00  0.00    +0.282 C 
ATOM     34  C   LIG    1       23.400 -31.766  12.193  0.00  0.00    +0.201 C 
ATOM     35  C   LIG    1       23.392 -31.905  10.666  0.00  0.00    +0.179 C 
BRANCH  35  36
ATOM     36  O   LIG    1       23.027 -33.254  10.323  0.00  0.00    -0.386 OA
ATOM     37  H   LIG    1       22.051 -33.278  10.254  0.00  0.00    +0.210 HD
ENDBRANCH  35  36
BRANCH  34  38
ATOM     38  O   LIG    1       24.311 -32.699  12.782  0.00  0.00    -0.384 OA
ATOM     39  H   LIG    1       24.493 -33.396  12.131  0.00  0.00    +0.210 HD
ENDBRANCH  34  38
BRANCH  31  40
ATOM     40  C   LIG    1       20.399 -30.445  11.408  0.00  0.00    +0.190 C 
BRANCH  40  41
ATOM     41  O   LIG    1       19.374 -30.461  10.434  0.00  0.00    -0.392 OA
ATOM     42  H   LIG    1       19.365 -31.350  10.036  0.00  0.00    +0.209 HD
ENDBRANCH  40  41
ENDBRANCH  31  40
BRANCH  33  43
ATOM     43  O   LIG    1       24.994 -29.832  12.290  0.00  0.00    -0.340 OA
BRANCH  43  44
ATOM     44  C   LIG    1       25.519 -28.645  12.983  0.00  0.00    +0.183 C 
ATOM     45  C   LIG    1       26.254 -27.642  12.057  0.00  0.00    +0.178 C 
ATOM     46  O   LIG    1       27.475 -28.164  11.496  0.00  0.00    -0.341 OA
ATOM     47  C   LIG    1       27.932 -29.387  12.060  0.00  0.00    +0.279 C 
ATOM     48  C   LIG    1       27.919 -29.369  13.593  0.00  0.00    +0.201 C 
ATOM     49  C   LIG    1       26.499 -29.099  14.111  0.00  0.00    +0.179 C 
BRANCH  49  50
ATOM     50  O   LIG    1       26.573 -28.099  15.150  0.00  0.00    -0.386 OA
ATOM     51  H   LIG    1       27.512 -27.843  15.232  0.00  0.00    +0.210 HD
ENDBRANCH  49  50
BRANCH  48  52
ATOM     52  O   LIG    1       28.382 -30.613  14.148  0.00  0.00    -0.384 OA
ATOM     53  H   LIG    1       29.035 -30.375  14.836  0.00  0.00    +0.210 HD
ENDBRANCH  48  52
BRANCH  47  54
ATOM     54  O   LIG    1       29.277 -29.594  11.640  0.00  0.00    -0.365 OA
ATOM     55  H   LIG    1       29.418 -28.931  10.942  0.00  0.00    +0.213 HD
ENDBRANCH  47  54
BRANCH  45  56
ATOM     56  C   LIG    1       26.556 -26.275  12.727  0.00  0.00    +0.190 C 
BRANCH  56  57
ATOM     57  O   LIG    1       25.433 -25.801  13.464  0.00  0.00    -0.392 OA
ATOM     58  H   LIG    1       24.771 -25.493  12.817  0.00  0.00    +0.209 HD
ENDBRANCH  56  57
ENDBRANCH  45  56
ENDBRANCH  43  44
ENDBRANCH  33  43
ENDBRANCH   1  30
TORSDOF 22
ENDMDL
MODEL 3
REMARK VINA RESULT:      -5.7      2.165      7.840
REMARK  Name = *****
REMARK                            x       y       z     vdW  Elec       q    Type
REMARK                         _______ _______ _______ _____ _____    ______ ____
ROOT
ATOM      1  O   LIG    1       24.018 -31.717  10.373  0.00  0.00    -0.340 OA
ENDROOT
BRANCH   1   7
ATOM      2  C   LIG    1       23.653 -32.809   6.037  0.00  0.00    +0.039 C 
ATOM      3  C   LIG    1       23.641 -32.040   7.361  0.00  0.00    +0.138 C 
ATOM      4  C   LIG    1       24.864 -31.074   7.405  0.00  0.00    +0.114 C 
ATOM      5  C   LIG    1       26.016 -31.711   8.295  0.00  0.00    +0.167 C 
ATOM      6  C   LIG    1       25.603 -33.052   8.945  0.00  0.00    +0.200 C 
ATOM      7  C   LIG    1       24.219 -32.884   9.558  0.00  0.00    +0.282 C 
ATOM      8  O   LIG    1       23.332 -32.915   8.448  0.00  0.00    -0.344 OA
BRANCH   6   9
ATOM      9  O   LIG    1       26.575 -33.546   9.875  0.00  0.00    -0.384 OA
ATOM     10  H   LIG    1       26.755 -34.472   9.618  0.00  0.00    +0.210 HD
ENDBRANCH   6   9
BRANCH   5  11
ATOM     11  O   LIG    1       27.161 -32.021   7.463  0.00  0.00    -0.387 OA
ATOM     12  H   LIG    1       27.582 -31.164   7.250  0.00  0.00    +0.210 HD
ENDBRANCH   5  11
BRANCH   4  13
ATOM     13  N   LIG    1       24.467 -29.616   7.574  0.00  0.00    -0.300 NA
ATOM     14  H   LIG    1       23.690 -29.495   8.217  0.00  0.00    +0.123 HD
BRANCH  13  15
ATOM     15  C   LIG    1       24.347 -28.782   6.321  0.00  0.00    +0.109 C 
ATOM     16  C   LIG    1       25.567 -28.729   5.327  0.00  0.00    +0.166 C 
ATOM     17  C   LIG    1       26.592 -27.564   5.496  0.00  0.00    +0.177 C 
ATOM     18  C   LIG    1       26.112 -26.397   6.383  0.00  0.00    +0.173 C 
ATOM     19  C   LIG    1       24.636 -26.248   6.414  0.00  0.00    -0.016 C 
ATOM     20  C   LIG    1       23.839 -27.386   6.428  0.00  0.00    -0.002 C 
BRANCH  18  21
ATOM     21  O   LIG    1       26.718 -25.178   5.891  0.00  0.00    -0.385 OA
ATOM     22  H   LIG    1       27.549 -25.058   6.398  0.00  0.00    +0.210 HD
ENDBRANCH  18  21
BRANCH  17  23
ATOM     23  O   LIG    1       26.933 -27.054   4.174  0.00  0.00    -0.386 OA
ATOM     24  H   LIG    1       27.803 -27.439   3.945  0.00  0.00    +0.210 HD
ENDBRANCH  17  23
BRANCH  16  25
ATOM     25  O   LIG    1       26.262 -29.968   5.252  0.00  0.00    -0.387 OA
ATOM     26  H   LIG    1       25.894 -30.528   5.961  0.00  0.00    +0.210 HD
ENDBRANCH  16  25
BRANCH  19  27
ATOM     27  C   LIG    1       23.986 -24.922   6.390  0.00  0.00    +0.189 C 
BRANCH  27  28
ATOM     28  O   LIG    1       24.271 -24.290   5.144  0.00  0.00    -0.391 OA
ATOM     29  H   LIG    1       23.776 -24.788   4.472  0.00  0.00    +0.210 HD
ENDBRANCH  27  28
ENDBRANCH  19  27
ENDBRANCH  13  15
ENDBRANCH   4  13
ENDBRANCH   1   7
BRANCH   1  30
ATOM     30  C   LIG    1       22.825 -31.685  11.218  0.00  0.00    +0.183 C 
ATOM     31  C   LIG    1       22.143 -30.300  11.240  0.00  0.00    +0.178 C 
ATOM     32  O   LIG    1       22.782 -29.322  12.096  0.00  0.00    -0.341 OA
ATOM     33  C   LIG    1       23.326 -29.722  13.384  0.00  0.00    +0.282 C 
ATOM     34  C   LIG    1       22.872 -31.140  13.757  0.00  0.00    +0.201 C 
ATOM     35  C   LIG    1       23.258 -32.118  12.640  0.00  0.00    +0.179 C 
BRANCH  35  36
ATOM     36  O   LIG    1       22.703 -33.411  12.942  0.00  0.00    -0.386 OA
ATOM     37  H   LIG    1       22.774 -33.951  12.129  0.00  0.00    +0.210 HD
ENDBRANCH  35  36
BRANCH  34  38
ATOM     38  O   LIG    1       23.346 -31.607  15.024  0.00  0.00    -0.384 OA
ATOM     39  H   LIG    1       24.059 -32.245  14.864  0.00  0.00    +0.210 HD
ENDBRANCH  34  38
BRANCH  31  40
ATOM     40  C   LIG    1       20.593 -30.394  11.387  0.00  0.00    +0.190 C 
BRANCH  40  41
ATOM     41  O   LIG    1       19.863 -30.408  10.177  0.00  0.00    -0.392 OA
ATOM     42  H   LIG    1       18.963 -30.717  10.382  0.00  0.00    +0.209 HD
ENDBRANCH  40  41
ENDBRANCH  31  40
BRANCH  33  43
ATOM     43  O   LIG    1       24.776 -29.546  13.401  0.00  0.00    -0.340 OA
BRANCH  43  44
ATOM     44  C   LIG    1       25.404 -28.577  12.488  0.00  0.00    +0.183 C 
ATOM     45  C   LIG    1       26.235 -29.222  11.349  0.00  0.00    +0.178 C 
ATOM     46  O   LIG    1       27.406 -29.921  11.816  0.00  0.00    -0.341 OA
ATOM     47  C   LIG    1       27.743 -29.703  13.181  0.00  0.00    +0.279 C 
ATOM     48  C   LIG    1       27.722 -28.218  13.561  0.00  0.00    +0.201 C 
ATOM     49  C   LIG    1       26.329 -27.623  13.308  0.00  0.00    +0.179 C 
BRANCH  49  50
ATOM     50  O   LIG    1       26.488 -26.361  12.624  0.00  0.00    -0.386 OA
ATOM     51  H   LIG    1       27.268 -25.922  13.015  0.00  0.00    +0.210 HD
ENDBRANCH  49  50
BRANCH  48  52
ATOM     52  O   LIG    1       28.064 -28.014  14.944  0.00  0.00    -0.384 OA
ATOM     53  H   LIG    1       27.946 -28.880  15.382  0.00  0.00    +0.210 HD
ENDBRANCH  48  52
BRANCH  47  54
ATOM     54  O   LIG    1       29.067 -30.187  13.392  0.00  0.00    -0.365 OA
ATOM     55  H   LIG    1       29.216 -30.814  12.663  0.00  0.00    +0.213 HD
ENDBRANCH  47  54
BRANCH  45  56
ATOM     56  C   LIG    1       26.657 -28.226  10.238  0.00  0.00    +0.190 C 
BRANCH  56  57
ATOM     57  O   LIG    1       27.183 -28.908   9.104  0.00  0.00    -0.392 OA
ATOM     58  H   LIG    1       26.802 -29.806   9.104  0.00  0.00    +0.209 HD
ENDBRANCH  56  57
ENDBRANCH  45  56
ENDBRANCH  43  44
ENDBRANCH  33  43
ENDBRANCH   1  30
TORSDOF 22
ENDMDL
MODEL 4
REMARK VINA RESULT:      -5.5      2.307      7.747
REMARK  Name = *****
REMARK                            x       y       z     vdW  Elec       q    Type
REMARK                         _______ _______ _______ _____ _____    ______ ____
ROOT
ATOM      1  O   LIG    1       22.643 -31.291   9.500  0.00  0.00    -0.340 OA
ENDROOT
BRANCH   1   7
ATOM      2  C   LIG    1       24.416 -32.929   5.717  0.00  0.00    +0.039 C 
ATOM      3  C   LIG    1       23.647 -32.066   6.723  0.00  0.00    +0.138 C 
ATOM      4  C   LIG    1       24.425 -30.736   6.958  0.00  0.00    +0.114 C 
ATOM      5  C   LIG    1       25.233 -30.824   8.324  0.00  0.00    +0.167 C 
ATOM      6  C   LIG    1       24.977 -32.141   9.092  0.00  0.00    +0.200 C 
ATOM      7  C   LIG    1       23.476 -32.398   9.118  0.00  0.00    +0.282 C 
ATOM      8  O   LIG    1       23.172 -32.864   7.810  0.00  0.00    -0.344 OA
BRANCH   6   9
ATOM      9  O   LIG    1       25.573 -32.155  10.394  0.00  0.00    -0.384 OA
ATOM     10  H   LIG    1       25.224 -32.948  10.847  0.00  0.00    +0.210 HD
ENDBRANCH   6   9
BRANCH   5  11
ATOM     11  O   LIG    1       26.657 -30.808   8.049  0.00  0.00    -0.387 OA
ATOM     12  H   LIG    1       26.926 -29.868   8.073  0.00  0.00    +0.210 HD
ENDBRANCH   5  11
BRANCH   4  13
ATOM     13  N   LIG    1       23.608 -29.499   6.617  0.00  0.00    -0.300 NA
ATOM     14  H   LIG    1       22.617 -29.700   6.523  0.00  0.00    +0.123 HD
BRANCH  13  15
ATOM     15  C   LIG    1       24.145 -28.593   5.535  0.00  0.00    +0.109 C 
ATOM     16  C   LIG    1       25.685 -28.634   5.208  0.00  0.00    +0.166 C 
ATOM     17  C   LIG    1       26.609 -27.608   5.936  0.00  0.00    +0.177 C 
ATOM     18  C   LIG    1       25.874 -26.441   6.624  0.00  0.00    +0.173 C 
ATOM     19  C   LIG    1       24.565 -26.120   6.001  0.00  0.00    -0.016 C 
ATOM     20  C   LIG    1       23.761 -27.154   5.540  0.00  0.00    -0.002 C 
BRANCH  18  21
ATOM     21  O   LIG    1       26.735 -25.278   6.582  0.00  0.00    -0.385 OA
ATOM     22  H   LIG    1       27.571 -25.537   7.026  0.00  0.00    +0.210 HD
ENDBRANCH  18  21
BRANCH  17  23
ATOM     23  O   LIG    1       27.559 -27.075   4.968  0.00  0.00    -0.386 OA
ATOM     24  H   LIG    1       28.413 -27.518   5.146  0.00  0.00    +0.210 HD
ENDBRANCH  17  23
BRANCH  16  25
ATOM     25  O   LIG    1       26.233 -29.941   5.331  0.00  0.00    -0.387 OA
ATOM     26  H   LIG    1       25.874 -30.308   6.160  0.00  0.00    +0.210 HD
ENDBRANCH  16  25
BRANCH  19  27
ATOM     27  C   LIG    1       24.110 -24.727   5.819  0.00  0.00    +0.189 C 
BRANCH  27  28
ATOM     28  O   LIG    1       24.845 -24.135   4.751  0.00  0.00    -0.391 OA
ATOM     29  H   LIG    1       25.610 -23.696   5.163  0.00  0.00    +0.210 HD
ENDBRANCH  27  28
ENDBRANCH  19  27
ENDBRANCH  13  15
ENDBRANCH   4  13
ENDBRANCH   1   7
BRANCH   1  30
ATOM     30  C   LIG    1       21.811 -31.455  10.690  0.00  0.00    +0.183 C 
ATOM     31  C   LIG    1       21.503 -30.116  11.396  0.00  0.00    +0.178 C 
ATOM     32  O   LIG    1       22.580 -29.599  12.214  0.00  0.00    -0.341 OA
ATOM     33  C   LIG    1       23.391 -30.503  13.013  0.00  0.00    +0.282 C 
ATOM     34  C   LIG    1       22.765 -31.905  13.064  0.00  0.00    +0.201 C 
ATOM     35  C   LIG    1       22.553 -32.429  11.638  0.00  0.00    +0.179 C 
BRANCH  35  36
ATOM     36  O   LIG    1       21.840 -33.677  11.703  0.00  0.00    -0.386 OA
ATOM     37  H   LIG    1       20.937 -33.511  11.366  0.00  0.00    +0.210 HD
ENDBRANCH  35  36
BRANCH  34  38
ATOM     38  O   LIG    1       23.488 -32.856  13.851  0.00  0.00    -0.384 OA
ATOM     39  H   LIG    1       23.598 -32.488  14.743  0.00  0.00    +0.210 HD
ENDBRANCH  34  38
BRANCH  31  40
ATOM     40  C   LIG    1       20.097 -30.100  12.069  0.00  0.00    +0.190 C 
BRANCH  40  41
ATOM     41  O   LIG    1       19.895 -29.093  13.040  0.00  0.00    -0.392 OA
ATOM     42  H   LIG    1       20.697 -28.541  13.060  0.00  0.00    +0.209 HD
ENDBRANCH  40  41
ENDBRANCH  31  40
BRANCH  33  43
ATOM     43  O   LIG    1       24.775 -30.496  12.546  0.00  0.00    -0.340 OA
BRANCH  43  44
ATOM     44  C   LIG    1       25.780 -29.689  13.257  0.00  0.00    +0.183 C 
ATOM     45  C   LIG    1       25.631 -28.160  13.047  0.00  0.00    +0.178 C 
ATOM     46  O   LIG    1       25.884 -27.737  11.692  0.00  0.00    -0.341 OA
ATOM     47  C   LIG    1       26.458 -28.724  10.842  0.00  0.00    +0.279 C 
ATOM     48  C   LIG    1       27.646 -29.441  11.494  0.00  0.00    +0.201 C 
ATOM     49  C   LIG    1       27.207 -30.124  12.798  0.00  0.00    +0.179 C 
BRANCH  49  50
ATOM     50  O   LIG    1       28.181 -29.826  13.822  0.00  0.00    -0.386 OA
ATOM     51  H   LIG    1       27.730 -29.275  14.491  0.00  0.00    +0.210 HD
ENDBRANCH  49  50
BRANCH  48  52
ATOM     52  O   LIG    1       28.216 -30.435  10.624  0.00  0.00    -0.384 OA
ATOM     53  H   LIG    1       29.174 -30.245  10.588  0.00  0.00    +0.210 HD
ENDBRANCH  48  52
BRANCH  47  54
ATOM     54  O   LIG    1       26.936 -28.073   9.668  0.00  0.00    -0.365 OA
ATOM     55  H   LIG    1       26.577 -28.603   8.934  0.00  0.00    +0.213 HD
ENDBRANCH  47  54
BRANCH  45  56
ATOM     56  C   LIG    1       26.501 -27.306  14.007  0.00  0.00    +0.190 C 
BRANCH  56  57
ATOM     57  O   LIG    1       27.382 -26.452  13.285  0.00  0.00    -0.392 OA
ATOM     58  H   LIG    1       26.937 -26.216  12.450  0.00  0.00    +0.209 HD
ENDBRANCH  56  57
ENDBRANCH  45  56
ENDBRANCH  43  44
ENDBRANCH  33  43
ENDBRANCH   1  30
TORSDOF 22
ENDMDL
MODEL 5
REMARK VINA RESULT:      -5.1      2.171      8.020
REMARK  Name = *****
REMARK                            x       y       z     vdW  Elec       q    Type
REMARK                         _______ _______ _______ _____ _____    ______ ____
ROOT
ATOM      1  O   LIG    1       23.840 -31.999   9.929  0.00  0.00    -0.340 OA
ENDROOT
BRANCH   1   7
ATOM      2  C   LIG    1       23.715 -33.171   5.600  0.00  0.00    +0.039 C 
ATOM      3  C   LIG    1       23.574 -32.397   6.914  0.00  0.00    +0.138 C 
ATOM      4  C   LIG    1       24.661 -31.281   6.971  0.00  0.00    +0.114 C 
ATOM      5  C   LIG    1       25.865 -31.754   7.893  0.00  0.00    +0.167 C 
ATOM      6  C   LIG    1       25.616 -33.131   8.551  0.00  0.00    +0.200 C 
ATOM      7  C   LIG    1       24.208 -33.137   9.133  0.00  0.00    +0.282 C 
ATOM      8  O   LIG    1       23.357 -33.295   8.005  0.00  0.00    -0.344 OA
BRANCH   6   9
ATOM      9  O   LIG    1       26.622 -33.485   9.507  0.00  0.00    -0.384 OA
ATOM     10  H   LIG    1       26.311 -33.146  10.370  0.00  0.00    +0.210 HD
ENDBRANCH   6   9
BRANCH   5  11
ATOM     11  O   LIG    1       27.059 -31.921   7.088  0.00  0.00    -0.387 OA
ATOM     12  H   LIG    1       27.158 -32.884   6.946  0.00  0.00    +0.210 HD
ENDBRANCH   5  11
BRANCH   4  13
ATOM     13  N   LIG    1       24.074 -29.884   7.114  0.00  0.00    -0.300 NA
ATOM     14  H   LIG    1       23.146 -29.892   7.526  0.00  0.00    +0.123 HD
BRANCH  13  15
ATOM     15  C   LIG    1       24.201 -28.957   5.929  0.00  0.00    +0.109 C 
ATOM     16  C   LIG    1       25.574 -28.892   5.162  0.00  0.00    +0.166 C 
ATOM     17  C   LIG    1       26.597 -27.794   5.594  0.00  0.00    +0.177 C 
ATOM     18  C   LIG    1       26.015 -26.673   6.478  0.00  0.00    +0.173 C 
ATOM     19  C   LIG    1       24.562 -26.454   6.272  0.00  0.00    -0.016 C 
ATOM     20  C   LIG    1       23.734 -27.549   6.061  0.00  0.00    -0.002 C 
BRANCH  18  21
ATOM     21  O   LIG    1       26.741 -25.453   6.194  0.00  0.00    -0.385 OA
ATOM     22  H   LIG    1       27.622 -25.551   6.613  0.00  0.00    +0.210 HD
ENDBRANCH  18  21
BRANCH  17  23
ATOM     23  O   LIG    1       27.178 -27.207   4.393  0.00  0.00    -0.386 OA
ATOM     24  H   LIG    1       26.881 -26.275   4.368  0.00  0.00    +0.210 HD
ENDBRANCH  17  23
BRANCH  16  25
ATOM     25  O   LIG    1       26.227 -30.155   5.106  0.00  0.00    -0.387 OA
ATOM     26  H   LIG    1       26.053 -30.509   4.214  0.00  0.00    +0.210 HD
ENDBRANCH  16  25
BRANCH  19  27
ATOM     27  C   LIG    1       23.974 -25.099   6.246  0.00  0.00    +0.189 C 
BRANCH  27  28
ATOM     28  O   LIG    1       24.473 -24.401   5.106  0.00  0.00    -0.391 OA
ATOM     29  H   LIG    1       25.419 -24.620   5.051  0.00  0.00    +0.210 HD
ENDBRANCH  27  28
ENDBRANCH  19  27
ENDBRANCH  13  15
ENDBRANCH   4  13
ENDBRANCH   1   7
BRANCH   1  30
ATOM     30  C   LIG    1       22.596 -32.087  10.692  0.00  0.00    +0.183 C 
ATOM     31  C   LIG    1       21.600 -30.957  10.348  0.00  0.00    +0.178 C 
ATOM     32  O   LIG    1       21.895 -29.680  10.965  0.00  0.00    -0.341 OA
ATOM     33  C   LIG    1       22.387 -29.624  12.332  0.00  0.00    +0.282 C 
ATOM     34  C   LIG    1       22.253 -30.990  13.021  0.00  0.00    +0.201 C 
ATOM     35  C   LIG    1       22.974 -32.061  12.193  0.00  0.00    +0.179 C 
BRANCH  35  36
ATOM     36  O   LIG    1       22.720 -33.350  12.778  0.00  0.00    -0.386 OA
ATOM     37  H   LIG    1       21.780 -33.562  12.611  0.00  0.00    +0.210 HD
ENDBRANCH  35  36
BRANCH  34  38
ATOM     38  O   LIG    1       22.695 -31.020  14.382  0.00  0.00    -0.384 OA
ATOM     39  H   LIG    1       22.455 -31.882  14.758  0.00  0.00    +0.210 HD
ENDBRANCH  34  38
BRANCH  31  40
ATOM     40  C   LIG    1       20.113 -31.413  10.451  0.00  0.00    +0.190 C 
BRANCH  40  41
ATOM     41  O   LIG    1       19.157 -30.503   9.943  0.00  0.00    -0.392 OA
ATOM     42  H   LIG    1       18.798 -30.885   9.123  0.00  0.00    +0.209 HD
ENDBRANCH  40  41
ENDBRANCH  31  40
BRANCH  33  43
ATOM     43  O   LIG    1       23.742 -29.081  12.364  0.00  0.00    -0.340 OA
BRANCH  43  44
ATOM     44  C   LIG    1       24.886 -29.987  12.550  0.00  0.00    +0.183 C 
ATOM     45  C   LIG    1       25.729 -29.696  13.819  0.00  0.00    +0.178 C 
ATOM     46  O   LIG    1       26.417 -28.430  13.776  0.00  0.00    -0.341 OA
ATOM     47  C   LIG    1       26.418 -27.779  12.511  0.00  0.00    +0.279 C 
ATOM     48  C   LIG    1       26.798 -28.724  11.365  0.00  0.00    +0.201 C 
ATOM     49  C   LIG    1       25.817 -29.903  11.298  0.00  0.00    +0.179 C 
BRANCH  49  50
ATOM     50  O   LIG    1       26.576 -31.123  11.149  0.00  0.00    -0.386 OA
ATOM     51  H   LIG    1       26.868 -31.386  12.043  0.00  0.00    +0.210 HD
ENDBRANCH  49  50
BRANCH  48  52
ATOM     52  O   LIG    1       26.795 -28.051  10.092  0.00  0.00    -0.384 OA
ATOM     53  H   LIG    1       26.098 -28.484   9.560  0.00  0.00    +0.210 HD
ENDBRANCH  48  52
BRANCH  47  54
ATOM     54  O   LIG    1       27.387 -26.735  12.551  0.00  0.00    -0.365 OA
ATOM     55  H   LIG    1       27.974 -26.919  11.798  0.00  0.00    +0.213 HD
ENDBRANCH  47  54
BRANCH  45  56
ATOM     56  C   LIG    1       26.753 -30.810  14.162  0.00  0.00    +0.190 C 
BRANCH  56  57
ATOM     57  O   LIG    1       26.233 -32.101  13.859  0.00  0.00    -0.392 OA
ATOM     58  H   LIG    1       26.559 -32.713  14.546  0.00  0.00    +0.209 HD
ENDBRANCH  56  57
ENDBRANCH  45  56
ENDBRANCH  43  44
ENDBRANCH  33  43
ENDBRANCH   1  30
TORSDOF 22
ENDMDL
MODEL 6
REMARK VINA RESULT:      -5.0      2.454      5.407
REMARK  Name = *****
REMARK                            x       y       z     vdW  Elec       q    Type
REMARK                         _______ _______ _______ _____ _____    ______ ____
ROOT
ATOM      1  O   LIG    1       25.910 -28.020   8.391  0.00  0.00    -0.340 OA
ENDROOT
BRANCH   1   7
ATOM      2  C   LIG    1       27.466 -29.390  12.370  0.00  0.00    +0.039 C 
ATOM      3  C   LIG    1       26.622 -28.736  11.272  0.00  0.00    +0.138 C 
ATOM      4  C   LIG    1       25.310 -29.556  11.078  0.00  0.00    +0.114 C 
ATOM      5  C   LIG    1       25.447 -30.491   9.801  0.00  0.00    +0.167 C 
ATOM      6  C   LIG    1       26.782 -30.288   9.047  0.00  0.00    +0.200 C 
ATOM      7  C   LIG    1       27.018 -28.793   8.882  0.00  0.00    +0.282 C 
ATOM      8  O   LIG    1       27.443 -28.356  10.166  0.00  0.00    -0.344 OA
BRANCH   6   9
ATOM      9  O   LIG    1       26.840 -31.008   7.809  0.00  0.00    -0.384 OA
ATOM     10  H   LIG    1       27.642 -31.565   7.854  0.00  0.00    +0.210 HD
ENDBRANCH   6   9
BRANCH   5  11
ATOM     11  O   LIG    1       25.443 -31.881  10.212  0.00  0.00    -0.387 OA
ATOM     12  H   LIG    1       25.893 -32.376   9.498  0.00  0.00    +0.210 HD
ENDBRANCH   5  11
BRANCH   4  13
ATOM     13  N   LIG    1       24.052 -28.731  11.306  0.00  0.00    -0.300 NA
ATOM     14  H   LIG    1       24.115 -27.804  10.896  0.00  0.00    +0.123 HD
BRANCH  13  15
ATOM     15  C   LIG    1       23.463 -28.737  12.696  0.00  0.00    +0.109 C 
ATOM     16  C   LIG    1       22.873 -30.082  13.262  0.00  0.00    +0.166 C 
ATOM     17  C   LIG    1       21.345 -30.342  13.072  0.00  0.00    +0.177 C 
ATOM     18  C   LIG    1       20.518 -29.104  12.669  0.00  0.00    +0.173 C 
ATOM     19  C   LIG    1       21.118 -27.823  13.117  0.00  0.00    -0.016 C 
ATOM     20  C   LIG    1       22.498 -27.668  13.077  0.00  0.00    -0.002 C 
BRANCH  18  21
ATOM     21  O   LIG    1       19.191 -29.247  13.229  0.00  0.00    -0.385 OA
ATOM     22  H   LIG    1       19.120 -30.176  13.538  0.00  0.00    +0.210 HD
ENDBRANCH  18  21
BRANCH  17  23
ATOM     23  O   LIG    1       20.813 -30.893  14.312  0.00  0.00    -0.386 OA
ATOM     24  H   LIG    1       21.584 -31.078  14.886  0.00  0.00    +0.210 HD
ENDBRANCH  17  23
BRANCH  16  25
ATOM     25  O   LIG    1       23.607 -31.222  12.833  0.00  0.00    -0.387 OA
ATOM     26  H   LIG    1       23.339 -31.953  13.421  0.00  0.00    +0.210 HD
ENDBRANCH  16  25
BRANCH  19  27
ATOM     27  C   LIG    1       20.292 -26.719  13.645  0.00  0.00    +0.189 C 
BRANCH  27  28
ATOM     28  O   LIG    1       19.513 -26.174  12.583  0.00  0.00    -0.391 OA
ATOM     29  H   LIG    1       18.695 -26.700  12.553  0.00  0.00    +0.210 HD
ENDBRANCH  27  28
ENDBRANCH  19  27
ENDBRANCH  13  15
ENDBRANCH   4  13
ENDBRANCH   1   7
BRANCH   1  30
ATOM     30  C   LIG    1       25.706 -27.981   6.944  0.00  0.00    +0.183 C 
ATOM     31  C   LIG    1       26.872 -27.303   6.192  0.00  0.00    +0.178 C 
ATOM     32  O   LIG    1       26.865 -25.856   6.237  0.00  0.00    -0.341 OA
ATOM     33  C   LIG    1       25.610 -25.128   6.140  0.00  0.00    +0.282 C 
ATOM     34  C   LIG    1       24.465 -26.059   5.715  0.00  0.00    +0.201 C 
ATOM     35  C   LIG    1       24.370 -27.241   6.688  0.00  0.00    +0.179 C 
BRANCH  35  36
ATOM     36  O   LIG    1       23.388 -28.170   6.197  0.00  0.00    -0.386 OA
ATOM     37  H   LIG    1       23.246 -27.964   5.251  0.00  0.00    +0.210 HD
ENDBRANCH  35  36
BRANCH  34  38
ATOM     38  O   LIG    1       23.193 -25.418   5.572  0.00  0.00    -0.384 OA
ATOM     39  H   LIG    1       23.348 -24.471   5.425  0.00  0.00    +0.210 HD
ENDBRANCH  34  38
BRANCH  31  40
ATOM     40  C   LIG    1       27.116 -27.918   4.780  0.00  0.00    +0.190 C 
BRANCH  40  41
ATOM     41  O   LIG    1       28.307 -27.513   4.133  0.00  0.00    -0.392 OA
ATOM     42  H   LIG    1       28.238 -26.556   3.970  0.00  0.00    +0.209 HD
ENDBRANCH  40  41
ENDBRANCH  31  40
BRANCH  33  43
ATOM     43  O   LIG    1       25.346 -24.399   7.377  0.00  0.00    -0.340 OA
BRANCH  43  44
ATOM     44  C   LIG    1       25.802 -23.007   7.515  0.00  0.00    +0.183 C 
ATOM     45  C   LIG    1       24.860 -22.110   8.360  0.00  0.00    +0.178 C 
ATOM     46  O   LIG    1       23.572 -21.892   7.750  0.00  0.00    -0.341 OA
ATOM     47  C   LIG    1       23.460 -22.311   6.395  0.00  0.00    +0.279 C 
ATOM     48  C   LIG    1       24.636 -21.837   5.534  0.00  0.00    +0.201 C 
ATOM     49  C   LIG    1       25.960 -22.374   6.097  0.00  0.00    +0.179 C 
BRANCH  49  50
ATOM     50  O   LIG    1       26.917 -21.293   6.129  0.00  0.00    -0.386 OA
ATOM     51  H   LIG    1       27.500 -21.407   5.354  0.00  0.00    +0.210 HD
ENDBRANCH  49  50
BRANCH  48  52
ATOM     52  O   LIG    1       24.509 -22.269   4.167  0.00  0.00    -0.384 OA
ATOM     53  H   LIG    1       24.820 -21.523   3.618  0.00  0.00    +0.210 HD
ENDBRANCH  48  52
BRANCH  47  54
ATOM     54  O   LIG    1       22.270 -21.746   5.853  0.00  0.00    -0.365 OA
ATOM     55  H   LIG    1       21.778 -21.426   6.630  0.00  0.00    +0.213 HD
ENDBRANCH  47  54
BRANCH  45  56
ATOM     56  C   LIG    1       25.473 -20.736   8.738  0.00  0.00    +0.190 C 
BRANCH  56  57
ATOM     57  O   LIG    1       26.877 -20.839   8.955  0.00  0.00    -0.392 OA
ATOM     58  H   LIG    1       27.234 -21.431   8.267  0.00  0.00    +0.209 HD
ENDBRANCH  56  57
ENDBRANCH  45  56
ENDBRANCH  43  44
ENDBRANCH  33  43
ENDBRANCH   1  30
TORSDOF 22
ENDMDL
MODEL 7
REMARK VINA RESULT:      -4.9      0.936      2.244
REMARK  Name = *****
REMARK                            x       y       z     vdW  Elec       q    Type
REMARK                         _______ _______ _______ _____ _____    ______ ____
ROOT
ATOM      1  O   LIG    1       24.879 -28.348  11.938  0.00  0.00    -0.340 OA
ENDROOT
BRANCH   1   7
ATOM      2  C   LIG    1       21.590 -26.681  14.495  0.00  0.00    +0.039 C 
ATOM      3  C   LIG    1       22.366 -27.362  13.363  0.00  0.00    +0.138 C 
ATOM      4  C   LIG    1       22.183 -28.907  13.475  0.00  0.00    +0.114 C 
ATOM      5  C   LIG    1       23.471 -29.550  14.148  0.00  0.00    +0.167 C 
ATOM      6  C   LIG    1       24.583 -28.514  14.432  0.00  0.00    +0.200 C 
ATOM      7  C   LIG    1       24.766 -27.651  13.190  0.00  0.00    +0.282 C 
ATOM      8  O   LIG    1       23.654 -26.765  13.206  0.00  0.00    -0.344 OA
BRANCH   6   9
ATOM      9  O   LIG    1       25.803 -29.112  14.886  0.00  0.00    -0.384 OA
ATOM     10  H   LIG    1       26.522 -28.505  14.619  0.00  0.00    +0.210 HD
ENDBRANCH   6   9
BRANCH   5  11
ATOM     11  O   LIG    1       23.120 -30.104  15.441  0.00  0.00    -0.387 OA
ATOM     12  H   LIG    1       23.214 -29.373  16.084  0.00  0.00    +0.210 HD
ENDBRANCH   5  11
BRANCH   4  13
ATOM     13  N   LIG    1       21.565 -29.526  12.231  0.00  0.00    -0.300 NA
ATOM     14  H   LIG    1       20.978 -28.873  11.721  0.00  0.00    +0.123 HD
BRANCH  13  15
ATOM     15  C   LIG    1       20.957 -30.901  12.371  0.00  0.00    +0.109 C 
ATOM     16  C   LIG    1       21.290 -31.990  11.284  0.00  0.00    +0.166 C 
ATOM     17  C   LIG    1       20.306 -32.141  10.082  0.00  0.00    +0.177 C 
ATOM     18  C   LIG    1       18.936 -31.457  10.270  0.00  0.00    +0.173 C 
ATOM     19  C   LIG    1       18.534 -31.325  11.692  0.00  0.00    -0.016 C 
ATOM     20  C   LIG    1       19.498 -31.021  12.645  0.00  0.00    -0.002 C 
BRANCH  18  21
ATOM     21  O   LIG    1       17.946 -32.228   9.549  0.00  0.00    -0.385 OA
ATOM     22  H   LIG    1       18.381 -32.538   8.726  0.00  0.00    +0.210 HD
ENDBRANCH  18  21
BRANCH  17  23
ATOM     23  O   LIG    1       20.103 -33.562   9.827  0.00  0.00    -0.386 OA
ATOM     24  H   LIG    1       19.140 -33.721   9.898  0.00  0.00    +0.210 HD
ENDBRANCH  17  23
BRANCH  16  25
ATOM     25  O   LIG    1       22.623 -31.886  10.799  0.00  0.00    -0.387 OA
ATOM     26  H   LIG    1       22.569 -31.379   9.967  0.00  0.00    +0.210 HD
ENDBRANCH  16  25
BRANCH  19  27
ATOM     27  C   LIG    1       17.142 -31.547  12.131  0.00  0.00    +0.189 C 
BRANCH  27  28
ATOM     28  O   LIG    1       16.575 -30.299  12.523  0.00  0.00    -0.391 OA
ATOM     29  H   LIG    1       17.078 -30.009  13.303  0.00  0.00    +0.210 HD
ENDBRANCH  27  28
ENDBRANCH  19  27
ENDBRANCH  13  15
ENDBRANCH   4  13
ENDBRANCH   1   7
BRANCH   1  30
ATOM     30  C   LIG    1       25.962 -29.321  11.806  0.00  0.00    +0.183 C 
ATOM     31  C   LIG    1       27.197 -28.749  11.077  0.00  0.00    +0.178 C 
ATOM     32  O   LIG    1       27.074 -28.682   9.635  0.00  0.00    -0.341 OA
ATOM     33  C   LIG    1       26.414 -29.755   8.907  0.00  0.00    +0.282 C 
ATOM     34  C   LIG    1       26.180 -30.973   9.814  0.00  0.00    +0.201 C 
ATOM     35  C   LIG    1       25.388 -30.548  11.057  0.00  0.00    +0.179 C 
BRANCH  35  36
ATOM     36  O   LIG    1       25.300 -31.667  11.957  0.00  0.00    -0.386 OA
ATOM     37  H   LIG    1       25.645 -31.368  12.822  0.00  0.00    +0.210 HD
ENDBRANCH  35  36
BRANCH  34  38
ATOM     38  O   LIG    1       25.554 -32.087   9.170  0.00  0.00    -0.384 OA
ATOM     39  H   LIG    1       25.047 -32.576   9.838  0.00  0.00    +0.210 HD
ENDBRANCH  34  38
BRANCH  31  40
ATOM     40  C   LIG    1       28.537 -29.352  11.598  0.00  0.00    +0.190 C 
BRANCH  40  41
ATOM     41  O   LIG    1       28.811 -29.140  12.968  0.00  0.00    -0.392 OA
ATOM     42  H   LIG    1       28.079 -29.532  13.476  0.00  0.00    +0.209 HD
ENDBRANCH  40  41
ENDBRANCH  31  40
BRANCH  33  43
ATOM     43  O   LIG    1       25.201 -29.262   8.262  0.00  0.00    -0.340 OA
BRANCH  43  44
ATOM     44  C   LIG    1       24.786 -29.821   6.965  0.00  0.00    +0.183 C 
ATOM     45  C   LIG    1       25.956 -30.080   5.981  0.00  0.00    +0.178 C 
ATOM     46  O   LIG    1       26.611 -28.876   5.535  0.00  0.00    -0.341 OA
ATOM     47  C   LIG    1       25.943 -27.662   5.860  0.00  0.00    +0.279 C 
ATOM     48  C   LIG    1       24.447 -27.708   5.526  0.00  0.00    +0.201 C 
ATOM     49  C   LIG    1       23.765 -28.852   6.290  0.00  0.00    +0.179 C 
BRANCH  49  50
ATOM     50  O   LIG    1       22.915 -29.572   5.371  0.00  0.00    -0.386 OA
ATOM     51  H   LIG    1       22.039 -29.141   5.397  0.00  0.00    +0.210 HD
ENDBRANCH  49  50
BRANCH  48  52
ATOM     52  O   LIG    1       23.786 -26.474   5.861  0.00  0.00    -0.384 OA
ATOM     53  H   LIG    1       23.195 -26.273   5.109  0.00  0.00    +0.210 HD
ENDBRANCH  48  52
BRANCH  47  54
ATOM     54  O   LIG    1       26.528 -26.615   5.091  0.00  0.00    -0.365 OA
ATOM     55  H   LIG    1       25.774 -26.194   4.642  0.00  0.00    +0.213 HD
ENDBRANCH  47  54
BRANCH  45  56
ATOM     56  C   LIG    1       25.558 -30.921   4.739  0.00  0.00    +0.190 C 
BRANCH  56  57
ATOM     57  O   LIG    1       24.595 -31.915   5.076  0.00  0.00    -0.392 OA
ATOM     58  H   LIG    1       23.722 -31.481   5.090  0.00  0.00    +0.209 HD
ENDBRANCH  56  57
ENDBRANCH  45  56
ENDBRANCH  43  44
ENDBRANCH  33  43
ENDBRANCH   1  30
TORSDOF 22
ENDMDL
MODEL 8
REMARK VINA RESULT:      -4.9      1.964      3.507
REMARK  Name = *****
REMARK                            x       y       z     vdW  Elec       q    Type
REMARK                         _______ _______ _______ _____ _____    ______ ____
ROOT
ATOM      1  O   LIG    1       25.663 -29.721  11.688  0.00  0.00    -0.340 OA
ENDROOT
BRANCH   1   7
ATOM      2  C   LIG    1       26.780 -25.645  13.195  0.00  0.00    +0.039 C 
ATOM      3  C   LIG    1       25.996 -26.909  12.828  0.00  0.00    +0.138 C 
ATOM      4  C   LIG    1       25.697 -27.721  14.125  0.00  0.00    +0.114 C 
ATOM      5  C   LIG    1       26.724 -28.928  14.248  0.00  0.00    +0.167 C 
ATOM      6  C   LIG    1       27.676 -29.035  13.034  0.00  0.00    +0.200 C 
ATOM      7  C   LIG    1       26.848 -28.911  11.762  0.00  0.00    +0.282 C 
ATOM      8  O   LIG    1       26.551 -27.525  11.664  0.00  0.00    -0.344 OA
BRANCH   6   9
ATOM      9  O   LIG    1       28.490 -30.214  13.065  0.00  0.00    -0.384 OA
ATOM     10  H   LIG    1       27.878 -30.972  12.975  0.00  0.00    +0.210 HD
ENDBRANCH   6   9
BRANCH   5  11
ATOM     11  O   LIG    1       27.583 -28.721  15.397  0.00  0.00    -0.387 OA
ATOM     12  H   LIG    1       28.363 -29.295  15.258  0.00  0.00    +0.210 HD
ENDBRANCH   5  11
BRANCH   4  13
ATOM     13  N   LIG    1       24.210 -27.937  14.363  0.00  0.00    -0.300 NA
ATOM     14  H   LIG    1       24.024 -28.730  14.969  0.00  0.00    +0.123 HD
BRANCH  13  15
ATOM     15  C   LIG    1       23.300 -27.870  13.161  0.00  0.00    +0.109 C 
ATOM     16  C   LIG    1       22.237 -26.712  13.079  0.00  0.00    +0.166 C 
ATOM     17  C   LIG    1       20.802 -27.002  13.620  0.00  0.00    +0.177 C 
ATOM     18  C   LIG    1       20.480 -28.493  13.848  0.00  0.00    +0.173 C 
ATOM     19  C   LIG    1       21.269 -29.405  12.983  0.00  0.00    -0.016 C 
ATOM     20  C   LIG    1       22.599 -29.107  12.716  0.00  0.00    -0.002 C 
BRANCH  18  21
ATOM     21  O   LIG    1       19.066 -28.690  13.610  0.00  0.00    -0.385 OA
ATOM     22  H   LIG    1       18.683 -28.999  14.459  0.00  0.00    +0.210 HD
ENDBRANCH  18  21
BRANCH  17  23
ATOM     23  O   LIG    1       19.835 -26.438  12.687  0.00  0.00    -0.386 OA
ATOM     24  H   LIG    1       19.017 -26.279  13.199  0.00  0.00    +0.210 HD
ENDBRANCH  17  23
BRANCH  16  25
ATOM     25  O   LIG    1       22.718 -25.493  13.633  0.00  0.00    -0.387 OA
ATOM     26  H   LIG    1       22.785 -25.640  14.595  0.00  0.00    +0.210 HD
ENDBRANCH  16  25
BRANCH  19  27
ATOM     27  C   LIG    1       20.667 -30.602  12.362  0.00  0.00    +0.189 C 
BRANCH  27  28
ATOM     28  O   LIG    1       19.944 -30.207  11.198  0.00  0.00    -0.391 OA
ATOM     29  H   LIG    1       19.008 -30.180  11.461  0.00  0.00    +0.210 HD
ENDBRANCH  27  28
ENDBRANCH  19  27
ENDBRANCH  13  15
ENDBRANCH   4  13
ENDBRANCH   1   7
BRANCH   1  30
ATOM     30  C   LIG    1       25.636 -30.782  10.683  0.00  0.00    +0.183 C 
ATOM     31  C   LIG    1       26.949 -30.879   9.876  0.00  0.00    +0.178 C 
ATOM     32  O   LIG    1       27.094 -29.887   8.831  0.00  0.00    -0.341 OA
ATOM     33  C   LIG    1       25.946 -29.498   8.027  0.00  0.00    +0.282 C 
ATOM     34  C   LIG    1       24.764 -30.450   8.259  0.00  0.00    +0.201 C 
ATOM     35  C   LIG    1       24.428 -30.505   9.755  0.00  0.00    +0.179 C 
BRANCH  35  36
ATOM     36  O   LIG    1       23.415 -31.505   9.967  0.00  0.00    -0.386 OA
ATOM     37  H   LIG    1       22.595 -31.034  10.219  0.00  0.00    +0.210 HD
ENDBRANCH  35  36
BRANCH  34  38
ATOM     38  O   LIG    1       23.596 -30.154   7.488  0.00  0.00    -0.384 OA
ATOM     39  H   LIG    1       23.881 -29.870   6.604  0.00  0.00    +0.210 HD
ENDBRANCH  34  38
BRANCH  31  40
ATOM     40  C   LIG    1       27.289 -32.340   9.451  0.00  0.00    +0.190 C 
BRANCH  40  41
ATOM     41  O   LIG    1       26.418 -33.339   9.943  0.00  0.00    -0.392 OA
ATOM     42  H   LIG    1       26.096 -33.849   9.178  0.00  0.00    +0.209 HD
ENDBRANCH  40  41
ENDBRANCH  31  40
BRANCH  33  43
ATOM     43  O   LIG    1       25.620 -28.092   8.252  0.00  0.00    -0.340 OA
BRANCH  43  44
ATOM     44  C   LIG    1       26.023 -27.083   7.260  0.00  0.00    +0.183 C 
ATOM     45  C   LIG    1       24.863 -26.179   6.765  0.00  0.00    +0.178 C 
ATOM     46  O   LIG    1       23.864 -26.889   6.007  0.00  0.00    -0.341 OA
ATOM     47  C   LIG    1       24.212 -28.216   5.628  0.00  0.00    +0.279 C 
ATOM     48  C   LIG    1       25.618 -28.303   5.023  0.00  0.00    +0.201 C 
ATOM     49  C   LIG    1       26.664 -27.798   6.029  0.00  0.00    +0.179 C 
BRANCH  49  50
ATOM     50  O   LIG    1       27.568 -26.908   5.341  0.00  0.00    -0.386 OA
ATOM     51  H   LIG    1       28.420 -26.944   5.817  0.00  0.00    +0.210 HD
ENDBRANCH  49  50
BRANCH  48  52
ATOM     52  O   LIG    1       25.957 -29.650   4.646  0.00  0.00    -0.384 OA
ATOM     53  H   LIG    1       25.869 -30.188   5.458  0.00  0.00    +0.210 HD
ENDBRANCH  48  52
BRANCH  47  54
ATOM     54  O   LIG    1       23.286 -28.652   4.637  0.00  0.00    -0.365 OA
ATOM     55  H   LIG    1       23.804 -29.243   4.064  0.00  0.00    +0.213 HD
ENDBRANCH  47  54
BRANCH  45  56
ATOM     56  C   LIG    1       25.333 -24.949   5.944  0.00  0.00    +0.190 C 
BRANCH  56  57
ATOM     57  O   LIG    1       24.899 -25.034   4.591  0.00  0.00    -0.392 OA
ATOM     58  H   LIG    1       24.229 -24.338   4.457  0.00  0.00    +0.209 HD
ENDBRANCH  56  57
ENDBRANCH  45  56
ENDBRANCH  43  44
ENDBRANCH  33  43
ENDBRANCH   1  30
TORSDOF 22
ENDMDL
MODEL 9
REMARK VINA RESULT:      -4.8      2.360      5.297
REMARK  Name = *****
REMARK                            x       y       z     vdW  Elec       q    Type
REMARK                         _______ _______ _______ _____ _____    ______ ____
ROOT
ATOM      1  O   LIG    1       21.857 -31.904  10.426  0.00  0.00    -0.340 OA
ENDROOT
BRANCH   1   7
ATOM      2  C   LIG    1       18.861 -33.813  13.166  0.00  0.00    +0.039 C 
ATOM      3  C   LIG    1       19.806 -32.810  12.497  0.00  0.00    +0.138 C 
ATOM      4  C   LIG    1       18.967 -31.781  11.681  0.00  0.00    +0.114 C 
ATOM      5  C   LIG    1       19.001 -32.167  10.139  0.00  0.00    +0.167 C 
ATOM      6  C   LIG    1       19.907 -33.384   9.843  0.00  0.00    +0.200 C 
ATOM      7  C   LIG    1       21.230 -33.188  10.573  0.00  0.00    +0.282 C 
ATOM      8  O   LIG    1       20.934 -33.482  11.931  0.00  0.00    -0.344 OA
BRANCH   6   9
ATOM      9  O   LIG    1       20.069 -33.633   8.441  0.00  0.00    -0.384 OA
ATOM     10  H   LIG    1       19.382 -33.104   7.988  0.00  0.00    +0.210 HD
ENDBRANCH   6   9
BRANCH   5  11
ATOM     11  O   LIG    1       17.674 -32.558   9.706  0.00  0.00    -0.387 OA
ATOM     12  H   LIG    1       17.530 -33.460  10.055  0.00  0.00    +0.210 HD
ENDBRANCH   5  11
BRANCH   4  13
ATOM     13  N   LIG    1       19.188 -30.343  12.127  0.00  0.00    -0.300 NA
ATOM     14  H   LIG    1       20.017 -29.929  11.712  0.00  0.00    +0.123 HD
BRANCH  13  15
ATOM     15  C   LIG    1       19.038 -30.046  13.600  0.00  0.00    +0.109 C 
ATOM     16  C   LIG    1       17.723 -29.338  14.098  0.00  0.00    +0.166 C 
ATOM     17  C   LIG    1       17.735 -27.782  14.218  0.00  0.00    +0.177 C 
ATOM     18  C   LIG    1       19.135 -27.136  14.175  0.00  0.00    +0.173 C 
ATOM     19  C   LIG    1       20.215 -28.038  14.646  0.00  0.00    -0.016 C 
ATOM     20  C   LIG    1       20.161 -29.388  14.323  0.00  0.00    -0.002 C 
BRANCH  18  21
ATOM     21  O   LIG    1       19.104 -25.940  14.990  0.00  0.00    -0.385 OA
ATOM     22  H   LIG    1       18.260 -25.485  14.782  0.00  0.00    +0.210 HD
ENDBRANCH  18  21
BRANCH  17  23
ATOM     23  O   LIG    1       17.071 -27.409  15.460  0.00  0.00    -0.386 OA
ATOM     24  H   LIG    1       17.097 -26.432  15.506  0.00  0.00    +0.210 HD
ENDBRANCH  17  23
BRANCH  16  25
ATOM     25  O   LIG    1       16.572 -29.751  13.370  0.00  0.00    -0.387 OA
ATOM     26  H   LIG    1       16.112 -30.399  13.936  0.00  0.00    +0.210 HD
ENDBRANCH  16  25
BRANCH  19  27
ATOM     27  C   LIG    1       21.328 -27.549  15.485  0.00  0.00    +0.189 C 
BRANCH  27  28
ATOM     28  O   LIG    1       22.232 -26.809  14.669  0.00  0.00    -0.391 OA
ATOM     29  H   LIG    1       22.381 -25.966  15.131  0.00  0.00    +0.210 HD
ENDBRANCH  27  28
ENDBRANCH  19  27
ENDBRANCH  13  15
ENDBRANCH   4  13
ENDBRANCH   1   7
BRANCH   1  30
ATOM     30  C   LIG    1       22.961 -31.587  11.330  0.00  0.00    +0.183 C 
ATOM     31  C   LIG    1       23.484 -30.144  11.158  0.00  0.00    +0.178 C 
ATOM     32  O   LIG    1       24.354 -29.946  10.018  0.00  0.00    -0.341 OA
ATOM     33  C   LIG    1       25.328 -30.963   9.655  0.00  0.00    +0.282 C 
ATOM     34  C   LIG    1       25.458 -32.020  10.762  0.00  0.00    +0.201 C 
ATOM     35  C   LIG    1       24.081 -32.623  11.067  0.00  0.00    +0.179 C 
BRANCH  35  36
ATOM     36  O   LIG    1       24.200 -33.505  12.198  0.00  0.00    -0.386 OA
ATOM     37  H   LIG    1       24.684 -34.299  11.893  0.00  0.00    +0.210 HD
ENDBRANCH  35  36
BRANCH  34  38
ATOM     38  O   LIG    1       26.415 -33.050  10.497  0.00  0.00    -0.384 OA
ATOM     39  H   LIG    1       27.302 -32.679  10.632  0.00  0.00    +0.210 HD
ENDBRANCH  34  38
BRANCH  31  40
ATOM     40  C   LIG    1       23.995 -29.525  12.495  0.00  0.00    +0.190 C 
BRANCH  40  41
ATOM     41  O   LIG    1       23.640 -28.175  12.719  0.00  0.00    -0.392 OA
ATOM     42  H   LIG    1       23.622 -28.035  13.682  0.00  0.00    +0.209 HD
ENDBRANCH  40  41
ENDBRANCH  31  40
BRANCH  33  43
ATOM     43  O   LIG    1       25.016 -31.524   8.344  0.00  0.00    -0.340 OA
BRANCH  43  44
ATOM     44  C   LIG    1       25.293 -30.738   7.131  0.00  0.00    +0.183 C 
ATOM     45  C   LIG    1       24.046 -30.047   6.521  0.00  0.00    +0.178 C 
ATOM     46  O   LIG    1       23.071 -30.973   6.001  0.00  0.00    -0.341 OA
ATOM     47  C   LIG    1       23.504 -32.325   5.903  0.00  0.00    +0.279 C 
ATOM     48  C   LIG    1       24.884 -32.453   5.247  0.00  0.00    +0.201 C 
ATOM     49  C   LIG    1       25.932 -31.668   6.051  0.00  0.00    +0.179 C 
BRANCH  49  50
ATOM     50  O   LIG    1       26.732 -30.897   5.128  0.00  0.00    -0.386 OA
ATOM     51  H   LIG    1       26.504 -31.203   4.229  0.00  0.00    +0.210 HD
ENDBRANCH  49  50
BRANCH  48  52
ATOM     52  O   LIG    1       25.309 -33.825   5.156  0.00  0.00    -0.384 OA
ATOM     53  H   LIG    1       24.656 -34.272   4.583  0.00  0.00    +0.210 HD
ENDBRANCH  48  52
BRANCH  47  54
ATOM     54  O   LIG    1       22.571 -33.032   5.092  0.00  0.00    -0.365 OA
ATOM     55  H   LIG    1       21.890 -32.372   4.873  0.00  0.00    +0.213 HD
ENDBRANCH  47  54
BRANCH  45  56
ATOM     56  C   LIG    1       24.380 -29.004   5.422  0.00  0.00    +0.190 C 
BRANCH  56  57
ATOM     57  O   LIG    1       24.056 -27.684   5.847  0.00  0.00    -0.392 OA
ATOM     58  H   LIG    1       24.714 -27.426   6.519  0.00  0.00    +0.209 HD
ENDBRANCH  56  57
ENDBRANCH  45  56
ENDBRANCH  43  44
ENDBRANCH  33  43
ENDBRANCH   1  30
TORSDOF 22
ENDMDL
