MODEL 1
REMARK VINA RESULT:      -6.8      0.000      0.000
REMARK  Name = *****
REMARK                            x       y       z     vdW  Elec       q    Type
REMARK                         _______ _______ _______ _____ _____    ______ ____
ROOT
ATOM      1  C   LIG    1       23.688 -31.760   6.744  0.00  0.00    +0.383 C 
ATOM      2  C   LIG    1       24.936 -32.646   6.534  0.00  0.00    +0.284 C 
ATOM      3  O   LIG    1       24.847 -33.693   5.876  0.00  0.00    -0.269 OA
ATOM      4  N   LIG    1       26.141 -32.282   7.154  0.00  0.00    -0.269 N 
ATOM      5  C   LIG    1       27.241 -33.231   7.015  0.00  0.00    +0.138 C 
ATOM      6  C   LIG    1       26.279 -31.181   8.058  0.00  0.00    +0.045 A 
ATOM      7  C   LIG    1       25.562 -29.976   7.934  0.00  0.00    +0.023 A 
ATOM      8  C   LIG    1       25.651 -28.982   8.928  0.00  0.00    +0.032 A 
ATOM      9  C   LIG    1       26.528 -29.137   9.994  0.00  0.00    +0.042 A 
ATOM     10  C   LIG    1       27.307 -30.280  10.095  0.00  0.00    +0.022 A 
ATOM     11 CL   LIG    1       26.675 -27.894  11.172  0.00  0.00    -0.084 Cl
ATOM     12  C   LIG    1       24.776 -29.647   6.709  0.00  0.00    +0.079 C 
ATOM     13  C   LIG    1       27.175 -31.294   9.141  0.00  0.00    +0.025 A 
ATOM     14  N   LIG    1       23.944 -30.450   6.143  0.00  0.00    -0.232 NA
ENDROOT
BRANCH  12  15
ATOM     15  C   LIG    1       24.935 -28.290   6.084  0.00  0.00    +0.001 A 
ATOM     16  C   LIG    1       24.092 -27.253   6.506  0.00  0.00    +0.010 A 
ATOM     17  C   LIG    1       24.248 -25.965   5.991  0.00  0.00    +0.001 A 
ATOM     18  C   LIG    1       25.242 -25.706   5.049  0.00  0.00    +0.000 A 
ATOM     19  C   LIG    1       26.066 -26.739   4.603  0.00  0.00    +0.001 A 
ATOM     20  C   LIG    1       25.906 -28.032   5.108  0.00  0.00    +0.010 A 
ENDBRANCH  12  15
BRANCH   1  21
ATOM     21  O   LIG    1       23.274 -31.795   8.111  0.00  0.00    -0.416 OA
BRANCH  21  24
ATOM     22  C   LIG    1       22.005 -31.431  10.454  0.00  0.00    +0.135 C 
ATOM     23  N   LIG    1       21.808 -32.622   9.639  0.00  0.00    -0.274 N 
ATOM     24  C   LIG    1       22.434 -32.812   8.419  0.00  0.00    +0.405 C 
ATOM     25  O   LIG    1       22.242 -33.801   7.716  0.00  0.00    -0.226 OA
ATOM     26  C   LIG    1       21.015 -33.700  10.192  0.00  0.00    +0.135 C 
ENDBRANCH  21  24
ENDBRANCH   1  21
TORSDOF 3
ENDMDL
MODEL 2
REMARK VINA RESULT:      -6.7      2.578      4.443
REMARK  Name = *****
REMARK                            x       y       z     vdW  Elec       q    Type
REMARK                         _______ _______ _______ _____ _____    ______ ____
ROOT
ATOM      1  C   LIG    1       23.961 -31.433   9.884  0.00  0.00    +0.383 C 
ATOM      2  C   LIG    1       25.377 -31.149  10.432  0.00  0.00    +0.284 C 
ATOM      3  O   LIG    1       25.747 -31.680  11.489  0.00  0.00    -0.269 OA
ATOM      4  N   LIG    1       26.201 -30.238   9.754  0.00  0.00    -0.269 N 
ATOM      5  C   LIG    1       27.472 -29.926  10.397  0.00  0.00    +0.138 C 
ATOM      6  C   LIG    1       25.783 -29.466   8.623  0.00  0.00    +0.045 A 
ATOM      7  C   LIG    1       24.890 -29.939   7.643  0.00  0.00    +0.023 A 
ATOM      8  C   LIG    1       24.423 -29.085   6.625  0.00  0.00    +0.032 A 
ATOM      9  C   LIG    1       24.919 -27.792   6.516  0.00  0.00    +0.042 A 
ATOM     10  C   LIG    1       25.863 -27.329   7.421  0.00  0.00    +0.022 A 
ATOM     11 CL   LIG    1       24.389 -26.774   5.236  0.00  0.00    -0.084 Cl
ATOM     12  C   LIG    1       24.489 -31.374   7.566  0.00  0.00    +0.079 C 
ATOM     13  C   LIG    1       26.281 -28.156   8.468  0.00  0.00    +0.025 A 
ATOM     14  N   LIG    1       24.091 -32.072   8.573  0.00  0.00    -0.232 NA
ENDROOT
BRANCH  12  15
ATOM     15  C   LIG    1       24.526 -32.071   6.235  0.00  0.00    +0.001 A 
ATOM     16  C   LIG    1       25.695 -31.987   5.466  0.00  0.00    +0.010 A 
ATOM     17  C   LIG    1       25.788 -32.668   4.251  0.00  0.00    +0.001 A 
ATOM     18  C   LIG    1       24.715 -33.433   3.796  0.00  0.00    +0.000 A 
ATOM     19  C   LIG    1       23.539 -33.498   4.543  0.00  0.00    +0.001 A 
ATOM     20  C   LIG    1       23.437 -32.808   5.754  0.00  0.00    +0.010 A 
ENDBRANCH  12  15
BRANCH   1  21
ATOM     21  O   LIG    1       23.147 -30.261   9.975  0.00  0.00    -0.416 OA
BRANCH  21  24
ATOM     22  C   LIG    1       22.883 -29.006  12.337  0.00  0.00    +0.135 C 
ATOM     23  N   LIG    1       21.823 -29.830  11.772  0.00  0.00    -0.274 N 
ATOM     24  C   LIG    1       21.935 -30.462  10.545  0.00  0.00    +0.405 C 
ATOM     25  O   LIG    1       21.029 -31.130  10.051  0.00  0.00    -0.226 OA
ATOM     26  C   LIG    1       20.656 -30.090  12.587  0.00  0.00    +0.135 C 
ENDBRANCH  21  24
ENDBRANCH   1  21
TORSDOF 3
ENDMDL
MODEL 3
REMARK VINA RESULT:      -6.2      2.007      5.312
REMARK  Name = *****
REMARK                            x       y       z     vdW  Elec       q    Type
REMARK                         _______ _______ _______ _____ _____    ______ ____
ROOT
ATOM      1  C   LIG    1       24.711 -31.150   6.762  0.00  0.00    +0.383 C 
ATOM      2  C   LIG    1       24.837 -29.665   6.356  0.00  0.00    +0.284 C 
ATOM      3  O   LIG    1       24.670 -29.332   5.174  0.00  0.00    -0.269 OA
ATOM      4  N   LIG    1       25.207 -28.722   7.327  0.00  0.00    -0.269 N 
ATOM      5  C   LIG    1       25.429 -27.364   6.845  0.00  0.00    +0.138 C 
ATOM      6  C   LIG    1       25.574 -29.054   8.670  0.00  0.00    +0.045 A 
ATOM      7  C   LIG    1       24.993 -30.110   9.399  0.00  0.00    +0.023 A 
ATOM      8  C   LIG    1       25.488 -30.462  10.669  0.00  0.00    +0.032 A 
ATOM      9  C   LIG    1       26.491 -29.706  11.263  0.00  0.00    +0.042 A 
ATOM     10  C   LIG    1       27.022 -28.610  10.599  0.00  0.00    +0.022 A 
ATOM     11 CL   LIG    1       27.049 -30.106  12.839  0.00  0.00    -0.084 Cl
ATOM     12  C   LIG    1       23.772 -30.821   8.921  0.00  0.00    +0.079 C 
ATOM     13  C   LIG    1       26.575 -28.296   9.313  0.00  0.00    +0.025 A 
ATOM     14  N   LIG    1       23.617 -31.275   7.727  0.00  0.00    -0.232 NA
ENDROOT
BRANCH  12  15
ATOM     15  C   LIG    1       22.640 -31.050   9.883  0.00  0.00    +0.001 A 
ATOM     16  C   LIG    1       22.041 -32.316   9.925  0.00  0.00    +0.010 A 
ATOM     17  C   LIG    1       21.025 -32.583  10.845  0.00  0.00    +0.001 A 
ATOM     18  C   LIG    1       20.600 -31.588  11.724  0.00  0.00    +0.000 A 
ATOM     19  C   LIG    1       21.172 -30.317  11.667  0.00  0.00    +0.001 A 
ATOM     20  C   LIG    1       22.181 -30.042  10.740  0.00  0.00    +0.010 A 
ENDBRANCH  12  15
BRANCH   1  21
ATOM     21  O   LIG    1       25.987 -31.677   7.133  0.00  0.00    -0.416 OA
BRANCH  21  24
ATOM     22  C   LIG    1       27.783 -33.467   8.027  0.00  0.00    +0.135 C 
ATOM     23  N   LIG    1       27.587 -33.204   6.608  0.00  0.00    -0.274 N 
ATOM     24  C   LIG    1       26.649 -32.304   6.131  0.00  0.00    +0.405 C 
ATOM     25  O   LIG    1       26.460 -32.106   4.934  0.00  0.00    -0.226 OA
ATOM     26  C   LIG    1       28.498 -33.825   5.670  0.00  0.00    +0.135 C 
ENDBRANCH  21  24
ENDBRANCH   1  21
TORSDOF 3
ENDMDL
MODEL 4
REMARK VINA RESULT:      -6.1      4.788      6.983
REMARK  Name = *****
REMARK                            x       y       z     vdW  Elec       q    Type
REMARK                         _______ _______ _______ _____ _____    ______ ____
ROOT
ATOM      1  C   LIG    1       25.995 -31.190  14.188  0.00  0.00    +0.383 C 
ATOM      2  C   LIG    1       25.532 -32.508  13.531  0.00  0.00    +0.284 C 
ATOM      3  O   LIG    1       25.481 -33.548  14.204  0.00  0.00    -0.269 OA
ATOM      4  N   LIG    1       25.241 -32.520  12.159  0.00  0.00    -0.269 N 
ATOM      5  C   LIG    1       24.933 -33.825  11.583  0.00  0.00    +0.138 C 
ATOM      6  C   LIG    1       25.434 -31.401  11.287  0.00  0.00    +0.045 A 
ATOM      7  C   LIG    1       25.245 -30.064  11.682  0.00  0.00    +0.023 A 
ATOM      8  C   LIG    1       25.574 -29.005  10.814  0.00  0.00    +0.032 A 
ATOM      9  C   LIG    1       25.994 -29.271   9.516  0.00  0.00    +0.042 A 
ATOM     10  C   LIG    1       26.110 -30.581   9.076  0.00  0.00    +0.022 A 
ATOM     11 CL   LIG    1       26.337 -27.973   8.442  0.00  0.00    -0.084 Cl
ATOM     12  C   LIG    1       24.589 -29.707  12.974  0.00  0.00    +0.079 C 
ATOM     13  C   LIG    1       25.842 -31.634   9.957  0.00  0.00    +0.025 A 
ATOM     14  N   LIG    1       24.898 -30.224  14.112  0.00  0.00    -0.232 NA
ENDROOT
BRANCH  12  15
ATOM     15  C   LIG    1       23.505 -28.666  12.978  0.00  0.00    +0.001 A 
ATOM     16  C   LIG    1       22.209 -29.045  12.603  0.00  0.00    +0.010 A 
ATOM     17  C   LIG    1       21.165 -28.120  12.649  0.00  0.00    +0.001 A 
ATOM     18  C   LIG    1       21.409 -26.812  13.065  0.00  0.00    +0.000 A 
ATOM     19  C   LIG    1       22.701 -26.421  13.412  0.00  0.00    +0.001 A 
ATOM     20  C   LIG    1       23.752 -27.340  13.357  0.00  0.00    +0.010 A 
ENDBRANCH  12  15
BRANCH   1  21
ATOM     21  O   LIG    1       27.267 -30.793  13.671  0.00  0.00    -0.416 OA
BRANCH  21  24
ATOM     22  C   LIG    1       27.793 -28.159  13.792  0.00  0.00    +0.135 C 
ATOM     23  N   LIG    1       28.465 -29.126  14.648  0.00  0.00    -0.274 N 
ATOM     24  C   LIG    1       28.187 -30.482  14.615  0.00  0.00    +0.405 C 
ATOM     25  O   LIG    1       28.729 -31.295  15.361  0.00  0.00    -0.226 OA
ATOM     26  C   LIG    1       29.552 -28.657  15.481  0.00  0.00    +0.135 C 
ENDBRANCH  21  24
ENDBRANCH   1  21
TORSDOF 3
ENDMDL
MODEL 5
REMARK VINA RESULT:      -5.9      3.519      6.077
REMARK  Name = *****
REMARK                            x       y       z     vdW  Elec       q    Type
REMARK                         _______ _______ _______ _____ _____    ______ ____
ROOT
ATOM      1  C   LIG    1       26.359 -29.753   9.562  0.00  0.00    +0.383 C 
ATOM      2  C   LIG    1       26.275 -31.228  10.014  0.00  0.00    +0.284 C 
ATOM      3  O   LIG    1       26.992 -32.082   9.471  0.00  0.00    -0.269 OA
ATOM      4  N   LIG    1       25.335 -31.590  10.990  0.00  0.00    -0.269 N 
ATOM      5  C   LIG    1       25.227 -33.017  11.274  0.00  0.00    +0.138 C 
ATOM      6  C   LIG    1       24.366 -30.693  11.542  0.00  0.00    +0.045 A 
ATOM      7  C   LIG    1       24.608 -29.325  11.768  0.00  0.00    +0.023 A 
ATOM      8  C   LIG    1       23.572 -28.473  12.195  0.00  0.00    +0.032 A 
ATOM      9  C   LIG    1       22.319 -28.993  12.498  0.00  0.00    +0.042 A 
ATOM     10  C   LIG    1       22.079 -30.353  12.362  0.00  0.00    +0.022 A 
ATOM     11 CL   LIG    1       21.075 -27.957  13.076  0.00  0.00    -0.084 Cl
ATOM     12  C   LIG    1       25.978 -28.741  11.679  0.00  0.00    +0.079 C 
ATOM     13  C   LIG    1       23.089 -31.190  11.880  0.00  0.00    +0.025 A 
ATOM     14  N   LIG    1       26.792 -28.944  10.702  0.00  0.00    -0.232 NA
ENDROOT
BRANCH  12  15
ATOM     15  C   LIG    1       26.458 -27.838  12.781  0.00  0.00    +0.001 A 
ATOM     16  C   LIG    1       26.650 -26.479  12.500  0.00  0.00    +0.010 A 
ATOM     17  C   LIG    1       27.040 -25.600  13.511  0.00  0.00    +0.001 A 
ATOM     18  C   LIG    1       27.243 -26.073  14.807  0.00  0.00    +0.000 A 
ATOM     19  C   LIG    1       27.081 -27.429  15.087  0.00  0.00    +0.001 A 
ATOM     20  C   LIG    1       26.703 -28.315  14.075  0.00  0.00    +0.010 A 
ENDBRANCH  12  15
BRANCH   1  21
ATOM     21  O   LIG    1       25.157 -29.367   8.891  0.00  0.00    -0.416 OA
BRANCH  21  24
ATOM     22  C   LIG    1       24.179 -30.689   6.765  0.00  0.00    +0.135 C 
ATOM     23  N   LIG    1       24.865 -29.410   6.637  0.00  0.00    -0.274 N 
ATOM     24  C   LIG    1       25.351 -28.706   7.726  0.00  0.00    +0.405 C 
ATOM     25  O   LIG    1       25.900 -27.611   7.623  0.00  0.00    -0.226 OA
ATOM     26  C   LIG    1       25.150 -28.922   5.305  0.00  0.00    +0.135 C 
ENDBRANCH  21  24
ENDBRANCH   1  21
TORSDOF 3
ENDMDL
MODEL 6
REMARK VINA RESULT:      -5.8      2.831      4.513
REMARK  Name = *****
REMARK                            x       y       z     vdW  Elec       q    Type
REMARK                         _______ _______ _______ _____ _____    ______ ____
ROOT
ATOM      1  C   LIG    1       24.221 -30.233  10.618  0.00  0.00    +0.383 C 
ATOM      2  C   LIG    1       23.046 -31.191  10.324  0.00  0.00    +0.284 C 
ATOM      3  O   LIG    1       22.046 -31.185  11.057  0.00  0.00    -0.269 OA
ATOM      4  N   LIG    1       23.160 -32.105   9.265  0.00  0.00    -0.269 N 
ATOM      5  C   LIG    1       22.067 -33.061   9.127  0.00  0.00    +0.138 C 
ATOM      6  C   LIG    1       24.344 -32.281   8.481  0.00  0.00    +0.045 A 
ATOM      7  C   LIG    1       25.220 -31.232   8.145  0.00  0.00    +0.023 A 
ATOM      8  C   LIG    1       26.433 -31.494   7.478  0.00  0.00    +0.032 A 
ATOM      9  C   LIG    1       26.732 -32.783   7.053  0.00  0.00    +0.042 A 
ATOM     10  C   LIG    1       25.845 -33.821   7.300  0.00  0.00    +0.022 A 
ATOM     11 CL   LIG    1       28.186 -33.086   6.188  0.00  0.00    -0.084 Cl
ATOM     12  C   LIG    1       24.862 -29.801   8.370  0.00  0.00    +0.079 C 
ATOM     13  C   LIG    1       24.670 -33.572   8.015  0.00  0.00    +0.025 A 
ATOM     14  N   LIG    1       24.386 -29.337   9.472  0.00  0.00    -0.232 NA
ENDROOT
BRANCH  12  15
ATOM     15  C   LIG    1       25.077 -28.813   7.258  0.00  0.00    +0.001 A 
ATOM     16  C   LIG    1       24.414 -29.016   6.041  0.00  0.00    +0.010 A 
ATOM     17  C   LIG    1       24.544 -28.089   5.005  0.00  0.00    +0.001 A 
ATOM     18  C   LIG    1       25.339 -26.957   5.178  0.00  0.00    +0.000 A 
ATOM     19  C   LIG    1       26.025 -26.763   6.376  0.00  0.00    +0.001 A 
ATOM     20  C   LIG    1       25.907 -27.695   7.412  0.00  0.00    +0.010 A 
ENDBRANCH  12  15
BRANCH   1  21
ATOM     21  O   LIG    1       25.366 -30.967  11.058  0.00  0.00    -0.416 OA
BRANCH  21  24
ATOM     22  C   LIG    1       27.700 -29.634  11.000  0.00  0.00    +0.135 C 
ATOM     23  N   LIG    1       27.025 -29.966  12.248  0.00  0.00    -0.274 N 
ATOM     24  C   LIG    1       25.810 -30.629  12.292  0.00  0.00    +0.405 C 
ATOM     25  O   LIG    1       25.223 -30.880  13.342  0.00  0.00    -0.226 OA
ATOM     26  C   LIG    1       27.717 -29.694  13.489  0.00  0.00    +0.135 C 
ENDBRANCH  21  24
ENDBRANCH   1  21
TORSDOF 3
ENDMDL
MODEL 7
REMARK VINA RESULT:      -5.8      5.023      6.688
REMARK  Name = *****
REMARK                            x       y       z     vdW  Elec       q    Type
REMARK                         _______ _______ _______ _____ _____    ______ ____
ROOT
ATOM      1  C   LIG    1       27.446 -30.050  13.640  0.00  0.00    +0.383 C 
ATOM      2  C   LIG    1       28.059 -28.717  14.123  0.00  0.00    +0.284 C 
ATOM      3  O   LIG    1       29.213 -28.697  14.577  0.00  0.00    -0.269 OA
ATOM      4  N   LIG    1       27.270 -27.557  14.102  0.00  0.00    -0.269 N 
ATOM      5  C   LIG    1       27.873 -26.365  14.690  0.00  0.00    +0.138 C 
ATOM      6  C   LIG    1       25.884 -27.535  13.747  0.00  0.00    +0.045 A 
ATOM      7  C   LIG    1       25.317 -28.372  12.768  0.00  0.00    +0.023 A 
ATOM      8  C   LIG    1       23.924 -28.388  12.556  0.00  0.00    +0.032 A 
ATOM      9  C   LIG    1       23.103 -27.502  13.243  0.00  0.00    +0.042 A 
ATOM     10  C   LIG    1       23.649 -26.610  14.154  0.00  0.00    +0.022 A 
ATOM     11 CL   LIG    1       21.411 -27.486  12.936  0.00  0.00    -0.084 Cl
ATOM     12  C   LIG    1       26.157 -29.184  11.840  0.00  0.00    +0.079 C 
ATOM     13  C   LIG    1       25.023 -26.635  14.409  0.00  0.00    +0.025 A 
ATOM     14  N   LIG    1       27.139 -29.928  12.214  0.00  0.00    -0.232 NA
ENDROOT
BRANCH  12  15
ATOM     15  C   LIG    1       25.847 -29.164  10.370  0.00  0.00    +0.001 A 
ATOM     16  C   LIG    1       24.855 -30.024   9.881  0.00  0.00    +0.010 A 
ATOM     17  C   LIG    1       24.499 -29.993   8.531  0.00  0.00    +0.001 A 
ATOM     18  C   LIG    1       25.134 -29.107   7.663  0.00  0.00    +0.000 A 
ATOM     19  C   LIG    1       26.142 -28.268   8.137  0.00  0.00    +0.001 A 
ATOM     20  C   LIG    1       26.509 -28.304   9.485  0.00  0.00    +0.010 A 
ENDBRANCH  12  15
BRANCH   1  21
ATOM     21  O   LIG    1       26.393 -30.461  14.514  0.00  0.00    -0.416 OA
BRANCH  21  24
ATOM     22  C   LIG    1       23.870 -31.291  14.934  0.00  0.00    +0.135 C 
ATOM     23  N   LIG    1       25.001 -32.209  14.934  0.00  0.00    -0.274 N 
ATOM     24  C   LIG    1       26.302 -31.801  14.695  0.00  0.00    +0.405 C 
ATOM     25  O   LIG    1       27.253 -32.579  14.661  0.00  0.00    -0.226 OA
ATOM     26  C   LIG    1       24.761 -33.584  15.320  0.00  0.00    +0.135 C 
ENDBRANCH  21  24
ENDBRANCH   1  21
TORSDOF 3
ENDMDL
MODEL 8
REMARK VINA RESULT:      -5.7      3.576      6.574
REMARK  Name = *****
REMARK                            x       y       z     vdW  Elec       q    Type
REMARK                         _______ _______ _______ _____ _____    ______ ____
ROOT
ATOM      1  C   LIG    1       24.417 -30.113  10.193  0.00  0.00    +0.383 C 
ATOM      2  C   LIG    1       24.728 -31.541  10.693  0.00  0.00    +0.284 C 
ATOM      3  O   LIG    1       25.903 -31.932  10.751  0.00  0.00    -0.269 OA
ATOM      4  N   LIG    1       23.664 -32.398  11.011  0.00  0.00    -0.269 N 
ATOM      5  C   LIG    1       24.029 -33.768  11.354  0.00  0.00    +0.138 C 
ATOM      6  C   LIG    1       22.284 -32.073  10.814  0.00  0.00    +0.045 A 
ATOM      7  C   LIG    1       21.758 -30.776  10.971  0.00  0.00    +0.023 A 
ATOM      8  C   LIG    1       20.418 -30.500  10.640  0.00  0.00    +0.032 A 
ATOM      9  C   LIG    1       19.568 -31.528  10.249  0.00  0.00    +0.042 A 
ATOM     10  C   LIG    1       20.042 -32.829  10.166  0.00  0.00    +0.022 A 
ATOM     11 CL   LIG    1       17.918 -31.194   9.903  0.00  0.00    -0.084 Cl
ATOM     12  C   LIG    1       22.547 -29.675  11.595  0.00  0.00    +0.079 C 
ATOM     13  C   LIG    1       21.388 -33.095  10.436  0.00  0.00    +0.025 A 
ATOM     14  N   LIG    1       23.758 -29.377  11.274  0.00  0.00    -0.232 NA
ENDROOT
BRANCH  12  15
ATOM     15  C   LIG    1       21.904 -28.831  12.659  0.00  0.00    +0.001 A 
ATOM     16  C   LIG    1       22.394 -27.536  12.877  0.00  0.00    +0.010 A 
ATOM     17  C   LIG    1       21.786 -26.702  13.816  0.00  0.00    +0.001 A 
ATOM     18  C   LIG    1       20.689 -27.157  14.546  0.00  0.00    +0.000 A 
ATOM     19  C   LIG    1       20.214 -28.454  14.356  0.00  0.00    +0.001 A 
ATOM     20  C   LIG    1       20.827 -29.296  13.425  0.00  0.00    +0.010 A 
ENDBRANCH  12  15
BRANCH   1  21
ATOM     21  O   LIG    1       23.760 -30.159   8.925  0.00  0.00    -0.416 OA
BRANCH  21  24
ATOM     22  C   LIG    1       23.712 -32.184   7.157  0.00  0.00    +0.135 C 
ATOM     23  N   LIG    1       24.557 -31.012   6.974  0.00  0.00    -0.274 N 
ATOM     24  C   LIG    1       24.574 -29.950   7.862  0.00  0.00    +0.405 C 
ATOM     25  O   LIG    1       25.261 -28.946   7.691  0.00  0.00    -0.226 OA
ATOM     26  C   LIG    1       25.503 -31.021   5.878  0.00  0.00    +0.135 C 
ENDBRANCH  21  24
ENDBRANCH   1  21
TORSDOF 3
ENDMDL
MODEL 9
REMARK VINA RESULT:      -5.7      2.788      6.151
REMARK  Name = *****
REMARK                            x       y       z     vdW  Elec       q    Type
REMARK                         _______ _______ _______ _____ _____    ______ ____
ROOT
ATOM      1  C   LIG    1       24.976 -30.904   9.001  0.00  0.00    +0.383 C 
ATOM      2  C   LIG    1       23.873 -31.960   9.236  0.00  0.00    +0.284 C 
ATOM      3  O   LIG    1       23.769 -32.926   8.466  0.00  0.00    -0.269 OA
ATOM      4  N   LIG    1       22.960 -31.770  10.285  0.00  0.00    -0.269 N 
ATOM      5  C   LIG    1       21.873 -32.740  10.367  0.00  0.00    +0.138 C 
ATOM      6  C   LIG    1       22.917 -30.602  11.110  0.00  0.00    +0.045 A 
ATOM      7  C   LIG    1       24.060 -29.877  11.495  0.00  0.00    +0.023 A 
ATOM      8  C   LIG    1       23.938 -28.665  12.203  0.00  0.00    +0.032 A 
ATOM      9  C   LIG    1       22.688 -28.223  12.620  0.00  0.00    +0.042 A 
ATOM     10  C   LIG    1       21.553 -28.963  12.323  0.00  0.00    +0.022 A 
ATOM     11 CL   LIG    1       22.551 -26.774  13.535  0.00  0.00    -0.084 Cl
ATOM     12  C   LIG    1       25.440 -30.403  11.278  0.00  0.00    +0.079 C 
ATOM     13  C   LIG    1       21.667 -30.134  11.568  0.00  0.00    +0.025 A 
ATOM     14  N   LIG    1       25.863 -30.894  10.166  0.00  0.00    -0.232 NA
ENDROOT
BRANCH  12  15
ATOM     15  C   LIG    1       26.425 -30.353  12.412  0.00  0.00    +0.001 A 
ATOM     16  C   LIG    1       27.570 -29.558  12.271  0.00  0.00    +0.010 A 
ATOM     17  C   LIG    1       28.479 -29.441  13.324  0.00  0.00    +0.001 A 
ATOM     18  C   LIG    1       28.252 -30.119  14.521  0.00  0.00    +0.000 A 
ATOM     19  C   LIG    1       27.129 -30.934  14.657  0.00  0.00    +0.001 A 
ATOM     20  C   LIG    1       26.222 -31.064  13.602  0.00  0.00    +0.010 A 
ENDBRANCH  12  15
BRANCH   1  21
ATOM     21  O   LIG    1       24.399 -29.661   8.594  0.00  0.00    -0.416 OA
BRANCH  21  24
ATOM     22  C   LIG    1       25.989 -27.703   7.664  0.00  0.00    +0.135 C 
ATOM     23  N   LIG    1       25.109 -28.470   6.792  0.00  0.00    -0.274 N 
ATOM     24  C   LIG    1       24.303 -29.498   7.253  0.00  0.00    +0.405 C 
ATOM     25  O   LIG    1       23.586 -30.168   6.514  0.00  0.00    -0.226 OA
ATOM     26  C   LIG    1       24.989 -28.055   5.411  0.00  0.00    +0.135 C 
ENDBRANCH  21  24
ENDBRANCH   1  21
TORSDOF 3
ENDMDL
