MODEL 1
REMARK VINA RESULT:      -3.7      0.000      0.000
REMARK  Name = *****
REMARK                            x       y       z     vdW  Elec       q    Type
REMARK                         _______ _______ _______ _____ _____    ______ ____
ROOT
ATOM      1  C   LIG    1       24.195 -14.448   3.735  0.00  0.00    +0.218 C 
ATOM      2  C   LIG    1       23.273 -15.290   4.618  0.00  0.00    +0.058 C 
ENDROOT
BRANCH   1   3
ATOM      3  O   LIG    1       23.438 -13.363   3.151  0.00  0.00    -0.456 OA
BRANCH   3   5
ATOM      4  C   LIG    1       24.311 -11.449   2.127  0.00  0.00    +0.136 C 
ATOM      5  C   LIG    1       23.794 -12.070   3.393  0.00  0.00    +0.304 C 
ATOM      6  O   LIG    1       23.783 -11.544   4.491  0.00  0.00    -0.251 OA
ENDBRANCH   3   5
ENDBRANCH   1   3
BRANCH   1   7
ATOM      7  C   LIG    1       25.510 -14.062   4.469  0.00  0.00    +0.177 C 
BRANCH   7   8
ATOM      8  N   LIG    1       26.822 -14.284   3.659  0.00  0.00    +0.239 N 
ATOM      9  C   LIG    1       27.938 -13.364   4.130  0.00  0.00    +0.192 C 
ATOM     10  C   LIG    1       26.608 -14.101   2.163  0.00  0.00    +0.192 C 
ATOM     11  C   LIG    1       27.287 -15.725   3.900  0.00  0.00    +0.192 C 
ENDBRANCH   7   8
ENDBRANCH   1   7
TORSDOF 4
ENDMDL
MODEL 2
REMARK VINA RESULT:      -3.6      2.385      4.391
REMARK  Name = *****
REMARK                            x       y       z     vdW  Elec       q    Type
REMARK                         _______ _______ _______ _____ _____    ______ ____
ROOT
ATOM      1  C   LIG    1       26.943 -13.650   3.270  0.00  0.00    +0.218 C 
ATOM      2  C   LIG    1       28.375 -13.278   3.655  0.00  0.00    +0.058 C 
ENDROOT
BRANCH   1   3
ATOM      3  O   LIG    1       26.929 -14.982   2.707  0.00  0.00    -0.456 OA
BRANCH   3   5
ATOM      4  C   LIG    1       25.908 -17.014   3.258  0.00  0.00    +0.136 C 
ATOM      5  C   LIG    1       27.049 -16.071   3.517  0.00  0.00    +0.304 C 
ATOM      6  O   LIG    1       27.896 -16.200   4.381  0.00  0.00    -0.251 OA
ENDBRANCH   3   5
ENDBRANCH   1   3
BRANCH   1   7
ATOM      7  C   LIG    1       25.940 -13.375   4.425  0.00  0.00    +0.177 C 
BRANCH   7   8
ATOM      8  N   LIG    1       24.468 -13.104   3.988  0.00  0.00    +0.239 N 
ATOM      9  C   LIG    1       24.366 -12.828   2.495  0.00  0.00    +0.192 C 
ATOM     10  C   LIG    1       23.845 -11.952   4.763  0.00  0.00    +0.192 C 
ATOM     11  C   LIG    1       23.651 -14.369   4.275  0.00  0.00    +0.192 C 
ENDBRANCH   7   8
ENDBRANCH   1   7
TORSDOF 4
ENDMDL
MODEL 3
REMARK VINA RESULT:      -3.5      6.400      8.196
REMARK  Name = *****
REMARK                            x       y       z     vdW  Elec       q    Type
REMARK                         _______ _______ _______ _____ _____    ______ ____
ROOT
ATOM      1  C   LIG    1       25.381 -20.321   4.386  0.00  0.00    +0.218 C 
ATOM      2  C   LIG    1       25.302 -19.005   3.610  0.00  0.00    +0.058 C 
ENDROOT
BRANCH   1   3
ATOM      3  O   LIG    1       25.879 -20.060   5.719  0.00  0.00    -0.456 OA
BRANCH   3   5
ATOM      4  C   LIG    1       27.212 -21.436   7.061  0.00  0.00    +0.136 C 
ATOM      5  C   LIG    1       27.174 -20.340   6.034  0.00  0.00    +0.304 C 
ATOM      6  O   LIG    1       28.137 -19.724   5.616  0.00  0.00    -0.251 OA
ENDBRANCH   3   5
ENDBRANCH   1   3
BRANCH   1   7
ATOM      7  C   LIG    1       24.061 -21.136   4.285  0.00  0.00    +0.177 C 
BRANCH   7   8
ATOM      8  N   LIG    1       22.920 -20.690   5.249  0.00  0.00    +0.239 N 
ATOM      9  C   LIG    1       22.514 -19.244   5.011  0.00  0.00    +0.192 C 
ATOM     10  C   LIG    1       23.301 -20.879   6.710  0.00  0.00    +0.192 C 
ATOM     11  C   LIG    1       21.693 -21.563   4.961  0.00  0.00    +0.192 C 
ENDBRANCH   7   8
ENDBRANCH   1   7
TORSDOF 4
ENDMDL
MODEL 4
REMARK VINA RESULT:      -3.3      1.195      2.631
REMARK  Name = *****
REMARK                            x       y       z     vdW  Elec       q    Type
REMARK                         _______ _______ _______ _____ _____    ______ ____
ROOT
ATOM      1  C   LIG    1       25.171 -12.946   2.920  0.00  0.00    +0.218 C 
ATOM      2  C   LIG    1       24.578 -12.004   1.871  0.00  0.00    +0.058 C 
ENDROOT
BRANCH   1   3
ATOM      3  O   LIG    1       24.270 -14.058   3.129  0.00  0.00    -0.456 OA
BRANCH   3   5
ATOM      4  C   LIG    1       23.059 -15.609   4.394  0.00  0.00    +0.136 C 
ATOM      5  C   LIG    1       23.677 -14.241   4.342  0.00  0.00    +0.304 C 
ATOM      6  O   LIG    1       23.584 -13.385   5.203  0.00  0.00    -0.251 OA
ENDBRANCH   3   5
ENDBRANCH   1   3
BRANCH   1   7
ATOM      7  C   LIG    1       26.652 -13.301   2.611  0.00  0.00    +0.177 C 
BRANCH   7   8
ATOM      8  N   LIG    1       27.521 -13.695   3.845  0.00  0.00    +0.239 N 
ATOM      9  C   LIG    1       26.903 -13.207   5.146  0.00  0.00    +0.192 C 
ATOM     10  C   LIG    1       28.946 -13.173   3.729  0.00  0.00    +0.192 C 
ATOM     11  C   LIG    1       27.578 -15.226   3.911  0.00  0.00    +0.192 C 
ENDBRANCH   7   8
ENDBRANCH   1   7
TORSDOF 4
ENDMDL
MODEL 5
REMARK VINA RESULT:      -3.3      1.177      2.818
REMARK  Name = *****
REMARK                            x       y       z     vdW  Elec       q    Type
REMARK                         _______ _______ _______ _____ _____    ______ ____
ROOT
ATOM      1  C   LIG    1       25.131 -12.899   2.927  0.00  0.00    +0.218 C 
ATOM      2  C   LIG    1       24.544 -11.948   1.883  0.00  0.00    +0.058 C 
ENDROOT
BRANCH   1   3
ATOM      3  O   LIG    1       24.228 -14.012   3.121  0.00  0.00    -0.456 OA
BRANCH   3   5
ATOM      4  C   LIG    1       23.073 -15.613   4.375  0.00  0.00    +0.136 C 
ATOM      5  C   LIG    1       23.662 -14.232   4.341  0.00  0.00    +0.304 C 
ATOM      6  O   LIG    1       23.569 -13.396   5.220  0.00  0.00    -0.251 OA
ENDBRANCH   3   5
ENDBRANCH   1   3
BRANCH   1   7
ATOM      7  C   LIG    1       26.614 -13.252   2.625  0.00  0.00    +0.177 C 
BRANCH   7   8
ATOM      8  N   LIG    1       27.452 -13.737   3.846  0.00  0.00    +0.239 N 
ATOM      9  C   LIG    1       27.530 -15.255   3.908  0.00  0.00    +0.192 C 
ATOM     10  C   LIG    1       26.907 -13.200   5.162  0.00  0.00    +0.192 C 
ATOM     11  C   LIG    1       28.883 -13.213   3.673  0.00  0.00    +0.192 C 
ENDBRANCH   7   8
ENDBRANCH   1   7
TORSDOF 4
ENDMDL
MODEL 6
REMARK VINA RESULT:      -3.2      1.203      2.689
REMARK  Name = *****
REMARK                            x       y       z     vdW  Elec       q    Type
REMARK                         _______ _______ _______ _____ _____    ______ ____
ROOT
ATOM      1  C   LIG    1       25.164 -12.981   2.939  0.00  0.00    +0.218 C 
ATOM      2  C   LIG    1       24.514 -12.068   1.898  0.00  0.00    +0.058 C 
ENDROOT
BRANCH   1   3
ATOM      3  O   LIG    1       24.313 -14.128   3.167  0.00  0.00    -0.456 OA
BRANCH   3   5
ATOM      4  C   LIG    1       23.023 -15.634   4.408  0.00  0.00    +0.136 C 
ATOM      5  C   LIG    1       23.670 -14.279   4.358  0.00  0.00    +0.304 C 
ATOM      6  O   LIG    1       23.561 -13.407   5.200  0.00  0.00    -0.251 OA
ENDBRANCH   3   5
ENDBRANCH   1   3
BRANCH   1   7
ATOM      7  C   LIG    1       26.653 -13.277   2.605  0.00  0.00    +0.177 C 
BRANCH   7   8
ATOM      8  N   LIG    1       27.533 -13.738   3.805  0.00  0.00    +0.239 N 
ATOM      9  C   LIG    1       28.950 -13.195   3.707  0.00  0.00    +0.192 C 
ATOM     10  C   LIG    1       27.576 -15.254   3.932  0.00  0.00    +0.192 C 
ATOM     11  C   LIG    1       26.914 -13.171   5.089  0.00  0.00    +0.192 C 
ENDBRANCH   7   8
ENDBRANCH   1   7
TORSDOF 4
ENDMDL
MODEL 7
REMARK VINA RESULT:      -2.9      6.843      8.375
REMARK  Name = *****
REMARK                            x       y       z     vdW  Elec       q    Type
REMARK                         _______ _______ _______ _____ _____    ______ ____
ROOT
ATOM      1  C   LIG    1       26.054 -20.488   5.955  0.00  0.00    +0.218 C 
ATOM      2  C   LIG    1       26.382 -19.696   4.688  0.00  0.00    +0.058 C 
ENDROOT
BRANCH   1   3
ATOM      3  O   LIG    1       26.957 -20.093   7.013  0.00  0.00    -0.456 OA
BRANCH   3   5
ATOM      4  C   LIG    1       29.115 -19.190   6.964  0.00  0.00    +0.136 C 
ATOM      5  C   LIG    1       28.274 -20.435   6.954  0.00  0.00    +0.304 C 
ATOM      6  O   LIG    1       28.688 -21.571   6.816  0.00  0.00    -0.251 OA
ENDBRANCH   3   5
ENDBRANCH   1   3
BRANCH   1   7
ATOM      7  C   LIG    1       24.536 -20.451   6.287  0.00  0.00    +0.177 C 
BRANCH   7   8
ATOM      8  N   LIG    1       23.578 -20.704   5.084  0.00  0.00    +0.239 N 
ATOM      9  C   LIG    1       24.230 -21.572   4.018  0.00  0.00    +0.192 C 
ATOM     10  C   LIG    1       23.093 -19.405   4.458  0.00  0.00    +0.192 C 
ATOM     11  C   LIG    1       22.355 -21.467   5.608  0.00  0.00    +0.192 C 
ENDBRANCH   7   8
ENDBRANCH   1   7
TORSDOF 4
ENDMDL
MODEL 8
REMARK VINA RESULT:      -2.9      5.256      6.814
REMARK  Name = *****
REMARK                            x       y       z     vdW  Elec       q    Type
REMARK                         _______ _______ _______ _____ _____    ______ ____
ROOT
ATOM      1  C   LIG    1       22.976 -19.031   4.200  0.00  0.00    +0.218 C 
ATOM      2  C   LIG    1       21.567 -18.561   3.838  0.00  0.00    +0.058 C 
ENDROOT
BRANCH   1   3
ATOM      3  O   LIG    1       23.942 -18.079   3.697  0.00  0.00    -0.456 OA
BRANCH   3   5
ATOM      4  C   LIG    1       26.118 -17.292   3.353  0.00  0.00    +0.136 C 
ATOM      5  C   LIG    1       25.204 -18.484   3.382  0.00  0.00    +0.304 C 
ATOM      6  O   LIG    1       25.509 -19.622   3.076  0.00  0.00    -0.251 OA
ENDBRANCH   3   5
ENDBRANCH   1   3
BRANCH   1   7
ATOM      7  C   LIG    1       23.095 -19.411   5.702  0.00  0.00    +0.177 C 
BRANCH   7   8
ATOM      8  N   LIG    1       23.843 -20.745   6.001  0.00  0.00    +0.239 N 
ATOM      9  C   LIG    1       23.122 -21.572   7.055  0.00  0.00    +0.192 C 
ATOM     10  C   LIG    1       25.282 -20.508   6.437  0.00  0.00    +0.192 C 
ATOM     11  C   LIG    1       23.867 -21.572   4.710  0.00  0.00    +0.192 C 
ENDBRANCH   7   8
ENDBRANCH   1   7
TORSDOF 4
ENDMDL
MODEL 9
REMARK VINA RESULT:      -2.8      1.703      2.876
REMARK  Name = *****
REMARK                            x       y       z     vdW  Elec       q    Type
REMARK                         _______ _______ _______ _____ _____    ______ ____
ROOT
ATOM      1  C   LIG    1       25.954 -15.497   3.435  0.00  0.00    +0.218 C 
ATOM      2  C   LIG    1       25.885 -17.014   3.250  0.00  0.00    +0.058 C 
ENDROOT
BRANCH   1   3
ATOM      3  O   LIG    1       24.991 -15.093   4.436  0.00  0.00    -0.456 OA
BRANCH   3   5
ATOM      4  C   LIG    1       22.716 -15.567   4.696  0.00  0.00    +0.136 C 
ATOM      5  C   LIG    1       23.748 -14.678   4.064  0.00  0.00    +0.304 C 
ATOM      6  O   LIG    1       23.526 -13.788   3.264  0.00  0.00    -0.251 OA
ENDBRANCH   3   5
ENDBRANCH   1   3
BRANCH   1   7
ATOM      7  C   LIG    1       27.413 -15.002   3.635  0.00  0.00    +0.177 C 
BRANCH   7   8
ATOM      8  N   LIG    1       27.580 -13.467   3.847  0.00  0.00    +0.239 N 
ATOM      9  C   LIG    1       26.708 -12.669   2.890  0.00  0.00    +0.192 C 
ATOM     10  C   LIG    1       29.029 -13.025   3.707  0.00  0.00    +0.192 C 
ATOM     11  C   LIG    1       27.117 -13.135   5.271  0.00  0.00    +0.192 C 
ENDBRANCH   7   8
ENDBRANCH   1   7
TORSDOF 4
ENDMDL
