MODEL 1
REMARK VINA RESULT:      13.4      0.000      0.000
REMARK  Name = *****
REMARK                            x       y       z     vdW  Elec       q    Type
REMARK                         _______ _______ _______ _____ _____    ______ ____
ROOT
ATOM      1  C   LIG    1       25.281 -15.185   4.112  0.00  0.00    +0.064 A 
ATOM      2  C   LIG    1       24.310 -16.184   4.201  0.00  0.00    +0.049 A 
ATOM      3  I   LIG    1       23.128 -16.039   6.130  0.00  0.00    -0.041 I 
ATOM      4  C   LIG    1       24.621 -17.489   3.780  0.00  0.00    +0.065 A 
ATOM      5  C   LIG    1       25.966 -17.774   3.559  0.00  0.00    +0.040 A 
ATOM      6  I   LIG    1       26.553 -19.158   2.029  0.00  0.00    -0.042 I 
ATOM      7  C   LIG    1       26.890 -16.971   4.212  0.00  0.00    +0.065 A 
ATOM      8  C   LIG    1       26.510 -15.648   4.568  0.00  0.00    +0.049 A 
ATOM      9  I   LIG    1       27.315 -14.394   6.094  0.00  0.00    -0.041 I 
ENDROOT
BRANCH   4  10
ATOM     10  C   LIG    1       23.657 -18.631   3.732  0.00  0.00    +0.246 C 
ATOM     11  N   LIG    1       24.128 -19.876   4.083  0.00  0.00    -0.309 N 
ATOM     12  H   LIG    1       25.083 -19.956   4.411  0.00  0.00    +0.149 HD
ATOM     13  O   LIG    1       22.514 -18.447   3.378  0.00  0.00    -0.270 OA
BRANCH  11  14
ATOM     14  C   LIG    1       23.329 -21.076   4.060  0.00  0.00    +0.138 C 
BRANCH  14  15
ATOM     15  C   LIG    1       22.340 -21.388   5.209  0.00  0.00    +0.157 C 
BRANCH  15  16
ATOM     16  O   LIG    1       21.073 -20.776   4.885  0.00  0.00    -0.388 OA
ATOM     17  H   LIG    1       21.096 -20.505   3.952  0.00  0.00    +0.210 HD
ENDBRANCH  15  16
BRANCH  15  18
ATOM     18  C   LIG    1       22.772 -20.887   6.600  0.00  0.00    +0.188 C 
BRANCH  18  19
ATOM     19  O   LIG    1       23.976 -20.143   6.640  0.00  0.00    -0.392 OA
ATOM     20  H   LIG    1       24.614 -20.675   7.156  0.00  0.00    +0.209 HD
ENDBRANCH  18  19
ENDBRANCH  15  18
ENDBRANCH  14  15
ENDBRANCH  11  14
ENDBRANCH   4  10
BRANCH   7  21
ATOM     21  C   LIG    1       28.075 -17.636   4.799  0.00  0.00    +0.246 C 
ATOM     22  N   LIG    1       27.922 -18.236   6.049  0.00  0.00    -0.309 N 
ATOM     23  H   LIG    1       27.170 -17.929   6.631  0.00  0.00    +0.149 HD
ATOM     24  O   LIG    1       29.059 -17.737   4.126  0.00  0.00    -0.270 OA
BRANCH  22  25
ATOM     25  C   LIG    1       28.824 -19.213   6.639  0.00  0.00    +0.138 C 
BRANCH  25  26
ATOM     26  C   LIG    1       28.302 -20.638   6.840  0.00  0.00    +0.157 C 
BRANCH  26  27
ATOM     27  O   LIG    1       29.104 -21.572   6.113  0.00  0.00    -0.388 OA
ATOM     28  H   LIG    1       28.807 -21.515   5.176  0.00  0.00    +0.210 HD
ENDBRANCH  26  27
BRANCH  26  29
ATOM     29  C   LIG    1       26.770 -20.835   6.666  0.00  0.00    +0.188 C 
BRANCH  29  30
ATOM     30  O   LIG    1       26.185 -21.227   5.442  0.00  0.00    -0.392 OA
ATOM     31  H   LIG    1       25.826 -20.458   4.989  0.00  0.00    +0.209 HD
ENDBRANCH  29  30
ENDBRANCH  26  29
ENDBRANCH  25  26
ENDBRANCH  22  25
ENDBRANCH   7  21
BRANCH   1  34
ATOM     32  O   LIG    1       23.671 -12.772   4.303  0.00  0.00    -0.273 OA
ATOM     33  C   LIG    1       24.269 -13.016   3.250  0.00  0.00    +0.245 C 
ATOM     34  N   LIG    1       25.178 -14.106   3.100  0.00  0.00    -0.265 N 
BRANCH  34  35
ATOM     35  C   LIG    1       25.920 -14.204   1.830  0.00  0.00    +0.141 C 
BRANCH  35  36
ATOM     36  C   LIG    1       27.437 -14.103   1.833  0.00  0.00    +0.175 C 
BRANCH  36  37
ATOM     37  O   LIG    1       27.901 -13.452   3.007  0.00  0.00    -0.393 OA
ATOM     38  H   LIG    1       27.221 -13.599   3.690  0.00  0.00    +0.209 HD
ENDBRANCH  36  37
ENDBRANCH  35  36
ENDBRANCH  34  35
BRANCH  33  39
ATOM     39  C   LIG    1       24.126 -11.995   2.064  0.00  0.00    +0.252 C 
BRANCH  39  40
ATOM     40  O   LIG    1       22.843 -11.452   1.813  0.00  0.00    -0.386 OA
ATOM     41  H   LIG    1       22.561 -11.756   0.929  0.00  0.00    +0.210 HD
ENDBRANCH  39  40
ENDBRANCH  33  39
ENDBRANCH   1  34
TORSDOF 18
ENDMDL
MODEL 2
REMARK VINA RESULT:      15.8      0.745      1.641
REMARK  Name = *****
REMARK                            x       y       z     vdW  Elec       q    Type
REMARK                         _______ _______ _______ _____ _____    ______ ____
ROOT
ATOM      1  C   LIG    1       25.495 -15.275   4.141  0.00  0.00    +0.064 A 
ATOM      2  C   LIG    1       24.517 -16.270   4.151  0.00  0.00    +0.049 A 
ATOM      3  I   LIG    1       23.252 -16.188   6.030  0.00  0.00    -0.041 I 
ATOM      4  C   LIG    1       24.840 -17.561   3.696  0.00  0.00    +0.065 A 
ATOM      5  C   LIG    1       26.192 -17.846   3.525  0.00  0.00    +0.040 A 
ATOM      6  I   LIG    1       26.840 -19.176   1.973  0.00  0.00    -0.042 I 
ATOM      7  C   LIG    1       27.090 -17.073   4.247  0.00  0.00    +0.065 A 
ATOM      8  C   LIG    1       26.701 -15.761   4.633  0.00  0.00    +0.049 A 
ATOM      9  I   LIG    1       27.443 -14.568   6.238  0.00  0.00    -0.041 I 
ENDROOT
BRANCH   4  10
ATOM     10  C   LIG    1       23.874 -18.694   3.564  0.00  0.00    +0.246 C 
ATOM     11  N   LIG    1       24.212 -19.890   4.157  0.00  0.00    -0.309 N 
ATOM     12  H   LIG    1       25.065 -19.935   4.701  0.00  0.00    +0.149 HD
ATOM     13  O   LIG    1       22.848 -18.548   2.940  0.00  0.00    -0.270 OA
BRANCH  11  14
ATOM     14  C   LIG    1       23.399 -21.079   4.093  0.00  0.00    +0.138 C 
BRANCH  14  15
ATOM     15  C   LIG    1       22.218 -21.281   5.073  0.00  0.00    +0.157 C 
BRANCH  15  16
ATOM     16  O   LIG    1       21.168 -20.363   4.703  0.00  0.00    -0.388 OA
ATOM     17  H   LIG    1       20.326 -20.710   5.042  0.00  0.00    +0.210 HD
ENDBRANCH  15  16
BRANCH  15  18
ATOM     18  C   LIG    1       22.552 -21.052   6.559  0.00  0.00    +0.188 C 
BRANCH  18  19
ATOM     19  O   LIG    1       23.681 -20.235   6.817  0.00  0.00    -0.392 OA
ATOM     20  H   LIG    1       23.396 -19.312   6.665  0.00  0.00    +0.209 HD
ENDBRANCH  18  19
ENDBRANCH  15  18
ENDBRANCH  14  15
ENDBRANCH  11  14
ENDBRANCH   4  10
BRANCH   7  21
ATOM     21  C   LIG    1       28.246 -17.765   4.860  0.00  0.00    +0.246 C 
ATOM     22  N   LIG    1       28.056 -18.341   6.117  0.00  0.00    -0.309 N 
ATOM     23  H   LIG    1       27.305 -18.001   6.684  0.00  0.00    +0.149 HD
ATOM     24  O   LIG    1       29.235 -17.908   4.203  0.00  0.00    -0.270 OA
BRANCH  22  25
ATOM     25  C   LIG    1       28.918 -19.337   6.735  0.00  0.00    +0.138 C 
BRANCH  25  26
ATOM     26  C   LIG    1       28.413 -20.781   6.795  0.00  0.00    +0.157 C 
BRANCH  26  27
ATOM     27  O   LIG    1       29.017 -21.566   5.765  0.00  0.00    -0.388 OA
ATOM     28  H   LIG    1       28.314 -22.170   5.433  0.00  0.00    +0.210 HD
ENDBRANCH  26  27
BRANCH  26  29
ATOM     29  C   LIG    1       26.874 -20.961   6.921  0.00  0.00    +0.188 C 
BRANCH  29  30
ATOM     30  O   LIG    1       25.956 -20.289   6.086  0.00  0.00    -0.392 OA
ATOM     31  H   LIG    1       25.889 -19.365   6.348  0.00  0.00    +0.209 HD
ENDBRANCH  29  30
ENDBRANCH  26  29
ENDBRANCH  25  26
ENDBRANCH  22  25
ENDBRANCH   7  21
BRANCH   1  34
ATOM     32  O   LIG    1       27.762 -13.862   2.994  0.00  0.00    -0.273 OA
ATOM     33  C   LIG    1       26.618 -13.464   2.751  0.00  0.00    +0.245 C 
ATOM     34  N   LIG    1       25.442 -14.159   3.165  0.00  0.00    -0.265 N 
BRANCH  34  35
ATOM     35  C   LIG    1       24.145 -13.640   2.697  0.00  0.00    +0.141 C 
BRANCH  35  36
ATOM     36  C   LIG    1       23.164 -13.050   3.698  0.00  0.00    +0.175 C 
BRANCH  36  37
ATOM     37  O   LIG    1       23.736 -11.943   4.379  0.00  0.00    -0.393 OA
ATOM     38  H   LIG    1       23.428 -11.144   3.914  0.00  0.00    +0.209 HD
ENDBRANCH  36  37
ENDBRANCH  35  36
ENDBRANCH  34  35
BRANCH  33  39
ATOM     39  C   LIG    1       26.453 -12.206   1.824  0.00  0.00    +0.252 C 
BRANCH  39  40
ATOM     40  O   LIG    1       25.262 -11.449   1.946  0.00  0.00    -0.386 OA
ATOM     41  H   LIG    1       24.518 -12.027   1.689  0.00  0.00    +0.210 HD
ENDBRANCH  39  40
ENDBRANCH  33  39
ENDBRANCH   1  34
TORSDOF 18
ENDMDL
