MODEL 1
REMARK VINA RESULT:      -4.9      0.000      0.000
REMARK  Name = *****
REMARK                            x       y       z     vdW  Elec       q    Type
REMARK                         _______ _______ _______ _____ _____    ______ ____
ROOT
ATOM      1  N   ALA A  1       24.329 -17.578   4.240  0.00  0.00    -0.294 NA
ATOM      2  H   ALA A  1       25.319 -17.791   4.098  0.00  0.00    +0.123 HD
ENDROOT
BRANCH   1   3
ATOM      3  CA  ALA A  1       24.043 -16.239   3.665  0.00  0.00    +0.138 C 
ATOM      4  CB  ALA A  1       23.097 -15.484   4.607  0.00  0.00    +0.034 C 
BRANCH   3   5
ATOM      5  C   ALA A  1       25.349 -15.450   3.421  0.00  0.00    +0.233 C 
ATOM      6  N   PRO A  2       25.317 -14.077   3.265  0.00  0.00    -0.287 N 
ATOM      7  CA  PRO A  2       26.529 -13.379   2.785  0.00  0.00    +0.184 C 
ATOM      8  CB  PRO A  2       26.050 -11.970   2.415  0.00  0.00    +0.035 C 
ATOM      9  CG  PRO A  2       24.570 -12.153   2.113  0.00  0.00    +0.021 C 
ATOM     10  CD  PRO A  2       24.142 -13.229   3.104  0.00  0.00    +0.109 C 
ATOM     11  O   ALA A  1       26.445 -16.020   3.437  0.00  0.00    -0.274 OA
BRANCH   7  12
ATOM     12  C   PRO A  2       27.671 -13.292   3.812  0.00  0.00    +0.326 C 
ATOM     13  O   PRO A  2       28.836 -13.478   3.529  0.00  0.00    -0.249 OA
BRANCH  12  14
ATOM     14  OXT PRO A  2       27.291 -12.956   5.067  0.00  0.00    -0.479 OA
ATOM     15  HXT PRO A  2       28.002 -12.477   5.519  0.00  0.00    +0.295 HD
ENDBRANCH  12  14
ENDBRANCH   7  12
ENDBRANCH   3   5
ENDBRANCH   1   3
BRANCH   1  16
ATOM     16  C   UNK A  0       23.533 -18.675   3.620  0.00  0.00    +0.164 C 
BRANCH  16  17
ATOM     17  C   UNK A  0       22.235 -18.912   4.390  0.00  0.00    +0.324 C 
ATOM     18  O   UNK A  0       21.116 -18.643   3.987  0.00  0.00    -0.249 OA
BRANCH  17  19
ATOM     19  O   UNK A  0       22.494 -19.498   5.595  0.00  0.00    -0.464 OA
BRANCH  19  21
ATOM     20  C   UNK A  0       23.095 -21.493   6.819  0.00  0.00    +0.048 C 
ATOM     21  C   UNK A  0       22.386 -20.928   5.605  0.00  0.00    +0.229 C 
ENDBRANCH  19  21
ENDBRANCH  17  19
ENDBRANCH  16  17
BRANCH  16  22
ATOM     22  C   UNK A  0       24.373 -19.959   3.605  0.00  0.00    +0.035 C 
BRANCH  22  23
ATOM     23  C   UNK A  0       25.870 -19.664   3.447  0.00  0.00    +0.037 C 
BRANCH  23  24
ATOM     24  C   UNK A  0       26.624 -19.951   4.720  0.00  0.00    -0.047 A 
ATOM     25  C   UNK A  0       26.097 -20.831   5.673  0.00  0.00    +0.003 A 
ATOM     26  C   UNK A  0       26.808 -21.111   6.840  0.00  0.00    +0.000 A 
ATOM     27  C   UNK A  0       28.050 -20.519   7.062  0.00  0.00    +0.000 A 
ATOM     28  C   UNK A  0       28.585 -19.647   6.115  0.00  0.00    +0.000 A 
ATOM     29  C   UNK A  0       27.876 -19.365   4.947  0.00  0.00    +0.003 A 
ENDBRANCH  23  24
ENDBRANCH  22  23
ENDBRANCH  16  22
ENDBRANCH   1  16
TORSDOF 11
ENDMDL
MODEL 2
REMARK VINA RESULT:      -4.4      0.896      1.973
REMARK  Name = *****
REMARK                            x       y       z     vdW  Elec       q    Type
REMARK                         _______ _______ _______ _____ _____    ______ ____
ROOT
ATOM      1  N   ALA A  1       24.288 -17.563   4.087  0.00  0.00    -0.294 NA
ATOM      2  H   ALA A  1       25.212 -17.846   3.751  0.00  0.00    +0.123 HD
ENDROOT
BRANCH   1   3
ATOM      3  CA  ALA A  1       24.022 -16.174   3.636  0.00  0.00    +0.138 C 
ATOM      4  CB  ALA A  1       23.156 -15.466   4.685  0.00  0.00    +0.034 C 
BRANCH   3   5
ATOM      5  C   ALA A  1       25.341 -15.411   3.382  0.00  0.00    +0.233 C 
ATOM      6  N   PRO A  2       25.335 -14.038   3.220  0.00  0.00    -0.287 N 
ATOM      7  CA  PRO A  2       26.557 -13.365   2.731  0.00  0.00    +0.184 C 
ATOM      8  CB  PRO A  2       26.103 -11.949   2.359  0.00  0.00    +0.035 C 
ATOM      9  CG  PRO A  2       24.619 -12.105   2.065  0.00  0.00    +0.021 C 
ATOM     10  CD  PRO A  2       24.176 -13.168   3.062  0.00  0.00    +0.109 C 
ATOM     11  O   ALA A  1       26.427 -16.002   3.393  0.00  0.00    -0.274 OA
BRANCH   7  12
ATOM     12  C   PRO A  2       27.707 -13.297   3.751  0.00  0.00    +0.326 C 
ATOM     13  O   PRO A  2       27.537 -13.073   4.932  0.00  0.00    -0.249 OA
BRANCH  12  14
ATOM     14  OXT PRO A  2       28.939 -13.540   3.246  0.00  0.00    -0.479 OA
ATOM     15  HXT PRO A  2       29.580 -12.903   3.595  0.00  0.00    +0.295 HD
ENDBRANCH  12  14
ENDBRANCH   7  12
ENDBRANCH   3   5
ENDBRANCH   1   3
BRANCH   1  16
ATOM     16  C   UNK A  0       23.296 -18.554   3.585  0.00  0.00    +0.164 C 
BRANCH  16  17
ATOM     17  C   UNK A  0       22.201 -18.806   4.620  0.00  0.00    +0.324 C 
ATOM     18  O   UNK A  0       22.337 -19.442   5.652  0.00  0.00    -0.249 OA
BRANCH  17  19
ATOM     19  O   UNK A  0       21.040 -18.195   4.247  0.00  0.00    -0.464 OA
BRANCH  19  21
ATOM     20  C   UNK A  0       19.360 -18.138   2.509  0.00  0.00    +0.048 C 
ATOM     21  C   UNK A  0       20.157 -19.007   3.461  0.00  0.00    +0.229 C 
ENDBRANCH  19  21
ENDBRANCH  17  19
ENDBRANCH  16  17
BRANCH  16  22
ATOM     22  C   UNK A  0       24.018 -19.869   3.258  0.00  0.00    +0.035 C 
BRANCH  22  23
ATOM     23  C   UNK A  0       25.544 -19.705   3.278  0.00  0.00    +0.037 C 
BRANCH  23  24
ATOM     24  C   UNK A  0       26.127 -20.151   4.593  0.00  0.00    -0.047 A 
ATOM     25  C   UNK A  0       27.396 -19.715   4.991  0.00  0.00    +0.003 A 
ATOM     26  C   UNK A  0       27.923 -20.112   6.219  0.00  0.00    +0.000 A 
ATOM     27  C   UNK A  0       27.186 -20.943   7.061  0.00  0.00    +0.000 A 
ATOM     28  C   UNK A  0       25.919 -21.377   6.676  0.00  0.00    +0.000 A 
ATOM     29  C   UNK A  0       25.389 -20.981   5.448  0.00  0.00    +0.003 A 
ENDBRANCH  23  24
ENDBRANCH  22  23
ENDBRANCH  16  22
ENDBRANCH   1  16
TORSDOF 11
ENDMDL
MODEL 3
REMARK VINA RESULT:      -2.6      1.576      2.089
REMARK  Name = *****
REMARK                            x       y       z     vdW  Elec       q    Type
REMARK                         _______ _______ _______ _____ _____    ______ ____
ROOT
ATOM      1  N   ALA A  1       24.277 -17.424   4.354  0.00  0.00    -0.294 NA
ATOM      2  H   ALA A  1       25.208 -17.052   4.151  0.00  0.00    +0.123 HD
ENDROOT
BRANCH   1   3
ATOM      3  CA  ALA A  1       23.268 -16.386   4.025  0.00  0.00    +0.138 C 
ATOM      4  CB  ALA A  1       22.195 -16.368   5.121  0.00  0.00    +0.034 C 
BRANCH   3   5
ATOM      5  C   ALA A  1       23.931 -15.000   3.859  0.00  0.00    +0.233 C 
ATOM      6  N   PRO A  2       25.269 -14.901   3.523  0.00  0.00    -0.287 N 
ATOM      7  CA  PRO A  2       25.938 -13.586   3.618  0.00  0.00    +0.184 C 
ATOM      8  CB  PRO A  2       27.436 -13.900   3.508  0.00  0.00    +0.035 C 
ATOM      9  CG  PRO A  2       27.544 -15.340   3.985  0.00  0.00    +0.021 C 
ATOM     10  CD  PRO A  2       26.254 -15.973   3.479  0.00  0.00    +0.109 C 
ATOM     11  O   ALA A  1       23.263 -13.964   3.948  0.00  0.00    -0.274 OA
BRANCH   7  12
ATOM     12  C   PRO A  2       25.533 -12.577   2.529  0.00  0.00    +0.326 C 
ATOM     13  O   PRO A  2       24.410 -12.503   2.076  0.00  0.00    -0.249 OA
BRANCH  12  14
ATOM     14  OXT PRO A  2       26.517 -11.739   2.126  0.00  0.00    -0.479 OA
ATOM     15  HXT PRO A  2       26.212 -11.188   1.390  0.00  0.00    +0.295 HD
ENDBRANCH  12  14
ENDBRANCH   7  12
ENDBRANCH   3   5
ENDBRANCH   1   3
BRANCH   1  16
ATOM     16  C   UNK A  0       24.109 -18.685   3.579  0.00  0.00    +0.164 C 
BRANCH  16  17
ATOM     17  C   UNK A  0       22.909 -19.483   4.084  0.00  0.00    +0.324 C 
ATOM     18  O   UNK A  0       21.748 -19.112   4.047  0.00  0.00    -0.249 OA
BRANCH  17  19
ATOM     19  O   UNK A  0       23.309 -20.695   4.565  0.00  0.00    -0.464 OA
BRANCH  19  21
ATOM     20  C   UNK A  0       23.358 -20.496   6.974  0.00  0.00    +0.048 C 
ATOM     21  C   UNK A  0       22.660 -21.107   5.776  0.00  0.00    +0.229 C 
ENDBRANCH  19  21
ENDBRANCH  17  19
ENDBRANCH  16  17
BRANCH  16  22
ATOM     22  C   UNK A  0       25.387 -19.527   3.706  0.00  0.00    +0.035 C 
BRANCH  22  23
ATOM     23  C   UNK A  0       26.514 -18.756   4.405  0.00  0.00    +0.037 C 
BRANCH  23  24
ATOM     24  C   UNK A  0       27.287 -19.646   5.344  0.00  0.00    -0.047 A 
ATOM     25  C   UNK A  0       26.658 -20.726   5.975  0.00  0.00    +0.003 A 
ATOM     26  C   UNK A  0       27.382 -21.561   6.826  0.00  0.00    +0.000 A 
ATOM     27  C   UNK A  0       28.738 -21.327   7.050  0.00  0.00    +0.000 A 
ATOM     28  C   UNK A  0       29.373 -20.257   6.421  0.00  0.00    +0.000 A 
ATOM     29  C   UNK A  0       28.651 -19.421   5.569  0.00  0.00    +0.003 A 
ENDBRANCH  23  24
ENDBRANCH  22  23
ENDBRANCH  16  22
ENDBRANCH   1  16
TORSDOF 11
ENDMDL
MODEL 4
REMARK VINA RESULT:      -2.1      1.446      2.448
REMARK  Name = *****
REMARK                            x       y       z     vdW  Elec       q    Type
REMARK                         _______ _______ _______ _____ _____    ______ ____
ROOT
ATOM      1  N   ALA A  1       23.187 -18.141   5.377  0.00  0.00    -0.294 NA
ATOM      2  H   ALA A  1       24.088 -17.966   5.829  0.00  0.00    +0.123 HD
ENDROOT
BRANCH   1   3
ATOM      3  CA  ALA A  1       23.015 -17.168   4.269  0.00  0.00    +0.138 C 
ATOM      4  CB  ALA A  1       22.135 -16.009   4.755  0.00  0.00    +0.034 C 
BRANCH   3   5
ATOM      5  C   ALA A  1       24.382 -16.664   3.755  0.00  0.00    +0.233 C 
ATOM      6  N   PRO A  2       24.693 -15.318   3.799  0.00  0.00    -0.287 N 
ATOM      7  CA  PRO A  2       25.889 -14.831   3.078  0.00  0.00    +0.184 C 
ATOM      8  CB  PRO A  2       25.741 -13.305   3.058  0.00  0.00    +0.035 C 
ATOM      9  CG  PRO A  2       24.242 -13.080   3.188  0.00  0.00    +0.021 C 
ATOM     10  CD  PRO A  2       23.799 -14.210   4.109  0.00  0.00    +0.109 C 
ATOM     11  O   ALA A  1       25.245 -17.460   3.368  0.00  0.00    -0.274 OA
BRANCH   7  12
ATOM     12  C   PRO A  2       27.232 -15.221   3.721  0.00  0.00    +0.326 C 
ATOM     13  O   PRO A  2       27.958 -14.424   4.277  0.00  0.00    -0.249 OA
BRANCH  12  14
ATOM     14  OXT PRO A  2       27.540 -16.537   3.655  0.00  0.00    -0.479 OA
ATOM     15  HXT PRO A  2       26.744 -17.077   3.767  0.00  0.00    +0.295 HD
ENDBRANCH  12  14
ENDBRANCH   7  12
ENDBRANCH   3   5
ENDBRANCH   1   3
BRANCH   1  16
ATOM     16  C   UNK A  0       23.168 -19.562   4.930  0.00  0.00    +0.164 C 
BRANCH  16  17
ATOM     17  C   UNK A  0       21.788 -19.952   4.404  0.00  0.00    +0.324 C 
ATOM     18  O   UNK A  0       21.223 -21.011   4.618  0.00  0.00    -0.249 OA
BRANCH  17  19
ATOM     19  O   UNK A  0       21.249 -18.933   3.674  0.00  0.00    -0.464 OA
BRANCH  19  21
ATOM     20  C   UNK A  0       19.369 -17.890   2.568  0.00  0.00    +0.048 C 
ATOM     21  C   UNK A  0       19.849 -19.066   3.395  0.00  0.00    +0.229 C 
ENDBRANCH  19  21
ENDBRANCH  17  19
ENDBRANCH  16  17
BRANCH  16  22
ATOM     22  C   UNK A  0       23.551 -20.465   6.110  0.00  0.00    +0.035 C 
BRANCH  22  23
ATOM     23  C   UNK A  0       24.568 -21.540   5.704  0.00  0.00    +0.037 C 
BRANCH  23  24
ATOM     24  C   UNK A  0       25.982 -21.049   5.874  0.00  0.00    -0.047 A 
ATOM     25  C   UNK A  0       26.488 -20.041   5.044  0.00  0.00    +0.003 A 
ATOM     26  C   UNK A  0       27.790 -19.574   5.219  0.00  0.00    +0.000 A 
ATOM     27  C   UNK A  0       28.595 -20.105   6.226  0.00  0.00    +0.000 A 
ATOM     28  C   UNK A  0       28.097 -21.103   7.062  0.00  0.00    +0.000 A 
ATOM     29  C   UNK A  0       26.794 -21.572   6.889  0.00  0.00    +0.003 A 
ENDBRANCH  23  24
ENDBRANCH  22  23
ENDBRANCH  16  22
ENDBRANCH   1  16
TORSDOF 11
ENDMDL
