MODEL 1
REMARK VINA RESULT:      -9.1      0.000      0.000
REMARK  Name = *****
REMARK                            x       y       z     vdW  Elec       q    Type
REMARK                         _______ _______ _______ _____ _____    ______ ____
ROOT
ATOM      1  C   LIG    1       27.617 -20.123   6.257  0.00  0.00    +0.162 C 
ENDROOT
BRANCH   1   2
ATOM      2  C   LIG    1       26.531 -21.156   6.525  0.00  0.00    -0.007 A 
ATOM      3  C   LIG    1       25.181 -21.030   6.068  0.00  0.00    +0.009 A 
ATOM      4  C   LIG    1       24.257 -22.008   6.501  0.00  0.00    +0.071 A 
ATOM      5  C   LIG    1       22.928 -21.926   6.112  0.00  0.00    +0.032 A 
ATOM      6  C   LIG    1       22.466 -20.910   5.274  0.00  0.00    +0.048 A 
ATOM      7  C   LIG    1       23.351 -19.954   4.803  0.00  0.00    +0.121 A 
ATOM      8  N   LIG    1       24.582 -23.047   7.282  0.00  0.00    -0.255 NA
ATOM      9  C   LIG    1       25.872 -23.192   7.620  0.00  0.00    +0.112 A 
ATOM     10  C   LIG    1       24.695 -20.013   5.198  0.00  0.00    +0.056 A 
ATOM     11  C   LIG    1       26.863 -22.307   7.255  0.00  0.00    +0.026 A 
BRANCH   7  12
ATOM     12  O   LIG    1       23.034 -18.926   3.956  0.00  0.00    -0.495 OA
ATOM     13  C   LIG    1       22.056 -18.000   4.422  0.00  0.00    +0.277 C 
ENDBRANCH   7  12
ENDBRANCH   1   2
BRANCH   1  17
ATOM     14  C   LIG    1       30.053 -18.095   8.373  0.00  0.00    +0.028 C 
ATOM     15  C   LIG    1       31.021 -18.851   7.430  0.00  0.00    -0.000 C 
ATOM     16  C   LIG    1       30.172 -19.430   6.282  0.00  0.00    +0.026 C 
ATOM     17  C   LIG    1       29.065 -20.334   6.857  0.00  0.00    +0.090 C 
ATOM     18  N   LIG    1       29.184 -20.470   8.355  0.00  0.00    -0.296 NA
ATOM     19  C   LIG    1       30.551 -21.002   8.646  0.00  0.00    +0.085 C 
ATOM     20  C   LIG    1       31.655 -20.032   8.183  0.00  0.00    +0.019 C 
ATOM     21  C   LIG    1       29.127 -19.147   9.036  0.00  0.00    +0.092 C 
BRANCH  14  23
ATOM     22  C   LIG    1       30.517 -17.285  10.711  0.00  0.00    +0.004 C 
ATOM     23  C   LIG    1       30.783 -17.257   9.398  0.00  0.00    -0.029 C 
ENDBRANCH  14  23
ENDBRANCH   1  17
BRANCH   1  24
ATOM     24  O   LIG    1       27.744 -19.933   4.834  0.00  0.00    -0.386 OA
ATOM     25  H   LIG    1       28.235 -19.094   4.725  0.00  0.00    +0.210 HD
ENDBRANCH   1  24
TORSDOF 5
ENDMDL
MODEL 2
REMARK VINA RESULT:      -8.1      2.341      3.775
REMARK  Name = *****
REMARK                            x       y       z     vdW  Elec       q    Type
REMARK                         _______ _______ _______ _____ _____    ______ ____
ROOT
ATOM      1  C   LIG    1       27.321 -21.243   7.940  0.00  0.00    +0.162 C 
ENDROOT
BRANCH   1   2
ATOM      2  C   LIG    1       26.282 -21.474   6.850  0.00  0.00    -0.007 A 
ATOM      3  C   LIG    1       25.830 -22.768   6.442  0.00  0.00    +0.009 A 
ATOM      4  C   LIG    1       24.956 -22.829   5.333  0.00  0.00    +0.071 A 
ATOM      5  C   LIG    1       24.502 -24.057   4.874  0.00  0.00    +0.032 A 
ATOM      6  C   LIG    1       24.864 -25.255   5.492  0.00  0.00    +0.048 A 
ATOM      7  C   LIG    1       25.692 -25.231   6.603  0.00  0.00    +0.121 A 
ATOM      8  N   LIG    1       24.513 -21.751   4.673  0.00  0.00    -0.255 NA
ATOM      9  C   LIG    1       24.879 -20.545   5.134  0.00  0.00    +0.112 A 
ATOM     10  C   LIG    1       26.172 -23.999   7.072  0.00  0.00    +0.056 A 
ATOM     11  C   LIG    1       25.723 -20.360   6.207  0.00  0.00    +0.026 A 
BRANCH   7  12
ATOM     12  O   LIG    1       26.098 -26.326   7.316  0.00  0.00    -0.495 OA
ATOM     13  C   LIG    1       25.573 -27.584   6.899  0.00  0.00    +0.277 C 
ENDBRANCH   7  12
ENDBRANCH   1   2
BRANCH   1  17
ATOM     14  C   LIG    1       29.610 -18.275   8.630  0.00  0.00    +0.028 C 
ATOM     15  C   LIG    1       29.999 -18.631   7.174  0.00  0.00    -0.000 C 
ATOM     16  C   LIG    1       28.908 -19.575   6.633  0.00  0.00    +0.026 C 
ATOM     17  C   LIG    1       28.790 -20.812   7.544  0.00  0.00    +0.090 C 
ATOM     18  N   LIG    1       29.828 -20.794   8.638  0.00  0.00    -0.296 NA
ATOM     19  C   LIG    1       31.167 -20.708   7.979  0.00  0.00    +0.085 C 
ATOM     20  C   LIG    1       31.328 -19.406   7.173  0.00  0.00    +0.019 C 
ATOM     21  C   LIG    1       29.726 -19.568   9.477  0.00  0.00    +0.092 C 
BRANCH  14  23
ATOM     22  C   LIG    1       30.557 -16.883  10.502  0.00  0.00    +0.004 C 
ATOM     23  C   LIG    1       30.450 -17.151   9.194  0.00  0.00    -0.029 C 
ENDBRANCH  14  23
ENDBRANCH   1  17
BRANCH   1  24
ATOM     24  O   LIG    1       26.808 -20.278   8.881  0.00  0.00    -0.386 OA
ATOM     25  H   LIG    1       26.802 -19.425   8.403  0.00  0.00    +0.210 HD
ENDBRANCH   1  24
TORSDOF 5
ENDMDL
MODEL 3
REMARK VINA RESULT:      -8.1      2.321      7.460
REMARK  Name = *****
REMARK                            x       y       z     vdW  Elec       q    Type
REMARK                         _______ _______ _______ _____ _____    ______ ____
ROOT
ATOM      1  C   LIG    1       27.218 -20.315   8.212  0.00  0.00    +0.162 C 
ENDROOT
BRANCH   1   2
ATOM      2  C   LIG    1       28.465 -19.815   7.496  0.00  0.00    -0.007 A 
ATOM      3  C   LIG    1       29.540 -19.131   8.148  0.00  0.00    +0.009 A 
ATOM      4  C   LIG    1       30.571 -18.618   7.331  0.00  0.00    +0.071 A 
ATOM      5  C   LIG    1       31.628 -17.924   7.902  0.00  0.00    +0.032 A 
ATOM      6  C   LIG    1       31.724 -17.731   9.281  0.00  0.00    +0.048 A 
ATOM      7  C   LIG    1       30.748 -18.251  10.116  0.00  0.00    +0.121 A 
ATOM      8  N   LIG    1       30.609 -18.761   5.999  0.00  0.00    -0.255 NA
ATOM      9  C   LIG    1       29.638 -19.486   5.423  0.00  0.00    +0.112 A 
ATOM     10  C   LIG    1       29.665 -18.942   9.554  0.00  0.00    +0.056 A 
ATOM     11  C   LIG    1       28.583 -20.039   6.116  0.00  0.00    +0.026 A 
BRANCH   7  12
ATOM     12  O   LIG    1       30.738 -18.158  11.481  0.00  0.00    -0.495 OA
ATOM     13  C   LIG    1       31.528 -17.117  12.051  0.00  0.00    +0.277 C 
ENDBRANCH   7  12
ENDBRANCH   1   2
BRANCH   1  17
ATOM     14  C   LIG    1       25.329 -22.925   6.177  0.00  0.00    +0.028 C 
ATOM     15  C   LIG    1       24.964 -21.623   5.422  0.00  0.00    -0.000 C 
ATOM     16  C   LIG    1       25.939 -20.532   5.905  0.00  0.00    +0.026 C 
ATOM     17  C   LIG    1       25.843 -20.387   7.435  0.00  0.00    +0.090 C 
ATOM     18  N   LIG    1       24.766 -21.275   8.009  0.00  0.00    -0.296 NA
ATOM     19  C   LIG    1       23.484 -20.914   7.329  0.00  0.00    +0.085 C 
ATOM     20  C   LIG    1       23.543 -21.183   5.813  0.00  0.00    +0.019 C 
ATOM     21  C   LIG    1       24.996 -22.707   7.675  0.00  0.00    +0.092 C 
BRANCH  14  23
ATOM     22  C   LIG    1       23.984 -25.044   6.357  0.00  0.00    +0.004 C 
ATOM     23  C   LIG    1       24.625 -24.137   5.610  0.00  0.00    -0.029 C 
ENDBRANCH  14  23
ENDBRANCH   1  17
BRANCH   1  24
ATOM     24  O   LIG    1       27.488 -21.617   8.771  0.00  0.00    -0.386 OA
ATOM     25  H   LIG    1       27.529 -22.225   8.006  0.00  0.00    +0.210 HD
ENDBRANCH   1  24
TORSDOF 5
ENDMDL
MODEL 4
REMARK VINA RESULT:      -7.4      3.974      7.931
REMARK  Name = *****
REMARK                            x       y       z     vdW  Elec       q    Type
REMARK                         _______ _______ _______ _____ _____    ______ ____
ROOT
ATOM      1  C   LIG    1       25.356 -24.594   5.866  0.00  0.00    +0.162 C 
ENDROOT
BRANCH   1   2
ATOM      2  C   LIG    1       24.845 -23.305   6.496  0.00  0.00    -0.007 A 
ATOM      3  C   LIG    1       25.690 -22.328   7.110  0.00  0.00    +0.009 A 
ATOM      4  C   LIG    1       25.059 -21.244   7.762  0.00  0.00    +0.071 A 
ATOM      5  C   LIG    1       25.824 -20.276   8.397  0.00  0.00    +0.032 A 
ATOM      6  C   LIG    1       27.219 -20.321   8.396  0.00  0.00    +0.048 A 
ATOM      7  C   LIG    1       27.872 -21.351   7.737  0.00  0.00    +0.121 A 
ATOM      8  N   LIG    1       23.731 -21.073   7.808  0.00  0.00    -0.255 NA
ATOM      9  C   LIG    1       22.966 -21.954   7.146  0.00  0.00    +0.112 A 
ATOM     10  C   LIG    1       27.114 -22.345   7.102  0.00  0.00    +0.056 A 
ATOM     11  C   LIG    1       23.466 -23.046   6.472  0.00  0.00    +0.026 A 
BRANCH   7  12
ATOM     12  O   LIG    1       29.229 -21.496   7.636  0.00  0.00    -0.495 OA
ATOM     13  C   LIG    1       29.990 -20.294   7.542  0.00  0.00    +0.277 C 
ENDBRANCH   7  12
ENDBRANCH   1   2
BRANCH   1  17
ATOM     14  C   LIG    1       25.366 -28.308   5.011  0.00  0.00    +0.028 C 
ATOM     15  C   LIG    1       24.364 -28.266   6.190  0.00  0.00    -0.000 C 
ATOM     16  C   LIG    1       23.980 -26.790   6.405  0.00  0.00    +0.026 C 
ATOM     17  C   LIG    1       25.248 -25.954   6.664  0.00  0.00    +0.090 C 
ATOM     18  N   LIG    1       26.479 -26.823   6.729  0.00  0.00    -0.296 NA
ATOM     19  C   LIG    1       26.250 -27.841   7.799  0.00  0.00    +0.085 C 
ATOM     20  C   LIG    1       25.057 -28.759   7.472  0.00  0.00    +0.019 C 
ATOM     21  C   LIG    1       26.668 -27.607   5.478  0.00  0.00    +0.092 C 
BRANCH  14  23
ATOM     22  C   LIG    1       25.588 -30.797   5.309  0.00  0.00    +0.004 C 
ATOM     23  C   LIG    1       25.625 -29.715   4.522  0.00  0.00    -0.029 C 
ENDBRANCH  14  23
ENDBRANCH   1  17
BRANCH   1  24
ATOM     24  O   LIG    1       24.722 -24.774   4.584  0.00  0.00    -0.386 OA
ATOM     25  H   LIG    1       24.359 -23.897   4.346  0.00  0.00    +0.210 HD
ENDBRANCH   1  24
TORSDOF 5
ENDMDL
MODEL 5
REMARK VINA RESULT:      -7.4      2.567      4.167
REMARK  Name = *****
REMARK                            x       y       z     vdW  Elec       q    Type
REMARK                         _______ _______ _______ _____ _____    ______ ____
ROOT
ATOM      1  C   LIG    1       27.269 -21.908   7.672  0.00  0.00    +0.162 C 
ENDROOT
BRANCH   1   2
ATOM      2  C   LIG    1       25.790 -22.141   7.396  0.00  0.00    -0.007 A 
ATOM      3  C   LIG    1       25.241 -23.400   6.996  0.00  0.00    +0.009 A 
ATOM      4  C   LIG    1       23.871 -23.431   6.655  0.00  0.00    +0.071 A 
ATOM      5  C   LIG    1       23.286 -24.618   6.236  0.00  0.00    +0.032 A 
ATOM      6  C   LIG    1       24.010 -25.809   6.160  0.00  0.00    +0.048 A 
ATOM      7  C   LIG    1       25.348 -25.824   6.521  0.00  0.00    +0.121 A 
ATOM      8  N   LIG    1       23.064 -22.363   6.713  0.00  0.00    -0.255 NA
ATOM      9  C   LIG    1       23.581 -21.216   7.179  0.00  0.00    +0.112 A 
ATOM     10  C   LIG    1       25.958 -24.630   6.933  0.00  0.00    +0.056 A 
ATOM     11  C   LIG    1       24.901 -21.066   7.546  0.00  0.00    +0.026 A 
BRANCH   7  12
ATOM     12  O   LIG    1       26.159 -26.925   6.520  0.00  0.00    -0.495 OA
ATOM     13  C   LIG    1       25.822 -27.962   7.438  0.00  0.00    +0.277 C 
ENDBRANCH   7  12
ENDBRANCH   1   2
BRANCH   1  17
ATOM     14  C   LIG    1       30.301 -19.797   8.607  0.00  0.00    +0.028 C 
ATOM     15  C   LIG    1       29.317 -18.714   8.099  0.00  0.00    -0.000 C 
ATOM     16  C   LIG    1       27.924 -19.368   8.028  0.00  0.00    +0.026 C 
ATOM     17  C   LIG    1       27.976 -20.608   7.116  0.00  0.00    +0.090 C 
ATOM     18  N   LIG    1       29.336 -20.773   6.483  0.00  0.00    -0.296 NA
ATOM     19  C   LIG    1       29.634 -19.513   5.736  0.00  0.00    +0.085 C 
ATOM     20  C   LIG    1       29.708 -18.293   6.673  0.00  0.00    +0.019 C 
ATOM     21  C   LIG    1       30.411 -20.884   7.507  0.00  0.00    +0.092 C 
BRANCH  14  23
ATOM     22  C   LIG    1       31.820 -18.038   9.573  0.00  0.00    +0.004 C 
ATOM     23  C   LIG    1       31.651 -19.224   8.975  0.00  0.00    -0.029 C 
ENDBRANCH  14  23
ENDBRANCH   1  17
BRANCH   1  24
ATOM     24  O   LIG    1       27.496 -21.969   9.095  0.00  0.00    -0.386 OA
ATOM     25  H   LIG    1       28.118 -22.712   9.229  0.00  0.00    +0.210 HD
ENDBRANCH   1  24
TORSDOF 5
ENDMDL
MODEL 6
REMARK VINA RESULT:      -7.0      4.870      8.084
REMARK  Name = *****
REMARK                            x       y       z     vdW  Elec       q    Type
REMARK                         _______ _______ _______ _____ _____    ______ ____
ROOT
ATOM      1  C   LIG    1       25.581 -25.949   5.882  0.00  0.00    +0.162 C 
ENDROOT
BRANCH   1   2
ATOM      2  C   LIG    1       25.113 -27.379   6.119  0.00  0.00    -0.007 A 
ATOM      3  C   LIG    1       25.473 -28.157   7.265  0.00  0.00    +0.009 A 
ATOM      4  C   LIG    1       25.064 -29.509   7.284  0.00  0.00    +0.071 A 
ATOM      5  C   LIG    1       25.403 -30.321   8.357  0.00  0.00    +0.032 A 
ATOM      6  C   LIG    1       26.125 -29.836   9.449  0.00  0.00    +0.048 A 
ATOM      7  C   LIG    1       26.512 -28.506   9.480  0.00  0.00    +0.121 A 
ATOM      8  N   LIG    1       24.344 -30.084   6.312  0.00  0.00    -0.255 NA
ATOM      9  C   LIG    1       23.942 -29.309   5.293  0.00  0.00    +0.112 A 
ATOM     10  C   LIG    1       26.190 -27.675   8.397  0.00  0.00    +0.056 A 
ATOM     11  C   LIG    1       24.274 -27.978   5.167  0.00  0.00    +0.026 A 
BRANCH   7  12
ATOM     12  O   LIG    1       27.196 -27.900  10.499  0.00  0.00    -0.495 OA
ATOM     13  C   LIG    1       26.557 -27.891  11.773  0.00  0.00    +0.277 C 
ENDBRANCH   7  12
ENDBRANCH   1   2
BRANCH   1  17
ATOM     14  C   LIG    1       25.646 -22.142   5.733  0.00  0.00    +0.028 C 
ATOM     15  C   LIG    1       25.502 -22.387   7.255  0.00  0.00    -0.000 C 
ATOM     16  C   LIG    1       25.826 -23.873   7.506  0.00  0.00    +0.026 C 
ATOM     17  C   LIG    1       24.891 -24.759   6.662  0.00  0.00    +0.090 C 
ATOM     18  N   LIG    1       23.873 -23.935   5.914  0.00  0.00    -0.296 NA
ATOM     19  C   LIG    1       23.122 -23.130   6.926  0.00  0.00    +0.085 C 
ATOM     20  C   LIG    1       24.043 -22.151   7.678  0.00  0.00    +0.019 C 
ATOM     21  C   LIG    1       24.521 -22.935   5.021  0.00  0.00    +0.092 C 
BRANCH  14  23
ATOM     22  C   LIG    1       24.956 -20.172   4.326  0.00  0.00    +0.004 C 
ATOM     23  C   LIG    1       25.614 -20.672   5.380  0.00  0.00    -0.029 C 
ENDBRANCH  14  23
ENDBRANCH   1  17
BRANCH   1  24
ATOM     24  O   LIG    1       27.002 -25.875   6.116  0.00  0.00    -0.386 OA
ATOM     25  H   LIG    1       27.379 -25.478   5.306  0.00  0.00    +0.210 HD
ENDBRANCH   1  24
TORSDOF 5
ENDMDL
MODEL 7
REMARK VINA RESULT:      -6.8      1.939      3.147
REMARK  Name = *****
REMARK                            x       y       z     vdW  Elec       q    Type
REMARK                         _______ _______ _______ _____ _____    ______ ____
ROOT
ATOM      1  C   LIG    1       26.303 -21.768   6.532  0.00  0.00    +0.162 C 
ENDROOT
BRANCH   1   2
ATOM      2  C   LIG    1       24.877 -21.531   6.053  0.00  0.00    -0.007 A 
ATOM      3  C   LIG    1       24.500 -20.478   5.160  0.00  0.00    +0.009 A 
ATOM      4  C   LIG    1       23.121 -20.307   4.905  0.00  0.00    +0.071 A 
ATOM      5  C   LIG    1       22.691 -19.289   4.067  0.00  0.00    +0.032 A 
ATOM      6  C   LIG    1       23.588 -18.425   3.436  0.00  0.00    +0.048 A 
ATOM      7  C   LIG    1       24.950 -18.585   3.636  0.00  0.00    +0.121 A 
ATOM      8  N   LIG    1       22.165 -21.087   5.426  0.00  0.00    -0.255 NA
ATOM      9  C   LIG    1       22.551 -22.123   6.186  0.00  0.00    +0.112 A 
ATOM     10  C   LIG    1       25.401 -19.600   4.492  0.00  0.00    +0.056 A 
ATOM     11  C   LIG    1       23.865 -22.393   6.501  0.00  0.00    +0.026 A 
BRANCH   7  12
ATOM     12  O   LIG    1       25.933 -17.828   3.058  0.00  0.00    -0.495 OA
ATOM     13  C   LIG    1       25.901 -16.430   3.335  0.00  0.00    +0.277 C 
ENDBRANCH   7  12
ENDBRANCH   1   2
BRANCH   1  17
ATOM     14  C   LIG    1       29.623 -21.138   8.294  0.00  0.00    +0.028 C 
ATOM     15  C   LIG    1       28.894 -19.791   8.521  0.00  0.00    -0.000 C 
ATOM     16  C   LIG    1       27.408 -20.019   8.184  0.00  0.00    +0.026 C 
ATOM     17  C   LIG    1       27.275 -20.539   6.740  0.00  0.00    +0.090 C 
ATOM     18  N   LIG    1       28.612 -20.584   6.043  0.00  0.00    -0.296 NA
ATOM     19  C   LIG    1       29.187 -19.205   6.093  0.00  0.00    +0.085 C 
ATOM     20  C   LIG    1       29.439 -18.740   7.540  0.00  0.00    +0.019 C 
ATOM     21  C   LIG    1       29.587 -21.440   6.774  0.00  0.00    +0.092 C 
BRANCH  14  23
ATOM     22  C   LIG    1       31.718 -22.237   9.153  0.00  0.00    +0.004 C 
ATOM     23  C   LIG    1       31.034 -21.130   8.837  0.00  0.00    -0.029 C 
ENDBRANCH  14  23
ENDBRANCH   1  17
BRANCH   1  24
ATOM     24  O   LIG    1       26.267 -22.525   7.759  0.00  0.00    -0.386 OA
ATOM     25  H   LIG    1       26.567 -21.907   8.455  0.00  0.00    +0.210 HD
ENDBRANCH   1  24
TORSDOF 5
ENDMDL
MODEL 8
REMARK VINA RESULT:      -6.8      1.684      2.318
REMARK  Name = *****
REMARK                            x       y       z     vdW  Elec       q    Type
REMARK                         _______ _______ _______ _____ _____    ______ ____
ROOT
ATOM      1  C   LIG    1       26.676 -21.859   8.217  0.00  0.00    +0.162 C 
ENDROOT
BRANCH   1   2
ATOM      2  C   LIG    1       25.698 -22.767   7.485  0.00  0.00    -0.007 A 
ATOM      3  C   LIG    1       24.508 -22.303   6.841  0.00  0.00    +0.009 A 
ATOM      4  C   LIG    1       23.635 -23.279   6.310  0.00  0.00    +0.071 A 
ATOM      5  C   LIG    1       22.453 -22.892   5.696  0.00  0.00    +0.032 A 
ATOM      6  C   LIG    1       22.098 -21.549   5.559  0.00  0.00    +0.048 A 
ATOM      7  C   LIG    1       22.946 -20.563   6.037  0.00  0.00    +0.121 A 
ATOM      8  N   LIG    1       23.877 -24.596   6.352  0.00  0.00    -0.255 NA
ATOM      9  C   LIG    1       25.043 -24.999   6.878  0.00  0.00    +0.112 A 
ATOM     10  C   LIG    1       24.139 -20.937   6.674  0.00  0.00    +0.056 A 
ATOM     11  C   LIG    1       25.974 -24.141   7.423  0.00  0.00    +0.026 A 
BRANCH   7  12
ATOM     12  O   LIG    1       22.731 -19.215   5.942  0.00  0.00    -0.495 OA
ATOM     13  C   LIG    1       22.268 -18.735   4.683  0.00  0.00    +0.277 C 
ENDBRANCH   7  12
ENDBRANCH   1   2
BRANCH   1  17
ATOM     14  C   LIG    1       30.028 -20.085   8.599  0.00  0.00    +0.028 C 
ATOM     15  C   LIG    1       29.156 -18.966   7.978  0.00  0.00    -0.000 C 
ATOM     16  C   LIG    1       27.688 -19.415   8.102  0.00  0.00    +0.026 C 
ATOM     17  C   LIG    1       27.500 -20.778   7.409  0.00  0.00    +0.090 C 
ATOM     18  N   LIG    1       28.768 -21.234   6.731  0.00  0.00    -0.296 NA
ATOM     19  C   LIG    1       29.166 -20.163   5.766  0.00  0.00    +0.085 C 
ATOM     20  C   LIG    1       29.478 -18.834   6.480  0.00  0.00    +0.019 C 
ATOM     21  C   LIG    1       29.901 -21.335   7.691  0.00  0.00    +0.092 C 
BRANCH  14  23
ATOM     22  C   LIG    1       31.848 -18.404   9.042  0.00  0.00    +0.004 C 
ATOM     23  C   LIG    1       31.468 -19.661   8.782  0.00  0.00    -0.029 C 
ENDBRANCH  14  23
ENDBRANCH   1  17
BRANCH   1  24
ATOM     24  O   LIG    1       25.982 -21.187   9.287  0.00  0.00    -0.386 OA
ATOM     25  H   LIG    1       26.609 -21.172  10.037  0.00  0.00    +0.210 HD
ENDBRANCH   1  24
TORSDOF 5
ENDMDL
MODEL 9
REMARK VINA RESULT:      -6.7      7.234     10.147
REMARK  Name = *****
REMARK                            x       y       z     vdW  Elec       q    Type
REMARK                         _______ _______ _______ _____ _____    ______ ____
ROOT
ATOM      1  C   LIG    1       26.328 -29.084  10.189  0.00  0.00    +0.162 C 
ENDROOT
BRANCH   1   2
ATOM      2  C   LIG    1       25.521 -29.584   8.999  0.00  0.00    -0.007 A 
ATOM      3  C   LIG    1       25.305 -28.823   7.806  0.00  0.00    +0.009 A 
ATOM      4  C   LIG    1       24.432 -29.369   6.839  0.00  0.00    +0.071 A 
ATOM      5  C   LIG    1       24.163 -28.668   5.672  0.00  0.00    +0.032 A 
ATOM      6  C   LIG    1       24.752 -27.432   5.403  0.00  0.00    +0.048 A 
ATOM      7  C   LIG    1       25.641 -26.882   6.313  0.00  0.00    +0.121 A 
ATOM      8  N   LIG    1       23.827 -30.558   6.967  0.00  0.00    -0.255 NA
ATOM      9  C   LIG    1       24.119 -31.291   8.052  0.00  0.00    +0.112 A 
ATOM     10  C   LIG    1       25.913 -27.571   7.504  0.00  0.00    +0.056 A 
ATOM     11  C   LIG    1       24.957 -30.867   9.059  0.00  0.00    +0.026 A 
BRANCH   7  12
ATOM     12  O   LIG    1       26.307 -25.697   6.157  0.00  0.00    -0.495 OA
ATOM     13  C   LIG    1       25.728 -24.558   6.789  0.00  0.00    +0.277 C 
ENDBRANCH   7  12
ENDBRANCH   1   2
BRANCH   1  17
ATOM     14  C   LIG    1       24.007 -27.792  12.923  0.00  0.00    +0.028 C 
ATOM     15  C   LIG    1       25.184 -28.354  13.758  0.00  0.00    -0.000 C 
ATOM     16  C   LIG    1       26.359 -28.580  12.788  0.00  0.00    +0.026 C 
ATOM     17  C   LIG    1       25.923 -29.525  11.652  0.00  0.00    +0.090 C 
ATOM     18  N   LIG    1       24.517 -30.031  11.862  0.00  0.00    -0.296 NA
ATOM     19  C   LIG    1       24.481 -30.703  13.198  0.00  0.00    +0.085 C 
ATOM     20  C   LIG    1       24.792 -29.721  14.343  0.00  0.00    +0.019 C 
ATOM     21  C   LIG    1       23.538 -28.914  11.961  0.00  0.00    +0.092 C 
BRANCH  14  23
ATOM     22  C   LIG    1       21.812 -26.623  13.310  0.00  0.00    +0.004 C 
ATOM     23  C   LIG    1       22.879 -27.278  13.787  0.00  0.00    -0.029 C 
ENDBRANCH  14  23
ENDBRANCH   1  17
BRANCH   1  24
ATOM     24  O   LIG    1       27.717 -29.416   9.988  0.00  0.00    -0.386 OA
ATOM     25  H   LIG    1       27.981 -28.951   9.169  0.00  0.00    +0.210 HD
ENDBRANCH   1  24
TORSDOF 5
ENDMDL
