MODEL 1
REMARK VINA RESULT:       3.3      0.000      0.000
REMARK  Name = *****
REMARK                            x       y       z     vdW  Elec       q    Type
REMARK                         _______ _______ _______ _____ _____    ______ ____
ROOT
ATOM      1  C   LIG    1       24.252 -27.032  14.380  0.00  0.00    +0.082 C 
ATOM      2  C   LIG    1       25.584 -27.816  14.473  0.00  0.00    +0.143 C 
ATOM      3  O   LIG    1       25.916 -28.495  15.446  0.00  0.00    -0.297 OA
ATOM      4  C   LIG    1       26.590 -27.549  13.361  0.00  0.00    +0.106 C 
ATOM      5  C   LIG    1       27.407 -28.797  12.998  0.00  0.00    +0.128 C 
ATOM      6  C   LIG    1       28.033 -28.673  11.576  0.00  0.00    +0.060 C 
ATOM      7  C   LIG    1       29.124 -29.721  11.326  0.00  0.00    +0.014 C 
ATOM      8  C   LIG    1       26.905 -28.659  10.490  0.00  0.00    +0.207 C 
ATOM      9  O   LIG    1       27.073 -29.603   9.422  0.00  0.00    -0.455 OA
ATOM     10  C   LIG    1       26.641 -30.876   9.659  0.00  0.00    +0.328 C 
ATOM     11  O   LIG    1       26.366 -31.321  10.754  0.00  0.00    -0.249 OA
ATOM     12  C   LIG    1       26.435 -31.594   8.329  0.00  0.00    +0.185 C 
ATOM     13  N   LIG    1       25.135 -31.344   7.676  0.00  0.00    -0.281 N 
ATOM     14  C   LIG    1       25.215 -31.595   6.241  0.00  0.00    +0.109 C 
ATOM     15  C   LIG    1       25.640 -33.051   5.987  0.00  0.00    +0.019 C 
ATOM     16  C   LIG    1       26.891 -33.476   6.780  0.00  0.00    +0.004 C 
ATOM     17  C   LIG    1       23.844 -31.526   8.210  0.00  0.00    +0.288 C 
ATOM     18  O   LIG    1       22.890 -30.870   7.795  0.00  0.00    -0.267 OA
ATOM     19  C   LIG    1       23.525 -32.706   9.116  0.00  0.00    +0.276 C 
ATOM     20  O   LIG    1       23.882 -33.824   8.742  0.00  0.00    -0.281 OA
ATOM     21  C   LIG    1       22.580 -32.482  10.351  0.00  0.00    +0.240 C 
ATOM     22  C   LIG    1       23.396 -31.879  11.508  0.00  0.00    +0.056 C 
ATOM     23  C   LIG    1       23.283 -32.642  12.839  0.00  0.00    +0.013 C 
ATOM     24  C   LIG    1       23.257 -30.360  11.684  0.00  0.00    +0.043 C 
ATOM     25  C   LIG    1       22.237 -29.679  10.778  0.00  0.00    +0.150 C 
ATOM     26  C   LIG    1       21.013 -30.572  10.564  0.00  0.00    +0.179 C 
ATOM     27  C   LIG    1       19.869 -30.584  11.650  0.00  0.00    +0.149 C 
ATOM     28  C   LIG    1       20.269 -30.586  13.150  0.00  0.00    +0.038 C 
ATOM     29  C   LIG    1       20.174 -29.211  13.864  0.00  0.00    -0.008 C 
ATOM     30  C   LIG    1       18.710 -28.874  14.179  0.00  0.00    +0.008 C 
ATOM     31  C   LIG    1       20.992 -29.164  15.188  0.00  0.00    +0.033 C 
ATOM     32  C   LIG    1       22.489 -28.896  15.040  0.00  0.00    -0.076 C 
ATOM     33  C   LIG    1       23.393 -30.001  15.500  0.00  0.00    +0.038 C 
ATOM     34  O   LIG    1       21.349 -31.872  10.065  0.00  0.00    -0.334 OA
ATOM     35  C   LIG    1       26.855 -33.054   8.259  0.00  0.00    +0.034 C 
ATOM     36  C   LIG    1       22.903 -27.690  14.596  0.00  0.00    -0.017 C 
ENDROOT
BRANCH   8  37
ATOM     37  C   LIG    1       26.692 -27.319   9.780  0.00  0.00    -0.036 C 
ATOM     38  C   LIG    1       26.551 -27.229   8.442  0.00  0.00    -0.021 C 
ATOM     39  C   LIG    1       26.585 -26.139  10.716  0.00  0.00    +0.042 C 
BRANCH  38  40
ATOM     40  C   LIG    1       26.389 -25.972   7.613  0.00  0.00    +0.014 C 
ATOM     41  C   LIG    1       27.083 -26.143   6.247  0.00  0.00    +0.042 C 
ATOM     42  C   LIG    1       26.129 -26.420   5.074  0.00  0.00    +0.147 C 
ATOM     43  C   LIG    1       24.911 -27.250   5.511  0.00  0.00    +0.143 C 
ATOM     44  C   LIG    1       24.109 -26.592   6.633  0.00  0.00    +0.034 C 
ATOM     45  C   LIG    1       24.916 -25.586   7.452  0.00  0.00    +0.010 C 
BRANCH  42  46
ATOM     46  O   LIG    1       26.773 -27.153   4.013  0.00  0.00    -0.377 OA
ATOM     47  C   LIG    1       28.180 -27.286   4.173  0.00  0.00    +0.194 C 
ENDBRANCH  42  46
BRANCH  43  48
ATOM     48  O   LIG    1       24.045 -27.461   4.391  0.00  0.00    -0.389 OA
ATOM     49  H   LIG    1       23.171 -27.658   4.782  0.00  0.00    +0.210 HD
ENDBRANCH  43  48
ENDBRANCH  38  40
ENDBRANCH   8  37
BRANCH   5  50
ATOM     50  O   LIG    1       28.454 -28.931  13.962  0.00  0.00    -0.391 OA
ATOM     51  H   LIG    1       28.032 -28.865  14.844  0.00  0.00    +0.210 HD
ENDBRANCH   5  50
BRANCH  27  52
ATOM     52  O   LIG    1       18.943 -31.680  11.465  0.00  0.00    -0.377 OA
ATOM     53  C   LIG    1       17.633 -31.456  11.975  0.00  0.00    +0.194 C 
ENDBRANCH  27  52
BRANCH  25  54
ATOM     54  O   LIG    1       21.986 -28.362  11.273  0.00  0.00    -0.377 OA
ATOM     55  C   LIG    1       23.034 -27.811  12.065  0.00  0.00    +0.194 C 
ENDBRANCH  25  54
BRANCH  21  56
ATOM     56  O   LIG    1       22.213 -33.817  10.753  0.00  0.00    -0.358 OA
ATOM     57  H   LIG    1       21.278 -33.773  11.023  0.00  0.00    +0.213 HD
ENDBRANCH  21  56
BRANCH   1  58
ATOM     58  C   LIG    1       24.394 -25.735  15.210  0.00  0.00    +0.041 C 
BRANCH  58  60
ATOM     59  C   LIG    1       25.669 -23.586  14.948  0.00  0.00    +0.004 C 
ATOM     60  C   LIG    1       24.902 -24.554  14.429  0.00  0.00    -0.034 C 
ENDBRANCH  58  60
ENDBRANCH   1  58
TORSDOF 10
ENDMDL
