MODEL 1
REMARK VINA RESULT:      -8.6      0.000      0.000
REMARK  Name = *****
REMARK                            x       y       z     vdW  Elec       q    Type
REMARK                         _______ _______ _______ _____ _____    ______ ____
ROOT
ATOM      1  N   LIG    1       25.548 -22.912   7.718  0.00  0.00    -0.313 NA
ATOM      2  H   LIG    1       24.856 -22.387   7.177  0.00  0.00    +0.122 HD
ENDROOT
BRANCH   1   3
ATOM      3  C   LIG    1       26.726 -22.101   7.996  0.00  0.00    +0.085 C 
BRANCH   3   4
ATOM      4  C   LIG    1       27.083 -21.229   6.789  0.00  0.00    +0.050 C 
BRANCH   4   8
ATOM      5  C   LIG    1       30.870 -19.235   7.380  0.00  0.00    +0.162 A 
ATOM      6  C   LIG    1       30.574 -20.400   8.109  0.00  0.00    +0.162 A 
ATOM      7  C   LIG    1       29.346 -21.041   7.907  0.00  0.00    +0.053 A 
ATOM      8  C   LIG    1       28.414 -20.548   6.983  0.00  0.00    -0.043 A 
ATOM      9  C   LIG    1       28.725 -19.400   6.255  0.00  0.00    +0.007 A 
ATOM     10  C   LIG    1       29.936 -18.744   6.460  0.00  0.00    +0.050 A 
BRANCH   5  12
ATOM     11  C   LIG    1       32.036 -17.648   8.689  0.00  0.00    +0.277 C 
ATOM     12  O   LIG    1       32.066 -18.608   7.637  0.00  0.00    -0.491 OA
ENDBRANCH   5  12
BRANCH   6  13
ATOM     13  O   LIG    1       31.504 -20.846   9.018  0.00  0.00    -0.491 OA
ATOM     14  C   LIG    1       31.480 -22.244   9.284  0.00  0.00    +0.277 C 
ENDBRANCH   6  13
ENDBRANCH   4   8
ENDBRANCH   3   4
ENDBRANCH   1   3
BRANCH   1  15
ATOM     15  C   LIG    1       25.916 -24.114   6.956  0.00  0.00    +0.115 C 
BRANCH  15  16
ATOM     16  C   LIG    1       24.853 -24.353   5.877  0.00  0.00    +0.166 C 
BRANCH  16  17
ATOM     17  O   LIG    1       23.677 -24.853   6.533  0.00  0.00    -0.387 OA
ATOM     18  H   LIG    1       22.932 -24.682   5.927  0.00  0.00    +0.210 HD
ENDBRANCH  16  17
BRANCH  16  19
ATOM     19  C   LIG    1       24.576 -23.085   5.053  0.00  0.00    +0.261 C 
BRANCH  19  20
ATOM     20  O   LIG    1       23.697 -22.171   5.725  0.00  0.00    -0.489 OA
BRANCH  20  21
ATOM     21  C   LIG    1       23.499 -20.967   5.112  0.00  0.00    +0.121 A 
ATOM     22  C   LIG    1       24.622 -20.344   4.562  0.00  0.00    +0.049 A 
ATOM     23  C   LIG    1       24.508 -19.096   3.933  0.00  0.00    -0.047 A 
ATOM     24  C   LIG    1       25.688 -18.460   3.274  0.00  0.00    +0.044 C 
ATOM     25  C   LIG    1       23.269 -18.437   3.930  0.00  0.00    +0.003 A 
ATOM     26  C   LIG    1       22.153 -19.039   4.494  0.00  0.00    +0.004 A 
ATOM     27  C   LIG    1       22.265 -20.312   5.048  0.00  0.00    +0.045 A 
ENDBRANCH  20  21
ENDBRANCH  19  20
ENDBRANCH  16  19
ENDBRANCH  15  16
ENDBRANCH   1  15
TORSDOF 11
ENDMDL
MODEL 2
REMARK VINA RESULT:      -8.5      1.419      2.125
REMARK  Name = *****
REMARK                            x       y       z     vdW  Elec       q    Type
REMARK                         _______ _______ _______ _____ _____    ______ ____
ROOT
ATOM      1  N   LIG    1       26.545 -20.329   7.622  0.00  0.00    -0.313 NA
ATOM      2  H   LIG    1       25.836 -19.753   7.160  0.00  0.00    +0.122 HD
ENDROOT
BRANCH   1   3
ATOM      3  C   LIG    1       27.490 -20.878   6.657  0.00  0.00    +0.085 C 
BRANCH   3   4
ATOM      4  C   LIG    1       28.418 -19.783   6.123  0.00  0.00    +0.050 C 
BRANCH   4   8
ATOM      5  C   LIG    1       31.362 -18.698   9.095  0.00  0.00    +0.162 A 
ATOM      6  C   LIG    1       31.208 -20.045   8.725  0.00  0.00    +0.162 A 
ATOM      7  C   LIG    1       30.254 -20.386   7.758  0.00  0.00    +0.053 A 
ATOM      8  C   LIG    1       29.460 -19.406   7.146  0.00  0.00    -0.043 A 
ATOM      9  C   LIG    1       29.632 -18.071   7.509  0.00  0.00    +0.007 A 
ATOM     10  C   LIG    1       30.566 -17.722   8.482  0.00  0.00    +0.050 A 
BRANCH   5  12
ATOM     11  C   LIG    1       32.242 -17.067  10.563  0.00  0.00    +0.277 C 
ATOM     12  O   LIG    1       32.276 -18.407  10.078  0.00  0.00    -0.491 OA
ENDBRANCH   5  12
BRANCH   6  13
ATOM     13  O   LIG    1       31.991 -20.982   9.357  0.00  0.00    -0.491 OA
ATOM     14  C   LIG    1       31.567 -22.333   9.217  0.00  0.00    +0.277 C 
ENDBRANCH   6  13
ENDBRANCH   4   8
ENDBRANCH   3   4
ENDBRANCH   1   3
BRANCH   1  15
ATOM     15  C   LIG    1       25.862 -21.410   8.348  0.00  0.00    +0.115 C 
BRANCH  15  16
ATOM     16  C   LIG    1       25.232 -22.362   7.324  0.00  0.00    +0.166 C 
BRANCH  16  17
ATOM     17  O   LIG    1       25.707 -23.686   7.617  0.00  0.00    -0.387 OA
ATOM     18  H   LIG    1       25.052 -24.084   8.222  0.00  0.00    +0.210 HD
ENDBRANCH  16  17
BRANCH  16  19
ATOM     19  C   LIG    1       23.697 -22.272   7.325  0.00  0.00    +0.261 C 
BRANCH  19  20
ATOM     20  O   LIG    1       23.145 -22.253   6.000  0.00  0.00    -0.489 OA
BRANCH  20  21
ATOM     21  C   LIG    1       23.484 -21.180   5.225  0.00  0.00    +0.121 A 
ATOM     22  C   LIG    1       22.622 -20.081   5.253  0.00  0.00    +0.049 A 
ATOM     23  C   LIG    1       22.885 -18.948   4.469  0.00  0.00    -0.047 A 
ATOM     24  C   LIG    1       22.013 -17.739   4.554  0.00  0.00    +0.044 C 
ATOM     25  C   LIG    1       23.981 -18.957   3.593  0.00  0.00    +0.003 A 
ATOM     26  C   LIG    1       24.829 -20.054   3.541  0.00  0.00    +0.004 A 
ATOM     27  C   LIG    1       24.599 -21.142   4.381  0.00  0.00    +0.045 A 
ENDBRANCH  20  21
ENDBRANCH  19  20
ENDBRANCH  16  19
ENDBRANCH  15  16
ENDBRANCH   1  15
TORSDOF 11
ENDMDL
MODEL 3
REMARK VINA RESULT:      -8.4      1.571      4.122
REMARK  Name = *****
REMARK                            x       y       z     vdW  Elec       q    Type
REMARK                         _______ _______ _______ _____ _____    ______ ____
ROOT
ATOM      1  N   LIG    1       24.851 -19.795   5.068  0.00  0.00    -0.313 NA
ATOM      2  H   LIG    1       24.702 -18.994   4.450  0.00  0.00    +0.122 HD
ENDROOT
BRANCH   1   3
ATOM      3  C   LIG    1       26.247 -20.215   5.059  0.00  0.00    +0.085 C 
BRANCH   3   4
ATOM      4  C   LIG    1       26.699 -20.629   6.462  0.00  0.00    +0.050 C 
BRANCH   4   8
ATOM      5  C   LIG    1       30.700 -19.227   7.296  0.00  0.00    +0.162 A 
ATOM      6  C   LIG    1       30.112 -20.193   8.129  0.00  0.00    +0.162 A 
ATOM      7  C   LIG    1       28.816 -20.644   7.849  0.00  0.00    +0.053 A 
ATOM      8  C   LIG    1       28.103 -20.157   6.744  0.00  0.00    -0.043 A 
ATOM      9  C   LIG    1       28.702 -19.210   5.915  0.00  0.00    +0.007 A 
ATOM     10  C   LIG    1       29.983 -18.741   6.195  0.00  0.00    +0.050 A 
BRANCH   5  12
ATOM     11  C   LIG    1       31.987 -17.701   8.564  0.00  0.00    +0.277 C 
ATOM     12  O   LIG    1       31.955 -18.775   7.628  0.00  0.00    -0.491 OA
ENDBRANCH   5  12
BRANCH   6  13
ATOM     13  O   LIG    1       30.834 -20.637   9.212  0.00  0.00    -0.491 OA
ATOM     14  C   LIG    1       31.202 -22.011   9.183  0.00  0.00    +0.277 C 
ENDBRANCH   6  13
ENDBRANCH   4   8
ENDBRANCH   3   4
ENDBRANCH   1   3
BRANCH   1  15
ATOM     15  C   LIG    1       23.979 -20.892   4.624  0.00  0.00    +0.115 C 
BRANCH  15  16
ATOM     16  C   LIG    1       22.762 -20.955   5.554  0.00  0.00    +0.166 C 
BRANCH  16  17
ATOM     17  O   LIG    1       21.682 -21.546   4.813  0.00  0.00    -0.387 OA
ATOM     18  H   LIG    1       21.496 -22.404   5.239  0.00  0.00    +0.210 HD
ENDBRANCH  16  17
BRANCH  16  19
ATOM     19  C   LIG    1       23.072 -21.715   6.855  0.00  0.00    +0.261 C 
BRANCH  19  20
ATOM     20  O   LIG    1       22.772 -23.115   6.760  0.00  0.00    -0.489 OA
BRANCH  20  21
ATOM     21  C   LIG    1       23.845 -23.952   6.641  0.00  0.00    +0.121 A 
ATOM     22  C   LIG    1       23.580 -25.275   6.277  0.00  0.00    +0.049 A 
ATOM     23  C   LIG    1       24.623 -26.204   6.155  0.00  0.00    -0.047 A 
ATOM     24  C   LIG    1       24.357 -27.597   5.690  0.00  0.00    +0.044 C 
ATOM     25  C   LIG    1       25.933 -25.815   6.479  0.00  0.00    +0.003 A 
ATOM     26  C   LIG    1       26.202 -24.509   6.864  0.00  0.00    +0.004 A 
ATOM     27  C   LIG    1       25.166 -23.578   6.908  0.00  0.00    +0.045 A 
ENDBRANCH  20  21
ENDBRANCH  19  20
ENDBRANCH  16  19
ENDBRANCH  15  16
ENDBRANCH   1  15
TORSDOF 11
ENDMDL
MODEL 4
REMARK VINA RESULT:      -8.3      1.520      3.597
REMARK  Name = *****
REMARK                            x       y       z     vdW  Elec       q    Type
REMARK                         _______ _______ _______ _____ _____    ______ ____
ROOT
ATOM      1  N   LIG    1       25.942 -20.213   4.081  0.00  0.00    -0.313 NA
ATOM      2  H   LIG    1       25.535 -21.058   4.490  0.00  0.00    +0.122 HD
ENDROOT
BRANCH   1   3
ATOM      3  C   LIG    1       26.905 -19.600   4.988  0.00  0.00    +0.085 C 
BRANCH   3   4
ATOM      4  C   LIG    1       27.462 -20.635   5.969  0.00  0.00    +0.050 C 
BRANCH   4   8
ATOM      5  C   LIG    1       31.056 -19.174   7.873  0.00  0.00    +0.162 A 
ATOM      6  C   LIG    1       30.434 -20.338   8.356  0.00  0.00    +0.162 A 
ATOM      7  C   LIG    1       29.273 -20.806   7.730  0.00  0.00    +0.053 A 
ATOM      8  C   LIG    1       28.728 -20.140   6.623  0.00  0.00    -0.043 A 
ATOM      9  C   LIG    1       29.361 -18.994   6.143  0.00  0.00    +0.007 A 
ATOM     10  C   LIG    1       30.507 -18.510   6.769  0.00  0.00    +0.050 A 
BRANCH   5  12
ATOM     11  C   LIG    1       32.026 -17.447   9.164  0.00  0.00    +0.277 C 
ATOM     12  O   LIG    1       32.168 -18.720   8.541  0.00  0.00    -0.491 OA
ENDBRANCH   5  12
BRANCH   6  13
ATOM     13  O   LIG    1       30.987 -20.957   9.453  0.00  0.00    -0.491 OA
ATOM     14  C   LIG    1       31.419 -22.297   9.248  0.00  0.00    +0.277 C 
ENDBRANCH   6  13
ENDBRANCH   4   8
ENDBRANCH   3   4
ENDBRANCH   1   3
BRANCH   1  15
ATOM     15  C   LIG    1       24.852 -19.275   3.775  0.00  0.00    +0.115 C 
BRANCH  15  16
ATOM     16  C   LIG    1       23.518 -20.021   3.901  0.00  0.00    +0.166 C 
BRANCH  16  17
ATOM     17  O   LIG    1       23.737 -21.374   3.470  0.00  0.00    -0.387 OA
ATOM     18  H   LIG    1       23.198 -21.938   4.056  0.00  0.00    +0.210 HD
ENDBRANCH  16  17
BRANCH  16  19
ATOM     19  C   LIG    1       22.946 -19.939   5.326  0.00  0.00    +0.261 C 
BRANCH  19  20
ATOM     20  O   LIG    1       22.772 -21.232   5.924  0.00  0.00    -0.489 OA
BRANCH  20  21
ATOM     21  C   LIG    1       23.824 -21.699   6.661  0.00  0.00    +0.121 A 
ATOM     22  C   LIG    1       24.259 -22.999   6.391  0.00  0.00    +0.049 A 
ATOM     23  C   LIG    1       25.318 -23.561   7.117  0.00  0.00    -0.047 A 
ATOM     24  C   LIG    1       25.841 -24.919   6.781  0.00  0.00    +0.044 C 
ATOM     25  C   LIG    1       25.889 -22.837   8.176  0.00  0.00    +0.003 A 
ATOM     26  C   LIG    1       25.447 -21.554   8.466  0.00  0.00    +0.004 A 
ATOM     27  C   LIG    1       24.445 -20.979   7.687  0.00  0.00    +0.045 A 
ENDBRANCH  20  21
ENDBRANCH  19  20
ENDBRANCH  16  19
ENDBRANCH  15  16
ENDBRANCH   1  15
TORSDOF 11
ENDMDL
MODEL 5
REMARK VINA RESULT:      -8.3      1.523      3.907
REMARK  Name = *****
REMARK                            x       y       z     vdW  Elec       q    Type
REMARK                         _______ _______ _______ _____ _____    ______ ____
ROOT
ATOM      1  N   LIG    1       25.862 -20.134   3.965  0.00  0.00    -0.313 NA
ATOM      2  H   LIG    1       25.560 -21.108   3.891  0.00  0.00    +0.122 HD
ENDROOT
BRANCH   1   3
ATOM      3  C   LIG    1       26.504 -19.876   5.248  0.00  0.00    +0.085 C 
BRANCH   3   4
ATOM      4  C   LIG    1       27.880 -19.235   5.048  0.00  0.00    +0.050 C 
BRANCH   4   8
ATOM      5  C   LIG    1       30.660 -20.484   8.111  0.00  0.00    +0.162 A 
ATOM      6  C   LIG    1       30.877 -19.279   7.421  0.00  0.00    +0.162 A 
ATOM      7  C   LIG    1       29.969 -18.881   6.433  0.00  0.00    +0.053 A 
ATOM      8  C   LIG    1       28.841 -19.657   6.130  0.00  0.00    -0.043 A 
ATOM      9  C   LIG    1       28.627 -20.843   6.832  0.00  0.00    +0.007 A 
ATOM     10  C   LIG    1       29.534 -21.257   7.805  0.00  0.00    +0.050 A 
BRANCH   5  12
ATOM     11  C   LIG    1       31.554 -22.237   9.422  0.00  0.00    +0.277 C 
ATOM     12  O   LIG    1       31.596 -20.864   9.043  0.00  0.00    -0.491 OA
ENDBRANCH   5  12
BRANCH   6  13
ATOM     13  O   LIG    1       32.002 -18.551   7.733  0.00  0.00    -0.491 OA
ATOM     14  C   LIG    1       31.853 -17.617   8.795  0.00  0.00    +0.277 C 
ENDBRANCH   6  13
ENDBRANCH   4   8
ENDBRANCH   3   4
ENDBRANCH   1   3
BRANCH   1  15
ATOM     15  C   LIG    1       24.686 -19.269   3.793  0.00  0.00    +0.115 C 
BRANCH  15  16
ATOM     16  C   LIG    1       23.430 -20.148   3.796  0.00  0.00    +0.166 C 
BRANCH  16  17
ATOM     17  O   LIG    1       23.831 -21.475   3.420  0.00  0.00    -0.387 OA
ATOM     18  H   LIG    1       24.714 -21.389   3.014  0.00  0.00    +0.210 HD
ENDBRANCH  16  17
BRANCH  16  19
ATOM     19  C   LIG    1       22.706 -20.112   5.152  0.00  0.00    +0.261 C 
BRANCH  19  20
ATOM     20  O   LIG    1       22.515 -21.420   5.710  0.00  0.00    -0.489 OA
BRANCH  20  21
ATOM     21  C   LIG    1       23.552 -21.915   6.449  0.00  0.00    +0.121 A 
ATOM     22  C   LIG    1       24.193 -21.026   7.316  0.00  0.00    +0.049 A 
ATOM     23  C   LIG    1       25.280 -21.448   8.094  0.00  0.00    -0.047 A 
ATOM     24  C   LIG    1       25.919 -20.527   9.080  0.00  0.00    +0.044 C 
ATOM     25  C   LIG    1       25.774 -22.753   7.937  0.00  0.00    +0.003 A 
ATOM     26  C   LIG    1       25.157 -23.635   7.061  0.00  0.00    +0.004 A 
ATOM     27  C   LIG    1       24.031 -23.225   6.350  0.00  0.00    +0.045 A 
ENDBRANCH  20  21
ENDBRANCH  19  20
ENDBRANCH  16  19
ENDBRANCH  15  16
ENDBRANCH   1  15
TORSDOF 11
ENDMDL
MODEL 6
REMARK VINA RESULT:      -8.2      2.268      8.493
REMARK  Name = *****
REMARK                            x       y       z     vdW  Elec       q    Type
REMARK                         _______ _______ _______ _____ _____    ______ ____
ROOT
ATOM      1  N   LIG    1       28.183 -20.017   8.306  0.00  0.00    -0.313 NA
ATOM      2  H   LIG    1       28.528 -20.113   9.264  0.00  0.00    +0.122 HD
ENDROOT
BRANCH   1   3
ATOM      3  C   LIG    1       27.773 -21.306   7.762  0.00  0.00    +0.085 C 
BRANCH   3   4
ATOM      4  C   LIG    1       26.324 -21.620   8.144  0.00  0.00    +0.050 C 
BRANCH   4   8
ATOM      5  C   LIG    1       23.569 -20.146   5.160  0.00  0.00    +0.162 A 
ATOM      6  C   LIG    1       24.935 -20.257   4.853  0.00  0.00    +0.162 A 
ATOM      7  C   LIG    1       25.820 -20.740   5.825  0.00  0.00    +0.053 A 
ATOM      8  C   LIG    1       25.363 -21.125   7.094  0.00  0.00    -0.043 A 
ATOM      9  C   LIG    1       24.002 -21.025   7.382  0.00  0.00    +0.007 A 
ATOM     10  C   LIG    1       23.116 -20.529   6.429  0.00  0.00    +0.050 A 
BRANCH   5  12
ATOM     11  C   LIG    1       22.131 -18.380   4.524  0.00  0.00    +0.277 C 
ATOM     12  O   LIG    1       22.738 -19.627   4.196  0.00  0.00    -0.491 OA
ENDBRANCH   5  12
BRANCH   6  13
ATOM     13  O   LIG    1       25.351 -19.856   3.605  0.00  0.00    -0.491 OA
ATOM     14  C   LIG    1       25.692 -18.480   3.485  0.00  0.00    +0.277 C 
ENDBRANCH   6  13
ENDBRANCH   4   8
ENDBRANCH   3   4
ENDBRANCH   1   3
BRANCH   1  15
ATOM     15  C   LIG    1       29.250 -19.426   7.486  0.00  0.00    +0.115 C 
BRANCH  15  16
ATOM     16  C   LIG    1       30.550 -20.197   7.748  0.00  0.00    +0.166 C 
BRANCH  16  17
ATOM     17  O   LIG    1       31.495 -19.804   6.740  0.00  0.00    -0.387 OA
ATOM     18  H   LIG    1       32.334 -19.626   7.206  0.00  0.00    +0.210 HD
ENDBRANCH  16  17
BRANCH  16  19
ATOM     19  C   LIG    1       31.077 -19.968   9.174  0.00  0.00    +0.261 C 
BRANCH  19  20
ATOM     20  O   LIG    1       30.460 -18.841   9.815  0.00  0.00    -0.489 OA
BRANCH  20  21
ATOM     21  C   LIG    1       31.292 -17.810  10.145  0.00  0.00    +0.121 A 
ATOM     22  C   LIG    1       31.284 -17.392  11.478  0.00  0.00    +0.049 A 
ATOM     23  C   LIG    1       32.092 -16.324  11.896  0.00  0.00    -0.047 A 
ATOM     24  C   LIG    1       32.149 -15.924  13.333  0.00  0.00    +0.044 C 
ATOM     25  C   LIG    1       32.853 -15.624  10.947  0.00  0.00    +0.003 A 
ATOM     26  C   LIG    1       32.849 -16.019   9.616  0.00  0.00    +0.004 A 
ATOM     27  C   LIG    1       32.100 -17.128   9.229  0.00  0.00    +0.045 A 
ENDBRANCH  20  21
ENDBRANCH  19  20
ENDBRANCH  16  19
ENDBRANCH  15  16
ENDBRANCH   1  15
TORSDOF 11
ENDMDL
MODEL 7
REMARK VINA RESULT:      -8.1      2.370      5.190
REMARK  Name = *****
REMARK                            x       y       z     vdW  Elec       q    Type
REMARK                         _______ _______ _______ _____ _____    ______ ____
ROOT
ATOM      1  N   LIG    1       25.685 -22.476   6.181  0.00  0.00    -0.313 NA
ATOM      2  H   LIG    1       26.151 -23.369   6.004  0.00  0.00    +0.122 HD
ENDROOT
BRANCH   1   3
ATOM      3  C   LIG    1       26.531 -21.586   6.965  0.00  0.00    +0.085 C 
BRANCH   3   4
ATOM      4  C   LIG    1       27.123 -20.482   6.084  0.00  0.00    +0.050 C 
BRANCH   4   8
ATOM      5  C   LIG    1       30.933 -19.130   7.608  0.00  0.00    +0.162 A 
ATOM      6  C   LIG    1       30.274 -20.203   8.231  0.00  0.00    +0.162 A 
ATOM      7  C   LIG    1       29.042 -20.637   7.727  0.00  0.00    +0.053 A 
ATOM      8  C   LIG    1       28.462 -20.026   6.606  0.00  0.00    -0.043 A 
ATOM      9  C   LIG    1       29.132 -18.972   5.987  0.00  0.00    +0.007 A 
ATOM     10  C   LIG    1       30.350 -18.521   6.490  0.00  0.00    +0.050 A 
BRANCH   5  12
ATOM     11  C   LIG    1       32.040 -17.498   8.914  0.00  0.00    +0.277 C 
ATOM     12  O   LIG    1       32.119 -18.703   8.157  0.00  0.00    -0.491 OA
ENDBRANCH   5  12
BRANCH   6  13
ATOM     13  O   LIG    1       30.864 -20.768   9.337  0.00  0.00    -0.491 OA
ATOM     14  C   LIG    1       31.264 -22.126   9.194  0.00  0.00    +0.277 C 
ENDBRANCH   6  13
ENDBRANCH   4   8
ENDBRANCH   3   4
ENDBRANCH   1   3
BRANCH   1  15
ATOM     15  C   LIG    1       24.423 -22.743   6.886  0.00  0.00    +0.115 C 
BRANCH  15  16
ATOM     16  C   LIG    1       24.005 -24.192   6.606  0.00  0.00    +0.166 C 
BRANCH  16  17
ATOM     17  O   LIG    1       22.570 -24.223   6.545  0.00  0.00    -0.387 OA
ATOM     18  H   LIG    1       22.317 -25.165   6.545  0.00  0.00    +0.210 HD
ENDBRANCH  16  17
BRANCH  16  19
ATOM     19  C   LIG    1       24.663 -24.744   5.331  0.00  0.00    +0.261 C 
BRANCH  19  20
ATOM     20  O   LIG    1       25.752 -25.635   5.613  0.00  0.00    -0.489 OA
BRANCH  20  21
ATOM     21  C   LIG    1       25.422 -26.809   6.230  0.00  0.00    +0.121 A 
ATOM     22  C   LIG    1       26.116 -27.126   7.400  0.00  0.00    +0.049 A 
ATOM     23  C   LIG    1       25.853 -28.322   8.083  0.00  0.00    -0.047 A 
ATOM     24  C   LIG    1       26.532 -28.631   9.377  0.00  0.00    +0.044 C 
ATOM     25  C   LIG    1       24.942 -29.241   7.537  0.00  0.00    +0.003 A 
ATOM     26  C   LIG    1       24.266 -28.944   6.362  0.00  0.00    +0.004 A 
ATOM     27  C   LIG    1       24.481 -27.718   5.736  0.00  0.00    +0.045 A 
ENDBRANCH  20  21
ENDBRANCH  19  20
ENDBRANCH  16  19
ENDBRANCH  15  16
ENDBRANCH   1  15
TORSDOF 11
ENDMDL
MODEL 8
REMARK VINA RESULT:      -7.7      4.514      8.516
REMARK  Name = *****
REMARK                            x       y       z     vdW  Elec       q    Type
REMARK                         _______ _______ _______ _____ _____    ______ ____
ROOT
ATOM      1  N   LIG    1       26.093 -27.923   5.357  0.00  0.00    -0.313 NA
ATOM      2  H   LIG    1       26.879 -27.999   6.007  0.00  0.00    +0.122 HD
ENDROOT
BRANCH   1   3
ATOM      3  C   LIG    1       25.182 -26.857   5.753  0.00  0.00    +0.085 C 
BRANCH   3   4
ATOM      4  C   LIG    1       25.848 -25.921   6.765  0.00  0.00    +0.050 C 
BRANCH   4   8
ATOM      5  C   LIG    1       23.802 -22.123   6.995  0.00  0.00    +0.162 A 
ATOM      6  C   LIG    1       25.189 -22.182   7.212  0.00  0.00    +0.162 A 
ATOM      7  C   LIG    1       25.844 -23.417   7.131  0.00  0.00    +0.053 A 
ATOM      8  C   LIG    1       25.141 -24.591   6.826  0.00  0.00    -0.043 A 
ATOM      9  C   LIG    1       23.768 -24.518   6.597  0.00  0.00    +0.007 A 
ATOM     10  C   LIG    1       23.103 -23.298   6.692  0.00  0.00    +0.050 A 
BRANCH   5  12
ATOM     11  C   LIG    1       22.877 -20.241   5.901  0.00  0.00    +0.277 C 
ATOM     12  O   LIG    1       23.187 -20.901   7.126  0.00  0.00    -0.491 OA
ENDBRANCH   5  12
BRANCH   6  13
ATOM     13  O   LIG    1       25.844 -21.013   7.525  0.00  0.00    -0.491 OA
ATOM     14  C   LIG    1       26.792 -20.565   6.563  0.00  0.00    +0.277 C 
ENDBRANCH   6  13
ENDBRANCH   4   8
ENDBRANCH   3   4
ENDBRANCH   1   3
BRANCH   1  15
ATOM     15  C   LIG    1       25.393 -29.215   5.324  0.00  0.00    +0.115 C 
BRANCH  15  16
ATOM     16  C   LIG    1       24.133 -29.110   6.192  0.00  0.00    +0.166 C 
BRANCH  16  17
ATOM     17  O   LIG    1       23.047 -29.687   5.448  0.00  0.00    -0.387 OA
ATOM     18  H   LIG    1       23.032 -30.635   5.678  0.00  0.00    +0.210 HD
ENDBRANCH  16  17
BRANCH  16  19
ATOM     19  C   LIG    1       24.324 -29.771   7.567  0.00  0.00    +0.261 C 
BRANCH  19  20
ATOM     20  O   LIG    1       25.664 -29.632   8.063  0.00  0.00    -0.489 OA
BRANCH  20  21
ATOM     21  C   LIG    1       25.783 -29.266   9.374  0.00  0.00    +0.121 A 
ATOM     22  C   LIG    1       24.815 -29.751  10.258  0.00  0.00    +0.049 A 
ATOM     23  C   LIG    1       24.853 -29.404  11.616  0.00  0.00    -0.047 A 
ATOM     24  C   LIG    1       23.870 -29.982  12.581  0.00  0.00    +0.044 C 
ATOM     25  C   LIG    1       25.826 -28.499  12.070  0.00  0.00    +0.003 A 
ATOM     26  C   LIG    1       26.776 -27.995  11.193  0.00  0.00    +0.004 A 
ATOM     27  C   LIG    1       26.773 -28.407   9.862  0.00  0.00    +0.045 A 
ENDBRANCH  20  21
ENDBRANCH  19  20
ENDBRANCH  16  19
ENDBRANCH  15  16
ENDBRANCH   1  15
TORSDOF 11
ENDMDL
MODEL 9
REMARK VINA RESULT:      -7.6      4.356      7.833
REMARK  Name = *****
REMARK                            x       y       z     vdW  Elec       q    Type
REMARK                         _______ _______ _______ _____ _____    ______ ____
ROOT
ATOM      1  N   LIG    1       24.555 -25.244   5.058  0.00  0.00    -0.313 NA
ATOM      2  H   LIG    1       23.755 -25.311   4.424  0.00  0.00    +0.122 HD
ENDROOT
BRANCH   1   3
ATOM      3  C   LIG    1       25.335 -26.475   5.055  0.00  0.00    +0.085 C 
BRANCH   3   4
ATOM      4  C   LIG    1       26.200 -26.572   6.315  0.00  0.00    +0.050 C 
BRANCH   4   8
ATOM      5  C   LIG    1       25.042 -29.944   8.756  0.00  0.00    +0.162 A 
ATOM      6  C   LIG    1       24.463 -29.770   7.487  0.00  0.00    +0.162 A 
ATOM      7  C   LIG    1       24.848 -28.677   6.702  0.00  0.00    +0.053 A 
ATOM      8  C   LIG    1       25.809 -27.762   7.155  0.00  0.00    -0.043 A 
ATOM      9  C   LIG    1       26.388 -27.953   8.409  0.00  0.00    +0.007 A 
ATOM     10  C   LIG    1       26.000 -29.027   9.206  0.00  0.00    +0.050 A 
BRANCH   5  12
ATOM     11  C   LIG    1       24.250 -30.683  10.858  0.00  0.00    +0.277 C 
ATOM     12  O   LIG    1       24.607 -31.004   9.516  0.00  0.00    -0.491 OA
ENDBRANCH   5  12
BRANCH   6  13
ATOM     13  O   LIG    1       23.513 -30.678   7.082  0.00  0.00    -0.491 OA
ATOM     14  C   LIG    1       23.992 -31.751   6.280  0.00  0.00    +0.277 C 
ENDBRANCH   6  13
ENDBRANCH   4   8
ENDBRANCH   3   4
ENDBRANCH   1   3
BRANCH   1  15
ATOM     15  C   LIG    1       24.054 -24.952   6.408  0.00  0.00    +0.115 C 
BRANCH  15  16
ATOM     16  C   LIG    1       23.465 -23.536   6.415  0.00  0.00    +0.166 C 
BRANCH  16  17
ATOM     17  O   LIG    1       22.057 -23.656   6.676  0.00  0.00    -0.387 OA
ATOM     18  H   LIG    1       21.631 -22.904   6.222  0.00  0.00    +0.210 HD
ENDBRANCH  16  17
BRANCH  16  19
ATOM     19  C   LIG    1       24.178 -22.622   7.425  0.00  0.00    +0.261 C 
BRANCH  19  20
ATOM     20  O   LIG    1       23.675 -21.279   7.404  0.00  0.00    -0.489 OA
BRANCH  20  21
ATOM     21  C   LIG    1       23.859 -20.587   6.240  0.00  0.00    +0.121 A 
ATOM     22  C   LIG    1       22.759 -19.887   5.739  0.00  0.00    +0.049 A 
ATOM     23  C   LIG    1       22.857 -19.169   4.538  0.00  0.00    -0.047 A 
ATOM     24  C   LIG    1       21.711 -18.353   4.038  0.00  0.00    +0.044 C 
ATOM     25  C   LIG    1       24.049 -19.223   3.799  0.00  0.00    +0.003 A 
ATOM     26  C   LIG    1       25.140 -19.936   4.279  0.00  0.00    +0.004 A 
ATOM     27  C   LIG    1       25.052 -20.582   5.510  0.00  0.00    +0.045 A 
ENDBRANCH  20  21
ENDBRANCH  19  20
ENDBRANCH  16  19
ENDBRANCH  15  16
ENDBRANCH   1  15
TORSDOF 11
ENDMDL
