MODEL 1
REMARK VINA RESULT:      -3.8      0.000      0.000
REMARK  Name = *****
REMARK                            x       y       z     vdW  Elec       q    Type
REMARK                         _______ _______ _______ _____ _____    ______ ____
ROOT
ATOM      1  C   LIG    1       22.120 -18.208   4.454  0.00  0.00    +0.047 C 
ATOM      2  C   LIG    1       22.849 -19.495   4.500  0.00  0.00    -0.013 A 
ATOM      3  C   LIG    1       22.453 -20.671   5.100  0.00  0.00    +0.108 A 
ATOM      4  N   LIG    1       23.453 -21.572   4.878  0.00  0.00    -0.284 N 
ATOM      5  H   LIG    1       23.505 -22.540   5.177  0.00  0.00    +0.188 HD
ATOM      6  N   LIG    1       24.476 -21.068   4.172  0.00  0.00    -0.182 NA
ATOM      7  C   LIG    1       24.108 -19.805   3.941  0.00  0.00    +0.137 A 
ENDROOT
TORSDOF 0
ENDMDL
MODEL 2
REMARK VINA RESULT:      -3.8      6.799      7.392
REMARK  Name = *****
REMARK                            x       y       z     vdW  Elec       q    Type
REMARK                         _______ _______ _______ _____ _____    ______ ____
ROOT
ATOM      1  C   LIG    1       24.393 -14.392   4.045  0.00  0.00    +0.047 C 
ATOM      2  C   LIG    1       25.798 -14.040   3.743  0.00  0.00    -0.013 A 
ATOM      3  C   LIG    1       26.388 -13.898   2.506  0.00  0.00    +0.108 A 
ATOM      4  N   LIG    1       27.691 -13.572   2.736  0.00  0.00    -0.284 N 
ATOM      5  H   LIG    1       28.425 -13.395   2.057  0.00  0.00    +0.188 HD
ATOM      6  N   LIG    1       27.997 -13.488   4.039  0.00  0.00    -0.182 NA
ATOM      7  C   LIG    1       26.845 -13.771   4.652  0.00  0.00    +0.137 A 
ENDROOT
TORSDOF 0
ENDMDL
MODEL 3
REMARK VINA RESULT:      -3.7      1.887      2.665
REMARK  Name = *****
REMARK                            x       y       z     vdW  Elec       q    Type
REMARK                         _______ _______ _______ _____ _____    ______ ____
ROOT
ATOM      1  C   LIG    1       23.471 -20.806   6.942  0.00  0.00    +0.047 C 
ATOM      2  C   LIG    1       24.382 -20.535   5.809  0.00  0.00    -0.013 A 
ATOM      3  C   LIG    1       25.757 -20.631   5.785  0.00  0.00    +0.108 A 
ATOM      4  N   LIG    1       26.146 -20.281   4.526  0.00  0.00    -0.284 N 
ATOM      5  H   LIG    1       27.087 -20.235   4.148  0.00  0.00    +0.188 HD
ATOM      6  N   LIG    1       25.121 -19.963   3.721  0.00  0.00    -0.182 NA
ATOM      7  C   LIG    1       24.048 -20.119   4.501  0.00  0.00    +0.137 A 
ENDROOT
TORSDOF 0
ENDMDL
MODEL 4
REMARK VINA RESULT:      -3.7      2.211      2.895
REMARK  Name = *****
REMARK                            x       y       z     vdW  Elec       q    Type
REMARK                         _______ _______ _______ _____ _____    ______ ____
ROOT
ATOM      1  C   LIG    1       23.004 -20.582   5.738  0.00  0.00    +0.047 C 
ATOM      2  C   LIG    1       24.470 -20.478   5.572  0.00  0.00    -0.013 A 
ATOM      3  C   LIG    1       25.173 -20.181   4.425  0.00  0.00    +0.108 A 
ATOM      4  N   LIG    1       26.493 -20.202   4.765  0.00  0.00    -0.284 N 
ATOM      5  H   LIG    1       27.299 -20.032   4.172  0.00  0.00    +0.188 HD
ATOM      6  N   LIG    1       26.705 -20.490   6.059  0.00  0.00    -0.182 NA
ATOM      7  C   LIG    1       25.474 -20.656   6.549  0.00  0.00    +0.137 A 
ENDROOT
TORSDOF 0
ENDMDL
MODEL 5
REMARK VINA RESULT:      -3.7      6.234      6.898
REMARK  Name = *****
REMARK                            x       y       z     vdW  Elec       q    Type
REMARK                         _______ _______ _______ _____ _____    ______ ____
ROOT
ATOM      1  C   LIG    1       23.965 -12.369   3.792  0.00  0.00    +0.047 C 
ATOM      2  C   LIG    1       24.989 -13.342   3.350  0.00  0.00    -0.013 A 
ATOM      3  C   LIG    1       25.316 -14.549   3.929  0.00  0.00    +0.108 A 
ATOM      4  N   LIG    1       26.314 -15.083   3.169  0.00  0.00    -0.284 N 
ATOM      5  H   LIG    1       26.803 -15.963   3.299  0.00  0.00    +0.188 HD
ATOM      6  N   LIG    1       26.664 -14.310   2.130  0.00  0.00    -0.182 NA
ATOM      7  C   LIG    1       25.856 -13.252   2.239  0.00  0.00    +0.137 A 
ENDROOT
TORSDOF 0
ENDMDL
MODEL 6
REMARK VINA RESULT:      -3.7      7.305      7.450
REMARK  Name = *****
REMARK                            x       y       z     vdW  Elec       q    Type
REMARK                         _______ _______ _______ _____ _____    ______ ____
ROOT
ATOM      1  C   LIG    1       26.854 -13.536   5.599  0.00  0.00    +0.047 C 
ATOM      2  C   LIG    1       26.509 -13.664   4.166  0.00  0.00    -0.013 A 
ATOM      3  C   LIG    1       25.388 -13.190   3.519  0.00  0.00    +0.108 A 
ATOM      4  N   LIG    1       25.516 -13.552   2.211  0.00  0.00    -0.284 N 
ATOM      5  H   LIG    1       24.876 -13.374   1.443  0.00  0.00    +0.188 HD
ATOM      6  N   LIG    1       26.645 -14.230   1.954  0.00  0.00    -0.182 NA
ATOM      7  C   LIG    1       27.249 -14.297   3.143  0.00  0.00    +0.137 A 
ENDROOT
TORSDOF 0
ENDMDL
MODEL 7
REMARK VINA RESULT:      -3.7      0.812      1.663
REMARK  Name = *****
REMARK                            x       y       z     vdW  Elec       q    Type
REMARK                         _______ _______ _______ _____ _____    ______ ____
ROOT
ATOM      1  C   LIG    1       22.278 -18.715   4.488  0.00  0.00    +0.047 C 
ATOM      2  C   LIG    1       23.378 -19.701   4.559  0.00  0.00    -0.013 A 
ATOM      3  C   LIG    1       24.600 -19.654   3.923  0.00  0.00    +0.108 A 
ATOM      4  N   LIG    1       25.270 -20.783   4.292  0.00  0.00    -0.284 N 
ATOM      5  H   LIG    1       26.199 -21.082   4.014  0.00  0.00    +0.188 HD
ATOM      6  N   LIG    1       24.573 -21.567   5.128  0.00  0.00    -0.182 NA
ATOM      7  C   LIG    1       23.423 -20.908   5.291  0.00  0.00    +0.137 A 
ENDROOT
TORSDOF 0
ENDMDL
MODEL 8
REMARK VINA RESULT:      -3.5      7.520      7.648
REMARK  Name = *****
REMARK                            x       y       z     vdW  Elec       q    Type
REMARK                         _______ _______ _______ _____ _____    ______ ____
ROOT
ATOM      1  C   LIG    1       26.453 -13.654   5.036  0.00  0.00    +0.047 C 
ATOM      2  C   LIG    1       25.528 -13.315   3.932  0.00  0.00    -0.013 A 
ATOM      3  C   LIG    1       24.201 -12.953   4.020  0.00  0.00    +0.108 A 
ATOM      4  N   LIG    1       23.773 -12.741   2.743  0.00  0.00    -0.284 N 
ATOM      5  H   LIG    1       22.850 -12.465   2.426  0.00  0.00    +0.188 HD
ATOM      6  N   LIG    1       24.729 -12.937   1.822  0.00  0.00    -0.182 NA
ATOM      7  C   LIG    1       25.797 -13.285   2.546  0.00  0.00    +0.137 A 
ENDROOT
TORSDOF 0
ENDMDL
MODEL 9
REMARK VINA RESULT:      -3.5      6.681      7.111
REMARK  Name = *****
REMARK                            x       y       z     vdW  Elec       q    Type
REMARK                         _______ _______ _______ _____ _____    ______ ____
ROOT
ATOM      1  C   LIG    1       23.980 -14.157   4.108  0.00  0.00    +0.047 C 
ATOM      2  C   LIG    1       25.442 -13.980   3.960  0.00  0.00    -0.013 A 
ATOM      3  C   LIG    1       26.348 -13.584   4.919  0.00  0.00    +0.108 A 
ATOM      4  N   LIG    1       27.569 -13.565   4.312  0.00  0.00    -0.284 N 
ATOM      5  H   LIG    1       28.468 -13.319   4.713  0.00  0.00    +0.188 HD
ATOM      6  N   LIG    1       27.526 -13.923   3.019  0.00  0.00    -0.182 NA
ATOM      7  C   LIG    1       26.232 -14.176   2.806  0.00  0.00    +0.137 A 
ENDROOT
TORSDOF 0
ENDMDL
