MODEL 1
REMARK VINA RESULT:       6.8      0.000      0.000
REMARK  Name = *****
REMARK                            x       y       z     vdW  Elec       q    Type
REMARK                         _______ _______ _______ _____ _____    ______ ____
ROOT
ATOM      1  C   LIG    1       23.727 -18.519   4.323  0.00  0.00    +0.064 A 
ATOM      2  C   LIG    1       23.348 -17.146   4.446  0.00  0.00    +0.049 A 
ATOM      3  I   LIG    1       21.507 -16.646   5.440  0.00  0.00    -0.041 I 
ATOM      4  C   LIG    1       24.243 -16.090   4.041  0.00  0.00    +0.065 A 
ATOM      5  C   LIG    1       25.595 -16.406   3.798  0.00  0.00    +0.040 A 
ATOM      6  I   LIG    1       26.871 -15.136   2.635  0.00  0.00    -0.042 I 
ATOM      7  C   LIG    1       26.047 -17.712   4.058  0.00  0.00    +0.065 A 
ATOM      8  C   LIG    1       25.085 -18.747   4.026  0.00  0.00    +0.049 A 
ATOM      9  I   LIG    1       25.273 -19.589   1.815  0.00  0.00    -0.041 I 
ENDROOT
BRANCH   7  10
ATOM     10  C   LIG    1       27.414 -18.058   4.522  0.00  0.00    +0.246 C 
ATOM     11  N   LIG    1       27.576 -19.331   5.034  0.00  0.00    -0.309 N 
ATOM     12  H   LIG    1       26.778 -19.959   5.142  0.00  0.00    +0.149 HD
ATOM     13  O   LIG    1       28.347 -17.237   4.514  0.00  0.00    -0.270 OA
BRANCH  11  14
ATOM     14  C   LIG    1       28.875 -19.842   5.457  0.00  0.00    +0.132 C 
BRANCH  14  15
ATOM     15  C   LIG    1       28.930 -20.261   6.928  0.00  0.00    +0.174 C 
BRANCH  15  16
ATOM     16  O   LIG    1       29.475 -21.571   7.060  0.00  0.00    -0.394 OA
ATOM     17  H   LIG    1       29.616 -21.906   6.158  0.00  0.00    +0.209 HD
ENDBRANCH  15  16
ENDBRANCH  14  15
ENDBRANCH  11  14
ENDBRANCH   7  10
BRANCH   1  20
ATOM     18  C   LIG    1       21.009 -21.231   4.662  0.00  0.00    +0.110 C 
ATOM     19  C   LIG    1       21.779 -19.990   4.182  0.00  0.00    +0.217 C 
ATOM     20  N   LIG    1       22.957 -19.644   4.847  0.00  0.00    -0.267 N 
ATOM     21  O   LIG    1       21.348 -19.361   3.224  0.00  0.00    -0.276 OA
BRANCH  20  22
ATOM     22  C   LIG    1       23.395 -20.282   6.112  0.00  0.00    +0.147 C 
BRANCH  22  23
ATOM     23  C   LIG    1       24.340 -21.471   5.908  0.00  0.00    +0.158 C 
BRANCH  23  24
ATOM     24  O   LIG    1       24.881 -21.476   4.580  0.00  0.00    -0.388 OA
ATOM     25  H   LIG    1       25.620 -20.845   4.531  0.00  0.00    +0.210 HD
ENDBRANCH  23  24
BRANCH  23  26
ATOM     26  C   LIG    1       25.549 -21.446   6.840  0.00  0.00    +0.188 C 
BRANCH  26  27
ATOM     27  O   LIG    1       25.935 -20.087   7.056  0.00  0.00    -0.392 OA
ATOM     28  H   LIG    1       25.605 -19.580   6.284  0.00  0.00    +0.209 HD
ENDBRANCH  26  27
ENDBRANCH  23  26
ENDBRANCH  22  23
ENDBRANCH  20  22
ENDBRANCH   1  20
BRANCH   4  29
ATOM     29  C   LIG    1       23.727 -14.668   3.891  0.00  0.00    +0.246 C 
ATOM     30  N   LIG    1       23.988 -13.770   4.936  0.00  0.00    -0.309 N 
ATOM     31  H   LIG    1       24.785 -13.966   5.517  0.00  0.00    +0.149 HD
ATOM     32  O   LIG    1       23.138 -14.338   2.894  0.00  0.00    -0.270 OA
BRANCH  30  33
ATOM     33  C   LIG    1       23.611 -12.350   4.815  0.00  0.00    +0.138 C 
BRANCH  33  34
ATOM     34  C   LIG    1       24.583 -11.596   3.886  0.00  0.00    +0.157 C 
BRANCH  34  35
ATOM     35  O   LIG    1       24.083 -11.586   2.542  0.00  0.00    -0.388 OA
ATOM     36  H   LIG    1       24.157 -12.499   2.209  0.00  0.00    +0.210 HD
ENDBRANCH  34  35
BRANCH  34  37
ATOM     37  C   LIG    1       25.989 -12.207   3.867  0.00  0.00    +0.188 C 
BRANCH  37  38
ATOM     38  O   LIG    1       26.456 -12.486   5.180  0.00  0.00    -0.392 OA
ATOM     39  H   LIG    1       27.018 -11.736   5.444  0.00  0.00    +0.209 HD
ENDBRANCH  37  38
ENDBRANCH  34  37
ENDBRANCH  33  34
ENDBRANCH  30  33
ENDBRANCH   4  29
TORSDOF 16
ENDMDL
MODEL 2
REMARK VINA RESULT:       8.7      0.980      2.474
REMARK  Name = *****
REMARK                            x       y       z     vdW  Elec       q    Type
REMARK                         _______ _______ _______ _____ _____    ______ ____
ROOT
ATOM      1  C   LIG    1       23.860 -18.316   4.399  0.00  0.00    +0.064 A 
ATOM      2  C   LIG    1       23.507 -16.931   4.440  0.00  0.00    +0.049 A 
ATOM      3  I   LIG    1       21.711 -16.332   5.462  0.00  0.00    -0.041 I 
ATOM      4  C   LIG    1       24.402 -15.921   3.931  0.00  0.00    +0.065 A 
ATOM      5  C   LIG    1       25.739 -16.276   3.662  0.00  0.00    +0.040 A 
ATOM      6  I   LIG    1       26.989 -15.111   2.369  0.00  0.00    -0.042 I 
ATOM      7  C   LIG    1       26.181 -17.568   3.996  0.00  0.00    +0.065 A 
ATOM      8  C   LIG    1       25.203 -18.586   4.070  0.00  0.00    +0.049 A 
ATOM      9  I   LIG    1       25.297 -19.581   1.917  0.00  0.00    -0.041 I 
ENDROOT
BRANCH   7  10
ATOM     10  C   LIG    1       27.559 -17.905   4.433  0.00  0.00    +0.246 C 
ATOM     11  N   LIG    1       27.719 -19.139   5.034  0.00  0.00    -0.309 N 
ATOM     12  H   LIG    1       26.915 -19.742   5.219  0.00  0.00    +0.149 HD
ATOM     13  O   LIG    1       28.504 -17.106   4.329  0.00  0.00    -0.270 OA
BRANCH  11  14
ATOM     14  C   LIG    1       29.025 -19.642   5.445  0.00  0.00    +0.132 C 
BRANCH  14  15
ATOM     15  C   LIG    1       29.008 -20.401   6.774  0.00  0.00    +0.174 C 
BRANCH  15  16
ATOM     16  O   LIG    1       28.112 -21.508   6.714  0.00  0.00    -0.394 OA
ATOM     17  H   LIG    1       28.144 -21.841   5.801  0.00  0.00    +0.209 HD
ENDBRANCH  15  16
ENDBRANCH  14  15
ENDBRANCH  11  14
ENDBRANCH   7  10
BRANCH   1  20
ATOM     18  C   LIG    1       23.018 -21.572   6.281  0.00  0.00    +0.110 C 
ATOM     19  C   LIG    1       23.801 -20.481   5.531  0.00  0.00    +0.217 C 
ATOM     20  N   LIG    1       23.094 -19.389   5.027  0.00  0.00    -0.267 N 
ATOM     21  O   LIG    1       25.015 -20.595   5.420  0.00  0.00    -0.276 OA
BRANCH  20  22
ATOM     22  C   LIG    1       21.612 -19.322   4.994  0.00  0.00    +0.147 C 
BRANCH  22  23
ATOM     23  C   LIG    1       20.995 -19.946   3.739  0.00  0.00    +0.158 C 
BRANCH  23  24
ATOM     24  O   LIG    1       20.849 -21.365   3.888  0.00  0.00    -0.388 OA
ATOM     25  H   LIG    1       19.905 -21.597   3.854  0.00  0.00    +0.210 HD
ENDBRANCH  23  24
BRANCH  23  26
ATOM     26  C   LIG    1       19.593 -19.423   3.433  0.00  0.00    +0.188 C 
BRANCH  26  27
ATOM     27  O   LIG    1       19.709 -18.200   2.703  0.00  0.00    -0.392 OA
ATOM     28  H   LIG    1       18.938 -18.167   2.097  0.00  0.00    +0.209 HD
ENDBRANCH  26  27
ENDBRANCH  23  26
ENDBRANCH  22  23
ENDBRANCH  20  22
ENDBRANCH   1  20
BRANCH   4  29
ATOM     29  C   LIG    1       23.901 -14.504   3.702  0.00  0.00    +0.246 C 
ATOM     30  N   LIG    1       24.481 -13.480   4.464  0.00  0.00    -0.309 N 
ATOM     31  H   LIG    1       25.409 -13.643   4.817  0.00  0.00    +0.149 HD
ATOM     32  O   LIG    1       23.054 -14.286   2.874  0.00  0.00    -0.270 OA
BRANCH  30  33
ATOM     33  C   LIG    1       24.123 -12.071   4.223  0.00  0.00    +0.138 C 
BRANCH  33  34
ATOM     34  C   LIG    1       24.698 -11.575   2.881  0.00  0.00    +0.157 C 
BRANCH  34  35
ATOM     35  O   LIG    1       23.773 -11.832   1.815  0.00  0.00    -0.388 OA
ATOM     36  H   LIG    1       23.178 -12.539   2.126  0.00  0.00    +0.210 HD
ENDBRANCH  34  35
BRANCH  34  37
ATOM     37  C   LIG    1       26.035 -12.234   2.522  0.00  0.00    +0.188 C 
BRANCH  37  38
ATOM     38  O   LIG    1       26.893 -12.324   3.651  0.00  0.00    -0.392 OA
ATOM     39  H   LIG    1       27.499 -11.564   3.604  0.00  0.00    +0.209 HD
ENDBRANCH  37  38
ENDBRANCH  34  37
ENDBRANCH  33  34
ENDBRANCH  30  33
ENDBRANCH   4  29
TORSDOF 16
ENDMDL
