MODEL 1
REMARK VINA RESULT:      -8.7      0.000      0.000
REMARK  Name = *****
REMARK                            x       y       z     vdW  Elec       q    Type
REMARK                         _______ _______ _______ _____ _____    ______ ____
ROOT
ATOM      1  O   LIG    1       23.984 -21.686   7.904  0.00  0.00    -0.241 OA
ENDROOT
BRANCH   1   3
ATOM      2  O   LIG    1       22.700 -23.219   6.745  0.00  0.00    -0.241 OA
ATOM      3  C   LIG    1       23.319 -22.165   6.823  0.00  0.00    +0.387 C 
BRANCH   3   4
ATOM      4  C   LIG    1       23.422 -21.177   5.712  0.00  0.00    +0.063 A 
ATOM      5  C   LIG    1       22.698 -19.980   5.811  0.00  0.00    +0.015 A 
ATOM      6  C   LIG    1       22.750 -19.038   4.783  0.00  0.00    +0.001 A 
ATOM      7  C   LIG    1       23.524 -19.283   3.649  0.00  0.00    +0.000 A 
ATOM      8  C   LIG    1       24.245 -20.471   3.539  0.00  0.00    +0.001 A 
ATOM      9  C   LIG    1       24.196 -21.416   4.563  0.00  0.00    +0.015 A 
ENDBRANCH   3   4
ENDBRANCH   1   3
BRANCH   1  10
ATOM     10  O   LIG    1       25.403 -21.921   7.677  0.00  0.00    -0.241 OA
BRANCH  10  11
ATOM     11  C   LIG    1       26.076 -20.983   8.402  0.00  0.00    +0.387 C 
ATOM     12  O   LIG    1       25.855 -20.639   9.546  0.00  0.00    -0.241 OA
BRANCH  11  13
ATOM     13  C   LIG    1       27.155 -20.409   7.557  0.00  0.00    +0.063 A 
ATOM     14  C   LIG    1       26.925 -20.241   6.186  0.00  0.00    +0.015 A 
ATOM     15  C   LIG    1       27.918 -19.681   5.378  0.00  0.00    +0.001 A 
ATOM     16  C   LIG    1       29.132 -19.280   5.939  0.00  0.00    +0.000 A 
ATOM     17  C   LIG    1       29.361 -19.440   7.304  0.00  0.00    +0.001 A 
ATOM     18  C   LIG    1       28.375 -20.004   8.114  0.00  0.00    +0.015 A 
ENDBRANCH  11  13
ENDBRANCH  10  11
ENDBRANCH   1  10
TORSDOF 5
ENDMDL
MODEL 2
REMARK VINA RESULT:      -8.7      0.066      4.846
REMARK  Name = *****
REMARK                            x       y       z     vdW  Elec       q    Type
REMARK                         _______ _______ _______ _____ _____    ______ ____
ROOT
ATOM      1  O   LIG    1       25.364 -21.866   7.685  0.00  0.00    -0.241 OA
ENDROOT
BRANCH   1   3
ATOM      2  O   LIG    1       25.846 -20.595   9.554  0.00  0.00    -0.241 OA
ATOM      3  C   LIG    1       26.045 -20.931   8.393  0.00  0.00    +0.387 C 
BRANCH   3   4
ATOM      4  C   LIG    1       27.131 -20.371   7.540  0.00  0.00    +0.063 A 
ATOM      5  C   LIG    1       28.323 -19.961   8.156  0.00  0.00    +0.015 A 
ATOM      6  C   LIG    1       29.356 -19.412   7.397  0.00  0.00    +0.001 A 
ATOM      7  C   LIG    1       29.209 -19.268   6.017  0.00  0.00    +0.000 A 
ATOM      8  C   LIG    1       28.028 -19.670   5.395  0.00  0.00    +0.001 A 
ATOM      9  C   LIG    1       26.991 -20.218   6.149  0.00  0.00    +0.015 A 
ENDBRANCH   3   4
ENDBRANCH   1   3
BRANCH   1  10
ATOM     10  O   LIG    1       23.945 -21.620   7.896  0.00  0.00    -0.241 OA
BRANCH  10  11
ATOM     11  C   LIG    1       23.294 -22.134   6.814  0.00  0.00    +0.387 C 
ATOM     12  O   LIG    1       22.728 -23.207   6.737  0.00  0.00    -0.241 OA
BRANCH  11  13
ATOM     13  C   LIG    1       23.386 -21.163   5.694  0.00  0.00    +0.063 A 
ATOM     14  C   LIG    1       22.679 -19.957   5.782  0.00  0.00    +0.015 A 
ATOM     15  C   LIG    1       22.772 -19.020   4.751  0.00  0.00    +0.001 A 
ATOM     16  C   LIG    1       23.576 -19.280   3.639  0.00  0.00    +0.000 A 
ATOM     17  C   LIG    1       24.285 -20.477   3.551  0.00  0.00    +0.001 A 
ATOM     18  C   LIG    1       24.192 -21.419   4.576  0.00  0.00    +0.015 A 
ENDBRANCH  11  13
ENDBRANCH  10  11
ENDBRANCH   1  10
TORSDOF 5
ENDMDL
MODEL 3
REMARK VINA RESULT:      -8.6      0.041      1.142
REMARK  Name = *****
REMARK                            x       y       z     vdW  Elec       q    Type
REMARK                         _______ _______ _______ _____ _____    ______ ____
ROOT
ATOM      1  O   LIG    1       23.986 -21.703   7.907  0.00  0.00    -0.241 OA
ENDROOT
BRANCH   1   3
ATOM      2  O   LIG    1       22.741 -23.258   6.735  0.00  0.00    -0.241 OA
ATOM      3  C   LIG    1       23.340 -22.192   6.820  0.00  0.00    +0.387 C 
BRANCH   3   4
ATOM      4  C   LIG    1       23.435 -21.201   5.711  0.00  0.00    +0.063 A 
ATOM      5  C   LIG    1       22.705 -20.008   5.815  0.00  0.00    +0.015 A 
ATOM      6  C   LIG    1       22.750 -19.063   4.790  0.00  0.00    +0.001 A 
ATOM      7  C   LIG    1       23.522 -19.301   3.653  0.00  0.00    +0.000 A 
ATOM      8  C   LIG    1       24.249 -20.485   3.538  0.00  0.00    +0.001 A 
ATOM      9  C   LIG    1       24.207 -21.433   4.560  0.00  0.00    +0.015 A 
ENDBRANCH   3   4
ENDBRANCH   1   3
BRANCH   1  10
ATOM     10  O   LIG    1       25.410 -21.933   7.704  0.00  0.00    -0.241 OA
BRANCH  10  11
ATOM     11  C   LIG    1       26.067 -20.980   8.423  0.00  0.00    +0.387 C 
ATOM     12  O   LIG    1       25.848 -20.640   9.568  0.00  0.00    -0.241 OA
BRANCH  11  13
ATOM     13  C   LIG    1       27.127 -20.384   7.570  0.00  0.00    +0.063 A 
ATOM     14  C   LIG    1       28.339 -20.005   8.160  0.00  0.00    +0.015 A 
ATOM     15  C   LIG    1       29.359 -19.465   7.372  0.00  0.00    +0.001 A 
ATOM     16  C   LIG    1       29.173 -19.313   5.997  0.00  0.00    +0.000 A 
ATOM     17  C   LIG    1       27.970 -19.695   5.405  0.00  0.00    +0.001 A 
ATOM     18  C   LIG    1       26.947 -20.230   6.188  0.00  0.00    +0.015 A 
ENDBRANCH  11  13
ENDBRANCH  10  11
ENDBRANCH   1  10
TORSDOF 5
ENDMDL
MODEL 4
REMARK VINA RESULT:      -8.6      0.066      4.824
REMARK  Name = *****
REMARK                            x       y       z     vdW  Elec       q    Type
REMARK                         _______ _______ _______ _____ _____    ______ ____
ROOT
ATOM      1  O   LIG    1       25.342 -21.920   7.670  0.00  0.00    -0.241 OA
ENDROOT
BRANCH   1   3
ATOM      2  O   LIG    1       25.801 -20.644   9.542  0.00  0.00    -0.241 OA
ATOM      3  C   LIG    1       26.009 -20.977   8.381  0.00  0.00    +0.387 C 
BRANCH   3   4
ATOM      4  C   LIG    1       27.091 -20.403   7.533  0.00  0.00    +0.063 A 
ATOM      5  C   LIG    1       28.283 -19.998   8.151  0.00  0.00    +0.015 A 
ATOM      6  C   LIG    1       29.313 -19.436   7.395  0.00  0.00    +0.001 A 
ATOM      7  C   LIG    1       29.162 -19.275   6.018  0.00  0.00    +0.000 A 
ATOM      8  C   LIG    1       27.980 -19.672   5.394  0.00  0.00    +0.001 A 
ATOM      9  C   LIG    1       26.947 -20.233   6.144  0.00  0.00    +0.015 A 
ENDBRANCH   3   4
ENDBRANCH   1   3
BRANCH   1  10
ATOM     10  O   LIG    1       23.920 -21.715   7.907  0.00  0.00    -0.241 OA
BRANCH  10  11
ATOM     11  C   LIG    1       23.269 -22.180   6.804  0.00  0.00    +0.387 C 
ATOM     12  O   LIG    1       22.693 -23.243   6.682  0.00  0.00    -0.241 OA
BRANCH  11  13
ATOM     13  C   LIG    1       23.375 -21.167   5.723  0.00  0.00    +0.063 A 
ATOM     14  C   LIG    1       24.164 -21.453   4.601  0.00  0.00    +0.015 A 
ATOM     15  C   LIG    1       24.258 -20.524   3.562  0.00  0.00    +0.001 A 
ATOM     16  C   LIG    1       23.559 -19.317   3.637  0.00  0.00    +0.000 A 
ATOM     17  C   LIG    1       22.770 -19.032   4.749  0.00  0.00    +0.001 A 
ATOM     18  C   LIG    1       22.676 -19.954   5.792  0.00  0.00    +0.015 A 
ENDBRANCH  11  13
ENDBRANCH  10  11
ENDBRANCH   1  10
TORSDOF 5
ENDMDL
MODEL 5
REMARK VINA RESULT:      -8.1      2.675      3.984
REMARK  Name = *****
REMARK                            x       y       z     vdW  Elec       q    Type
REMARK                         _______ _______ _______ _____ _____    ______ ____
ROOT
ATOM      1  O   LIG    1       27.670 -20.708   8.015  0.00  0.00    -0.241 OA
ENDROOT
BRANCH   1   3
ATOM      2  O   LIG    1       25.913 -20.630   9.514  0.00  0.00    -0.241 OA
ATOM      3  C   LIG    1       26.364 -20.656   8.375  0.00  0.00    +0.387 C 
BRANCH   3   4
ATOM      4  C   LIG    1       25.522 -20.598   7.147  0.00  0.00    +0.063 A 
ATOM      5  C   LIG    1       24.133 -20.736   7.279  0.00  0.00    +0.015 A 
ATOM      6  C   LIG    1       23.311 -20.709   6.152  0.00  0.00    +0.001 A 
ATOM      7  C   LIG    1       23.869 -20.544   4.884  0.00  0.00    +0.000 A 
ATOM      8  C   LIG    1       25.249 -20.408   4.741  0.00  0.00    +0.001 A 
ATOM      9  C   LIG    1       26.075 -20.435   5.864  0.00  0.00    +0.015 A 
ENDBRANCH   3   4
ENDBRANCH   1   3
BRANCH   1  10
ATOM     10  O   LIG    1       28.334 -19.566   8.629  0.00  0.00    -0.241 OA
BRANCH  10  11
ATOM     11  C   LIG    1       29.577 -19.492   8.076  0.00  0.00    +0.387 C 
ATOM     12  O   LIG    1       30.012 -20.149   7.150  0.00  0.00    -0.241 OA
BRANCH  11  13
ATOM     13  C   LIG    1       30.363 -18.462   8.801  0.00  0.00    +0.063 A 
ATOM     14  C   LIG    1       29.803 -17.854   9.932  0.00  0.00    +0.015 A 
ATOM     15  C   LIG    1       30.535 -16.900  10.643  0.00  0.00    +0.001 A 
ATOM     16  C   LIG    1       31.826 -16.561  10.233  0.00  0.00    +0.000 A 
ATOM     17  C   LIG    1       32.388 -17.168   9.113  0.00  0.00    +0.001 A 
ATOM     18  C   LIG    1       31.660 -18.118   8.395  0.00  0.00    +0.015 A 
ENDBRANCH  11  13
ENDBRANCH  10  11
ENDBRANCH   1  10
TORSDOF 5
ENDMDL
MODEL 6
REMARK VINA RESULT:      -8.1      3.140      7.111
REMARK  Name = *****
REMARK                            x       y       z     vdW  Elec       q    Type
REMARK                         _______ _______ _______ _____ _____    ______ ____
ROOT
ATOM      1  O   LIG    1       29.069 -19.469   8.312  0.00  0.00    -0.241 OA
ENDROOT
BRANCH   1   3
ATOM      2  O   LIG    1       30.202 -18.416   6.595  0.00  0.00    -0.241 OA
ATOM      3  C   LIG    1       29.968 -18.602   7.783  0.00  0.00    +0.387 C 
BRANCH   3   4
ATOM      4  C   LIG    1       30.631 -17.855   8.889  0.00  0.00    +0.063 A 
ATOM      5  C   LIG    1       31.954 -17.425   8.707  0.00  0.00    +0.015 A 
ATOM      6  C   LIG    1       32.618 -16.741   9.726  0.00  0.00    +0.001 A 
ATOM      7  C   LIG    1       31.969 -16.480  10.932  0.00  0.00    +0.000 A 
ATOM      8  C   LIG    1       30.655 -16.905  11.124  0.00  0.00    +0.001 A 
ATOM      9  C   LIG    1       29.986 -17.591  10.110  0.00  0.00    +0.015 A 
ENDBRANCH   3   4
ENDBRANCH   1   3
BRANCH   1  10
ATOM     10  O   LIG    1       28.183 -19.885   7.234  0.00  0.00    -0.241 OA
BRANCH  10  11
ATOM     11  C   LIG    1       27.254 -20.713   7.789  0.00  0.00    +0.387 C 
ATOM     12  O   LIG    1       27.386 -21.416   8.771  0.00  0.00    -0.241 OA
BRANCH  11  13
ATOM     13  C   LIG    1       26.007 -20.641   6.983  0.00  0.00    +0.063 A 
ATOM     14  C   LIG    1       24.774 -20.796   7.628  0.00  0.00    +0.015 A 
ATOM     15  C   LIG    1       23.589 -20.708   6.894  0.00  0.00    +0.001 A 
ATOM     16  C   LIG    1       23.634 -20.454   5.521  0.00  0.00    +0.000 A 
ATOM     17  C   LIG    1       24.860 -20.293   4.878  0.00  0.00    +0.001 A 
ATOM     18  C   LIG    1       26.046 -20.386   5.606  0.00  0.00    +0.015 A 
ENDBRANCH  11  13
ENDBRANCH  10  11
ENDBRANCH   1  10
TORSDOF 5
ENDMDL
MODEL 7
REMARK VINA RESULT:      -8.1      2.597      6.525
REMARK  Name = *****
REMARK                            x       y       z     vdW  Elec       q    Type
REMARK                         _______ _______ _______ _____ _____    ______ ____
ROOT
ATOM      1  O   LIG    1       28.235 -19.617   8.508  0.00  0.00    -0.241 OA
ENDROOT
BRANCH   1   3
ATOM      2  O   LIG    1       29.865 -20.189   6.973  0.00  0.00    -0.241 OA
ATOM      3  C   LIG    1       29.470 -19.566   7.951  0.00  0.00    +0.387 C 
BRANCH   3   4
ATOM      4  C   LIG    1       30.301 -18.584   8.702  0.00  0.00    +0.063 A 
ATOM      5  C   LIG    1       29.732 -17.928   9.803  0.00  0.00    +0.015 A 
ATOM      6  C   LIG    1       30.470 -16.986  10.521  0.00  0.00    +0.001 A 
ATOM      7  C   LIG    1       31.780 -16.691  10.146  0.00  0.00    +0.000 A 
ATOM      8  C   LIG    1       32.355 -17.335   9.052  0.00  0.00    +0.001 A 
ATOM      9  C   LIG    1       31.622 -18.277   8.330  0.00  0.00    +0.015 A 
ENDBRANCH   3   4
ENDBRANCH   1   3
BRANCH   1  10
ATOM     10  O   LIG    1       27.614 -20.860   8.071  0.00  0.00    -0.241 OA
BRANCH  10  11
ATOM     11  C   LIG    1       26.302 -20.791   8.431  0.00  0.00    +0.387 C 
ATOM     12  O   LIG    1       25.843 -20.838   9.556  0.00  0.00    -0.241 OA
BRANCH  11  13
ATOM     13  C   LIG    1       25.475 -20.655   7.204  0.00  0.00    +0.063 A 
ATOM     14  C   LIG    1       26.117 -20.496   5.969  0.00  0.00    +0.015 A 
ATOM     15  C   LIG    1       25.359 -20.391   4.800  0.00  0.00    +0.001 A 
ATOM     16  C   LIG    1       23.965 -20.454   4.862  0.00  0.00    +0.000 A 
ATOM     17  C   LIG    1       23.325 -20.618   6.089  0.00  0.00    +0.001 A 
ATOM     18  C   LIG    1       24.076 -20.718   7.260  0.00  0.00    +0.015 A 
ENDBRANCH  11  13
ENDBRANCH  10  11
ENDBRANCH   1  10
TORSDOF 5
ENDMDL
MODEL 8
REMARK VINA RESULT:      -7.9      3.264      5.149
REMARK  Name = *****
REMARK                            x       y       z     vdW  Elec       q    Type
REMARK                         _______ _______ _______ _____ _____    ______ ____
ROOT
ATOM      1  O   LIG    1       25.221 -22.648   6.290  0.00  0.00    -0.241 OA
ENDROOT
BRANCH   1   3
ATOM      2  O   LIG    1       24.732 -21.252   8.066  0.00  0.00    -0.241 OA
ATOM      3  C   LIG    1       24.730 -21.526   6.872  0.00  0.00    +0.387 C 
BRANCH   3   4
ATOM      4  C   LIG    1       24.197 -20.623   5.813  0.00  0.00    +0.063 A 
ATOM      5  C   LIG    1       25.043 -20.259   4.755  0.00  0.00    +0.015 A 
ATOM      6  C   LIG    1       24.590 -19.399   3.754  0.00  0.00    +0.001 A 
ATOM      7  C   LIG    1       23.290 -18.896   3.801  0.00  0.00    +0.000 A 
ATOM      8  C   LIG    1       22.441 -19.250   4.849  0.00  0.00    +0.001 A 
ATOM      9  C   LIG    1       22.889 -20.108   5.852  0.00  0.00    +0.015 A 
ENDBRANCH   3   4
ENDBRANCH   1   3
BRANCH   1  10
ATOM     10  O   LIG    1       24.963 -23.755   7.201  0.00  0.00    -0.241 OA
BRANCH  10  11
ATOM     11  C   LIG    1       23.943 -24.478   6.660  0.00  0.00    +0.387 C 
ATOM     12  O   LIG    1       22.762 -24.192   6.650  0.00  0.00    -0.241 OA
BRANCH  11  13
ATOM     13  C   LIG    1       24.499 -25.723   6.069  0.00  0.00    +0.063 A 
ATOM     14  C   LIG    1       25.334 -25.626   4.950  0.00  0.00    +0.015 A 
ATOM     15  C   LIG    1       25.888 -26.782   4.393  0.00  0.00    +0.001 A 
ATOM     16  C   LIG    1       25.616 -28.030   4.959  0.00  0.00    +0.000 A 
ATOM     17  C   LIG    1       24.790 -28.128   6.077  0.00  0.00    +0.001 A 
ATOM     18  C   LIG    1       24.230 -26.977   6.633  0.00  0.00    +0.015 A 
ENDBRANCH  11  13
ENDBRANCH  10  11
ENDBRANCH   1  10
TORSDOF 5
ENDMDL
MODEL 9
REMARK VINA RESULT:      -7.8      3.312      5.285
REMARK  Name = *****
REMARK                            x       y       z     vdW  Elec       q    Type
REMARK                         _______ _______ _______ _____ _____    ______ ____
ROOT
ATOM      1  O   LIG    1       24.999 -23.718   7.069  0.00  0.00    -0.241 OA
ENDROOT
BRANCH   1   3
ATOM      2  O   LIG    1       22.772 -24.210   6.694  0.00  0.00    -0.241 OA
ATOM      3  C   LIG    1       23.964 -24.489   6.652  0.00  0.00    +0.387 C 
BRANCH   3   4
ATOM      4  C   LIG    1       24.501 -25.758   6.084  0.00  0.00    +0.063 A 
ATOM      5  C   LIG    1       25.376 -25.685   4.991  0.00  0.00    +0.015 A 
ATOM      6  C   LIG    1       25.885 -26.849   4.416  0.00  0.00    +0.001 A 
ATOM      7  C   LIG    1       25.526 -28.096   4.927  0.00  0.00    +0.000 A 
ATOM      8  C   LIG    1       24.655 -28.180   6.013  0.00  0.00    +0.001 A 
ATOM      9  C   LIG    1       24.142 -27.020   6.591  0.00  0.00    +0.015 A 
ENDBRANCH   3   4
ENDBRANCH   1   3
BRANCH   1  10
ATOM     10  O   LIG    1       24.486 -22.366   7.247  0.00  0.00    -0.241 OA
BRANCH  10  11
ATOM     11  C   LIG    1       25.335 -21.535   6.580  0.00  0.00    +0.387 C 
ATOM     12  O   LIG    1       26.544 -21.478   6.685  0.00  0.00    -0.241 OA
BRANCH  11  13
ATOM     13  C   LIG    1       24.540 -20.663   5.677  0.00  0.00    +0.063 A 
ATOM     14  C   LIG    1       23.217 -20.358   6.021  0.00  0.00    +0.015 A 
ATOM     15  C   LIG    1       22.459 -19.521   5.199  0.00  0.00    +0.001 A 
ATOM     16  C   LIG    1       23.023 -18.982   4.040  0.00  0.00    +0.000 A 
ATOM     17  C   LIG    1       24.341 -19.279   3.699  0.00  0.00    +0.001 A 
ATOM     18  C   LIG    1       25.100 -20.118   4.514  0.00  0.00    +0.015 A 
ENDBRANCH  11  13
ENDBRANCH  10  11
ENDBRANCH   1  10
TORSDOF 5
ENDMDL
