MODEL 1
REMARK VINA RESULT:      -6.8      0.000      0.000
REMARK  Name = *****
REMARK                            x       y       z     vdW  Elec       q    Type
REMARK                         _______ _______ _______ _____ _____    ______ ____
ROOT
ATOM      1  N   LIG    1       24.407 -31.121   9.746  0.00  0.00    -0.293 NA
ATOM      2  C   LIG    1       24.511 -32.007  11.036  0.00  0.00    +0.094 C 
ATOM      3  C   LIG    1       25.516 -32.506  10.199  0.00  0.00    +0.095 C 
ATOM      4  C   LIG    1       26.404 -30.815  10.295  0.00  0.00    +0.070 C 
ATOM      5  C   LIG    1       25.557 -29.323   9.669  0.00  0.00    +0.216 C 
ATOM      6  O   LIG    1       26.555 -28.286   9.976  0.00  0.00    -0.481 OA
ATOM      7  C   LIG    1       26.932 -28.738  11.275  0.00  0.00    +0.166 A 
ATOM      8  C   LIG    1       27.104 -27.869  12.331  0.00  0.00    +0.159 A 
ATOM      9  C   LIG    1       26.921 -28.371  13.617  0.00  0.00    +0.049 A 
ATOM     10  C   LIG    1       26.341 -29.654  13.793  0.00  0.00    +0.008 A 
ATOM     11  C   LIG    1       26.108 -30.480  12.679  0.00  0.00    -0.038 A 
ATOM     12  C   LIG    1       24.685 -29.486   8.042  0.00  0.00    +0.160 C 
ATOM     13  C   LIG    1       24.275 -31.274   7.428  0.00  0.00    +0.038 C 
ATOM     14  C   LIG    1       26.700 -30.091  11.522  0.00  0.00    +0.014 A 
ATOM     15  C   LIG    1       27.395 -31.049   9.333  0.00  0.00    +0.033 C 
ATOM     16  C   LIG    1       24.626 -32.858   8.467  0.00  0.00    +0.040 C 
ATOM     17  C   LIG    1       25.041 -31.562  12.520  0.00  0.00    +0.057 C 
ATOM     18  C   LIG    1       26.044 -31.217   8.654  0.00  0.00    +0.086 C 
ENDROOT
BRANCH   3  19
ATOM     19  O   LIG    1       26.278 -33.613  10.639  0.00  0.00    -0.386 OA
ATOM     20  H   LIG    1       26.203 -33.683  11.600  0.00  0.00    +0.210 HD
ENDBRANCH   3  19
BRANCH   8  21
ATOM     21  O   LIG    1       27.267 -26.535  12.128  0.00  0.00    -0.503 OA
ATOM     22  H   LIG    1       26.968 -26.118  12.960  0.00  0.00    +0.292 HD
ENDBRANCH   8  21
BRANCH  12  23
ATOM     23  O   LIG    1       25.395 -28.710   7.011  0.00  0.00    -0.371 OA
BRANCH  23  24
ATOM     24  C   LIG    1       24.595 -27.750   6.286  0.00  0.00    +0.188 C 
BRANCH  24  25
ATOM     25  C   LIG    1       25.463 -27.107   5.156  0.00  0.00    +0.188 C 
BRANCH  25  26
ATOM     26  O   LIG    1       26.336 -26.058   5.601  0.00  0.00    -0.375 OA
BRANCH  26  27
ATOM     27  C   LIG    1       25.872 -25.292   6.743  0.00  0.00    +0.188 C 
BRANCH  27  28
ATOM     28  C   LIG    1       25.380 -23.861   6.450  0.00  0.00    +0.188 C 
BRANCH  28  29
ATOM     29  O   LIG    1       23.984 -23.716   6.760  0.00  0.00    -0.375 OA
BRANCH  29  30
ATOM     30  C   LIG    1       23.503 -22.414   7.132  0.00  0.00    +0.188 C 
BRANCH  30  31
ATOM     31  C   LIG    1       23.013 -21.443   6.027  0.00  0.00    +0.188 C 
BRANCH  31  32
ATOM     32  O   LIG    1       23.725 -21.450   4.784  0.00  0.00    -0.375 OA
BRANCH  32  33
ATOM     33  C   LIG    1       24.292 -20.192   4.410  0.00  0.00    +0.188 C 
BRANCH  33  34
ATOM     34  C   LIG    1       25.816 -20.156   4.648  0.00  0.00    +0.188 C 
BRANCH  34  35
ATOM     35  O   LIG    1       26.169 -20.044   6.044  0.00  0.00    -0.375 OA
BRANCH  35  36
ATOM     36  C   LIG    1       27.524 -20.407   6.351  0.00  0.00    +0.188 C 
BRANCH  36  37
ATOM     37  C   LIG    1       27.858 -20.360   7.863  0.00  0.00    +0.188 C 
BRANCH  37  38
ATOM     38  O   LIG    1       28.776 -21.344   8.361  0.00  0.00    -0.375 OA
BRANCH  38  39
ATOM     39  C   LIG    1       30.115 -21.109   7.926  0.00  0.00    +0.188 C 
BRANCH  39  40
ATOM     40  C   LIG    1       31.143 -21.409   9.022  0.00  0.00    +0.188 C 
BRANCH  40  41
ATOM     41  O   LIG    1       31.904 -20.220   9.254  0.00  0.00    -0.375 OA
BRANCH  41  42
ATOM     42  C   LIG    1       31.517 -19.105   8.449  0.00  0.00    +0.188 C 
BRANCH  42  43
ATOM     43  C   LIG    1       31.908 -17.751   9.062  0.00  0.00    +0.187 C 
BRANCH  43  44
ATOM     44  O   LIG    1       32.286 -17.847  10.439  0.00  0.00    -0.381 OA
ATOM     45  C   LIG    1       32.828 -16.644  10.966  0.00  0.00    +0.194 C 
ENDBRANCH  43  44
ENDBRANCH  42  43
ENDBRANCH  41  42
ENDBRANCH  40  41
ENDBRANCH  39  40
ENDBRANCH  38  39
ENDBRANCH  37  38
ENDBRANCH  36  37
ENDBRANCH  35  36
ENDBRANCH  34  35
ENDBRANCH  33  34
ENDBRANCH  32  33
ENDBRANCH  31  32
ENDBRANCH  30  31
ENDBRANCH  29  30
ENDBRANCH  28  29
ENDBRANCH  27  28
ENDBRANCH  26  27
ENDBRANCH  25  26
ENDBRANCH  24  25
ENDBRANCH  23  24
ENDBRANCH  12  23
BRANCH   1  46
ATOM     46  C   LIG    1       22.820 -31.181   9.502  0.00  0.00    +0.111 C 
BRANCH  46  48
ATOM     47  C   LIG    1       21.804 -29.855  11.482  0.00  0.00    +0.005 C 
ATOM     48  C   LIG    1       21.750 -30.777  10.514  0.00  0.00    -0.019 C 
ENDBRANCH  46  48
ENDBRANCH   1  46
TORSDOF 26
ENDMDL
MODEL 2
REMARK VINA RESULT:      -6.5      1.708      3.278
REMARK  Name = *****
REMARK                            x       y       z     vdW  Elec       q    Type
REMARK                         _______ _______ _______ _____ _____    ______ ____
ROOT
ATOM      1  N   LIG    1       22.737 -31.778  10.546  0.00  0.00    -0.293 NA
ATOM      2  C   LIG    1       22.815 -31.329  12.046  0.00  0.00    +0.094 C 
ATOM      3  C   LIG    1       23.486 -32.557  12.023  0.00  0.00    +0.095 C 
ATOM      4  C   LIG    1       24.805 -31.789  10.871  0.00  0.00    +0.070 C 
ATOM      5  C   LIG    1       24.303 -31.161   9.231  0.00  0.00    +0.216 C 
ATOM      6  O   LIG    1       25.583 -30.637   8.729  0.00  0.00    -0.481 OA
ATOM      7  C   LIG    1       26.041 -30.017   9.930  0.00  0.00    +0.166 A 
ATOM      8  C   LIG    1       26.622 -28.767   9.932  0.00  0.00    +0.159 A 
ATOM      9  C   LIG    1       26.532 -28.015  11.101  0.00  0.00    +0.049 A 
ATOM     10  C   LIG    1       25.663 -28.437  12.141  0.00  0.00    +0.008 A 
ATOM     11  C   LIG    1       25.026 -29.688  12.062  0.00  0.00    -0.038 A 
ATOM     12  C   LIG    1       23.154 -32.231   8.249  0.00  0.00    +0.160 C 
ATOM     13  C   LIG    1       22.172 -33.596   9.206  0.00  0.00    +0.038 C 
ATOM     14  C   LIG    1       25.493 -30.530  11.106  0.00  0.00    +0.014 A 
ATOM     15  C   LIG    1       25.514 -32.957  10.563  0.00  0.00    +0.033 C 
ATOM     16  C   LIG    1       22.250 -33.811  11.120  0.00  0.00    +0.040 C 
ATOM     17  C   LIG    1       23.693 -30.103  12.683  0.00  0.00    +0.057 C 
ATOM     18  C   LIG    1       24.072 -33.162  10.121  0.00  0.00    +0.086 C 
ENDROOT
BRANCH   3  19
ATOM     19  O   LIG    1       23.981 -33.083  13.239  0.00  0.00    -0.386 OA
ATOM     20  H   LIG    1       23.520 -33.909  13.434  0.00  0.00    +0.210 HD
ENDBRANCH   3  19
BRANCH   8  21
ATOM     21  O   LIG    1       27.106 -28.211   8.791  0.00  0.00    -0.503 OA
ATOM     22  H   LIG    1       27.557 -27.395   9.082  0.00  0.00    +0.292 HD
ENDBRANCH   8  21
BRANCH  12  23
ATOM     23  O   LIG    1       23.861 -32.792   7.084  0.00  0.00    -0.371 OA
BRANCH  23  24
ATOM     24  C   LIG    1       23.787 -32.012   5.870  0.00  0.00    +0.188 C 
BRANCH  24  25
ATOM     25  C   LIG    1       25.235 -31.675   5.388  0.00  0.00    +0.188 C 
BRANCH  25  26
ATOM     26  O   LIG    1       25.547 -30.273   5.376  0.00  0.00    -0.375 OA
BRANCH  26  27
ATOM     27  C   LIG    1       24.472 -29.384   5.774  0.00  0.00    +0.188 C 
BRANCH  27  28
ATOM     28  C   LIG    1       24.688 -27.884   5.494  0.00  0.00    +0.188 C 
BRANCH  28  29
ATOM     29  O   LIG    1       25.133 -27.192   6.672  0.00  0.00    -0.375 OA
BRANCH  29  30
ATOM     30  C   LIG    1       25.632 -25.852   6.525  0.00  0.00    +0.188 C 
BRANCH  30  31
ATOM     31  C   LIG    1       24.660 -24.722   6.104  0.00  0.00    +0.188 C 
BRANCH  31  32
ATOM     32  O   LIG    1       23.304 -24.817   6.559  0.00  0.00    -0.375 OA
BRANCH  32  33
ATOM     33  C   LIG    1       22.664 -23.563   6.804  0.00  0.00    +0.188 C 
BRANCH  33  34
ATOM     34  C   LIG    1       23.669 -22.484   7.259  0.00  0.00    +0.188 C 
BRANCH  34  35
ATOM     35  O   LIG    1       23.305 -21.154   6.830  0.00  0.00    -0.375 OA
BRANCH  35  36
ATOM     36  C   LIG    1       23.551 -20.883   5.442  0.00  0.00    +0.188 C 
BRANCH  36  37
ATOM     37  C   LIG    1       25.026 -21.084   5.015  0.00  0.00    +0.188 C 
BRANCH  37  38
ATOM     38  O   LIG    1       26.012 -20.267   5.662  0.00  0.00    -0.375 OA
BRANCH  38  39
ATOM     39  C   LIG    1       26.898 -21.029   6.482  0.00  0.00    +0.188 C 
BRANCH  39  40
ATOM     40  C   LIG    1       27.910 -20.147   7.220  0.00  0.00    +0.188 C 
BRANCH  40  41
ATOM     41  O   LIG    1       29.032 -20.960   7.576  0.00  0.00    -0.375 OA
BRANCH  41  42
ATOM     42  C   LIG    1       30.268 -20.249   7.676  0.00  0.00    +0.188 C 
BRANCH  42  43
ATOM     43  C   LIG    1       31.208 -20.819   8.749  0.00  0.00    +0.187 C 
BRANCH  43  44
ATOM     44  O   LIG    1       32.058 -19.826   9.334  0.00  0.00    -0.381 OA
ATOM     45  C   LIG    1       31.589 -18.497   9.152  0.00  0.00    +0.194 C 
ENDBRANCH  43  44
ENDBRANCH  42  43
ENDBRANCH  41  42
ENDBRANCH  40  41
ENDBRANCH  39  40
ENDBRANCH  38  39
ENDBRANCH  37  38
ENDBRANCH  36  37
ENDBRANCH  35  36
ENDBRANCH  34  35
ENDBRANCH  33  34
ENDBRANCH  32  33
ENDBRANCH  31  32
ENDBRANCH  30  31
ENDBRANCH  29  30
ENDBRANCH  28  29
ENDBRANCH  27  28
ENDBRANCH  26  27
ENDBRANCH  25  26
ENDBRANCH  24  25
ENDBRANCH  23  24
ENDBRANCH  12  23
BRANCH   1  46
ATOM     46  C   LIG    1       21.177 -31.517  10.264  0.00  0.00    +0.111 C 
BRANCH  46  48
ATOM     47  C   LIG    1       19.372 -31.335  12.113  0.00  0.00    +0.005 C 
ATOM     48  C   LIG    1       20.210 -30.811  11.211  0.00  0.00    -0.019 C 
ENDBRANCH  46  48
ENDBRANCH   1  46
TORSDOF 26
ENDMDL
MODEL 3
REMARK VINA RESULT:      -5.8      2.238      4.855
REMARK  Name = *****
REMARK                            x       y       z     vdW  Elec       q    Type
REMARK                         _______ _______ _______ _____ _____    ______ ____
ROOT
ATOM      1  N   LIG    1       22.512 -30.326  12.218  0.00  0.00    -0.293 NA
ATOM      2  C   LIG    1       21.588 -29.348  13.023  0.00  0.00    +0.094 C 
ATOM      3  C   LIG    1       21.983 -30.300  13.970  0.00  0.00    +0.095 C 
ATOM      4  C   LIG    1       23.795 -29.726  13.759  0.00  0.00    +0.070 C 
ATOM      5  C   LIG    1       24.601 -29.889  12.129  0.00  0.00    +0.216 C 
ATOM      6  O   LIG    1       25.921 -29.303  12.410  0.00  0.00    -0.481 OA
ATOM      7  C   LIG    1       25.493 -28.192  13.196  0.00  0.00    +0.166 A 
ATOM      8  C   LIG    1       26.026 -26.932  13.033  0.00  0.00    +0.159 A 
ATOM      9  C   LIG    1       25.233 -25.844  13.391  0.00  0.00    +0.049 A 
ATOM     10  C   LIG    1       23.856 -26.042  13.671  0.00  0.00    +0.008 A 
ATOM     11  C   LIG    1       23.334 -27.345  13.750  0.00  0.00    -0.038 A 
ATOM     12  C   LIG    1       24.336 -31.487  11.229  0.00  0.00    +0.160 C 
ATOM     13  C   LIG    1       22.849 -32.589  11.791  0.00  0.00    +0.038 C 
ATOM     14  C   LIG    1       24.249 -28.345  13.808  0.00  0.00    +0.014 A 
ATOM     15  C   LIG    1       24.416 -30.722  14.525  0.00  0.00    +0.033 C 
ATOM     16  C   LIG    1       21.585 -32.053  13.144  0.00  0.00    +0.040 C 
ATOM     17  C   LIG    1       21.905 -27.802  13.463  0.00  0.00    +0.057 C 
ATOM     18  C   LIG    1       23.648 -31.411  13.406  0.00  0.00    +0.086 C 
ENDROOT
BRANCH   3  19
ATOM     19  O   LIG    1       21.469 -30.203  15.284  0.00  0.00    -0.386 OA
ATOM     20  H   LIG    1       20.859 -30.937  15.438  0.00  0.00    +0.210 HD
ENDBRANCH   3  19
BRANCH   8  21
ATOM     21  O   LIG    1       27.204 -26.742  12.383  0.00  0.00    -0.503 OA
ATOM     22  H   LIG    1       27.062 -27.120  11.493  0.00  0.00    +0.292 HD
ENDBRANCH   8  21
BRANCH  12  23
ATOM     23  O   LIG    1       25.593 -32.256  11.190  0.00  0.00    -0.371 OA
BRANCH  23  24
ATOM     24  C   LIG    1       26.133 -32.506   9.873  0.00  0.00    +0.188 C 
BRANCH  24  25
ATOM     25  C   LIG    1       26.736 -31.180   9.306  0.00  0.00    +0.188 C 
BRANCH  25  26
ATOM     26  O   LIG    1       26.023 -30.633   8.186  0.00  0.00    -0.375 OA
BRANCH  26  27
ATOM     27  C   LIG    1       24.907 -31.424   7.702  0.00  0.00    +0.188 C 
BRANCH  27  28
ATOM     28  C   LIG    1       24.347 -31.038   6.319  0.00  0.00    +0.188 C 
BRANCH  28  29
ATOM     29  O   LIG    1       25.355 -30.417   5.504  0.00  0.00    -0.375 OA
BRANCH  29  30
ATOM     30  C   LIG    1       25.290 -28.994   5.309  0.00  0.00    +0.188 C 
BRANCH  30  31
ATOM     31  C   LIG    1       24.262 -28.164   6.120  0.00  0.00    +0.188 C 
BRANCH  31  32
ATOM     32  O   LIG    1       24.410 -26.739   6.104  0.00  0.00    -0.375 OA
BRANCH  32  33
ATOM     33  C   LIG    1       25.736 -26.270   6.354  0.00  0.00    +0.188 C 
BRANCH  33  34
ATOM     34  C   LIG    1       25.784 -24.735   6.504  0.00  0.00    +0.188 C 
BRANCH  34  35
ATOM     35  O   LIG    1       25.131 -24.040   5.419  0.00  0.00    -0.375 OA
BRANCH  35  36
ATOM     36  C   LIG    1       24.597 -22.753   5.766  0.00  0.00    +0.188 C 
BRANCH  36  37
ATOM     37  C   LIG    1       24.219 -22.613   7.262  0.00  0.00    +0.188 C 
BRANCH  37  38
ATOM     38  O   LIG    1       24.306 -21.302   7.839  0.00  0.00    -0.375 OA
BRANCH  38  39
ATOM     39  C   LIG    1       25.398 -20.548   7.313  0.00  0.00    +0.188 C 
BRANCH  39  40
ATOM     40  C   LIG    1       26.641 -20.628   8.204  0.00  0.00    +0.188 C 
BRANCH  40  41
ATOM     41  O   LIG    1       27.595 -21.478   7.562  0.00  0.00    -0.375 OA
BRANCH  41  42
ATOM     42  C   LIG    1       28.671 -20.784   6.927  0.00  0.00    +0.188 C 
BRANCH  42  43
ATOM     43  C   LIG    1       29.870 -20.547   7.857  0.00  0.00    +0.187 C 
BRANCH  43  44
ATOM     44  O   LIG    1       29.991 -21.539   8.881  0.00  0.00    -0.381 OA
ATOM     45  C   LIG    1       31.323 -21.991   9.082  0.00  0.00    +0.194 C 
ENDBRANCH  43  44
ENDBRANCH  42  43
ENDBRANCH  41  42
ENDBRANCH  40  41
ENDBRANCH  39  40
ENDBRANCH  38  39
ENDBRANCH  37  38
ENDBRANCH  36  37
ENDBRANCH  35  36
ENDBRANCH  34  35
ENDBRANCH  33  34
ENDBRANCH  32  33
ENDBRANCH  31  32
ENDBRANCH  30  31
ENDBRANCH  29  30
ENDBRANCH  28  29
ENDBRANCH  27  28
ENDBRANCH  26  27
ENDBRANCH  25  26
ENDBRANCH  24  25
ENDBRANCH  23  24
ENDBRANCH  12  23
BRANCH   1  46
ATOM     46  C   LIG    1       21.591 -30.565  10.923  0.00  0.00    +0.111 C 
BRANCH  46  48
ATOM     47  C   LIG    1       19.196 -31.252  10.216  0.00  0.00    +0.005 C 
ATOM     48  C   LIG    1       20.066 -30.495  10.893  0.00  0.00    -0.019 C 
ENDBRANCH  46  48
ENDBRANCH   1  46
TORSDOF 26
ENDMDL
MODEL 4
REMARK VINA RESULT:      -5.7      2.077      4.065
REMARK  Name = *****
REMARK                            x       y       z     vdW  Elec       q    Type
REMARK                         _______ _______ _______ _____ _____    ______ ____
ROOT
ATOM      1  N   LIG    1       23.216 -31.330  11.301  0.00  0.00    -0.293 NA
ATOM      2  C   LIG    1       21.666 -31.397  11.531  0.00  0.00    +0.094 C 
ATOM      3  C   LIG    1       22.202 -32.105  12.614  0.00  0.00    +0.095 C 
ATOM      4  C   LIG    1       23.049 -30.500  13.215  0.00  0.00    +0.070 C 
ATOM      5  C   LIG    1       24.286 -29.686  12.145  0.00  0.00    +0.216 C 
ATOM      6  O   LIG    1       24.626 -28.508  12.959  0.00  0.00    -0.481 OA
ATOM      7  C   LIG    1       23.310 -28.164  13.389  0.00  0.00    +0.166 A 
ATOM      8  C   LIG    1       22.863 -26.860  13.406  0.00  0.00    +0.159 A 
ATOM      9  C   LIG    1       21.491 -26.646  13.291  0.00  0.00    +0.049 A 
ATOM     10  C   LIG    1       20.642 -27.723  12.924  0.00  0.00    +0.008 A 
ATOM     11  C   LIG    1       21.157 -29.029  12.841  0.00  0.00    -0.038 A 
ATOM     12  C   LIG    1       25.531 -30.789  11.331  0.00  0.00    +0.160 C 
ATOM     13  C   LIG    1       25.114 -32.675  11.223  0.00  0.00    +0.038 C 
ATOM     14  C   LIG    1       22.390 -29.213  13.376  0.00  0.00    +0.014 A 
ATOM     15  C   LIG    1       23.826 -31.050  14.243  0.00  0.00    +0.033 C 
ATOM     16  C   LIG    1       23.439 -33.425  11.813  0.00  0.00    +0.040 C 
ATOM     17  C   LIG    1       20.662 -30.178  11.965  0.00  0.00    +0.057 C 
ATOM     18  C   LIG    1       24.223 -31.738  12.944  0.00  0.00    +0.086 C 
ENDROOT
BRANCH   3  19
ATOM     19  O   LIG    1       21.315 -32.702  13.540  0.00  0.00    -0.386 OA
ATOM     20  H   LIG    1       20.554 -32.120  13.665  0.00  0.00    +0.210 HD
ENDBRANCH   3  19
BRANCH   8  21
ATOM     21  O   LIG    1       23.730 -25.816  13.354  0.00  0.00    -0.503 OA
ATOM     22  H   LIG    1       23.423 -25.202  14.050  0.00  0.00    +0.292 HD
ENDBRANCH   8  21
BRANCH  12  23
ATOM     23  O   LIG    1       26.863 -30.564  11.918  0.00  0.00    -0.371 OA
BRANCH  23  24
ATOM     24  C   LIG    1       27.806 -29.856  11.082  0.00  0.00    +0.188 C 
BRANCH  24  25
ATOM     25  C   LIG    1       27.488 -28.326  11.133  0.00  0.00    +0.188 C 
BRANCH  25  26
ATOM     26  O   LIG    1       26.526 -27.886  10.163  0.00  0.00    -0.375 OA
BRANCH  26  27
ATOM     27  C   LIG    1       26.636 -28.486   8.846  0.00  0.00    +0.188 C 
BRANCH  27  28
ATOM     28  C   LIG    1       25.786 -27.847   7.732  0.00  0.00    +0.188 C 
BRANCH  28  29
ATOM     29  O   LIG    1       26.495 -26.777   7.084  0.00  0.00    -0.375 OA
BRANCH  29  30
ATOM     30  C   LIG    1       25.730 -25.770   6.401  0.00  0.00    +0.188 C 
BRANCH  30  31
ATOM     31  C   LIG    1       24.213 -25.993   6.176  0.00  0.00    +0.188 C 
BRANCH  31  32
ATOM     32  O   LIG    1       23.357 -24.850   6.292  0.00  0.00    -0.375 OA
BRANCH  32  33
ATOM     33  C   LIG    1       23.945 -23.723   6.944  0.00  0.00    +0.188 C 
BRANCH  33  34
ATOM     34  C   LIG    1       23.647 -22.406   6.196  0.00  0.00    +0.188 C 
BRANCH  34  35
ATOM     35  O   LIG    1       24.566 -22.149   5.113  0.00  0.00    -0.375 OA
BRANCH  35  36
ATOM     36  C   LIG    1       25.216 -20.870   5.168  0.00  0.00    +0.188 C 
BRANCH  36  37
ATOM     37  C   LIG    1       26.170 -20.703   6.377  0.00  0.00    +0.188 C 
BRANCH  37  38
ATOM     38  O   LIG    1       26.877 -21.871   6.819  0.00  0.00    -0.375 OA
BRANCH  38  39
ATOM     39  C   LIG    1       27.800 -21.583   7.869  0.00  0.00    +0.188 C 
BRANCH  39  40
ATOM     40  C   LIG    1       28.562 -20.276   7.632  0.00  0.00    +0.188 C 
BRANCH  40  41
ATOM     41  O   LIG    1       29.962 -20.556   7.711  0.00  0.00    -0.375 OA
BRANCH  41  42
ATOM     42  C   LIG    1       30.802 -19.407   7.586  0.00  0.00    +0.188 C 
BRANCH  42  43
ATOM     43  C   LIG    1       31.658 -19.144   8.835  0.00  0.00    +0.187 C 
BRANCH  43  44
ATOM     44  O   LIG    1       30.878 -18.842   9.996  0.00  0.00    -0.381 OA
ATOM     45  C   LIG    1       30.125 -17.643   9.880  0.00  0.00    +0.194 C 
ENDBRANCH  43  44
ENDBRANCH  42  43
ENDBRANCH  41  42
ENDBRANCH  40  41
ENDBRANCH  39  40
ENDBRANCH  38  39
ENDBRANCH  37  38
ENDBRANCH  36  37
ENDBRANCH  35  36
ENDBRANCH  34  35
ENDBRANCH  33  34
ENDBRANCH  32  33
ENDBRANCH  31  32
ENDBRANCH  30  31
ENDBRANCH  29  30
ENDBRANCH  28  29
ENDBRANCH  27  28
ENDBRANCH  26  27
ENDBRANCH  25  26
ENDBRANCH  24  25
ENDBRANCH  23  24
ENDBRANCH  12  23
BRANCH   1  46
ATOM     46  C   LIG    1       23.278 -31.735   9.748  0.00  0.00    +0.111 C 
BRANCH  46  48
ATOM     47  C   LIG    1       24.155 -31.068   7.403  0.00  0.00    +0.005 C 
ATOM     48  C   LIG    1       23.616 -30.791   8.596  0.00  0.00    -0.019 C 
ENDBRANCH  46  48
ENDBRANCH   1  46
TORSDOF 26
ENDMDL
MODEL 5
REMARK VINA RESULT:      -5.6      2.038      4.188
REMARK  Name = *****
REMARK                            x       y       z     vdW  Elec       q    Type
REMARK                         _______ _______ _______ _____ _____    ______ ____
ROOT
ATOM      1  N   LIG    1       25.886 -30.449   8.494  0.00  0.00    -0.293 NA
ATOM      2  C   LIG    1       26.707 -31.522   9.289  0.00  0.00    +0.094 C 
ATOM      3  C   LIG    1       25.382 -31.959   9.397  0.00  0.00    +0.095 C 
ATOM      4  C   LIG    1       25.332 -32.207   7.502  0.00  0.00    +0.070 C 
ATOM      5  C   LIG    1       25.576 -30.768   6.405  0.00  0.00    +0.216 C 
ATOM      6  O   LIG    1       25.507 -31.410   5.082  0.00  0.00    -0.481 OA
ATOM      7  C   LIG    1       26.279 -32.574   5.375  0.00  0.00    +0.166 A 
ATOM      8  C   LIG    1       27.230 -33.058   4.504  0.00  0.00    +0.159 A 
ATOM      9  C   LIG    1       28.281 -33.798   5.042  0.00  0.00    +0.049 A 
ATOM     10  C   LIG    1       28.472 -33.825   6.448  0.00  0.00    +0.008 A 
ATOM     11  C   LIG    1       27.514 -33.247   7.299  0.00  0.00    -0.038 A 
ATOM     12  C   LIG    1       24.674 -29.215   6.861  0.00  0.00    +0.160 C 
ATOM     13  C   LIG    1       24.024 -29.065   8.677  0.00  0.00    +0.038 C 
ATOM     14  C   LIG    1       26.328 -32.927   6.724  0.00  0.00    +0.014 A 
ATOM     15  C   LIG    1       23.966 -32.486   7.367  0.00  0.00    +0.033 C 
ATOM     16  C   LIG    1       24.365 -30.387  10.038  0.00  0.00    +0.040 C 
ATOM     17  C   LIG    1       27.733 -32.649   8.688  0.00  0.00    +0.057 C 
ATOM     18  C   LIG    1       24.096 -31.108   8.001  0.00  0.00    +0.086 C 
ENDROOT
BRANCH   3  19
ATOM     19  O   LIG    1       25.110 -33.116  10.164  0.00  0.00    -0.386 OA
ATOM     20  H   LIG    1       25.058 -32.869  11.097  0.00  0.00    +0.210 HD
ENDBRANCH   3  19
BRANCH   8  21
ATOM     21  O   LIG    1       27.249 -32.683   3.199  0.00  0.00    -0.503 OA
ATOM     22  H   LIG    1       27.528 -31.746   3.212  0.00  0.00    +0.292 HD
ENDBRANCH   8  21
BRANCH  12  23
ATOM     23  O   LIG    1       23.607 -28.947   5.882  0.00  0.00    -0.371 OA
BRANCH  23  24
ATOM     24  C   LIG    1       23.913 -27.953   4.878  0.00  0.00    +0.188 C 
BRANCH  24  25
ATOM     25  C   LIG    1       25.330 -27.357   5.162  0.00  0.00    +0.188 C 
BRANCH  25  26
ATOM     26  O   LIG    1       25.481 -25.978   4.790  0.00  0.00    -0.375 OA
BRANCH  26  27
ATOM     27  C   LIG    1       25.628 -25.040   5.888  0.00  0.00    +0.188 C 
BRANCH  27  28
ATOM     28  C   LIG    1       24.328 -24.408   6.423  0.00  0.00    +0.188 C 
BRANCH  28  29
ATOM     29  O   LIG    1       24.557 -23.075   6.907  0.00  0.00    -0.375 OA
BRANCH  29  30
ATOM     30  C   LIG    1       23.418 -22.281   7.278  0.00  0.00    +0.188 C 
BRANCH  30  31
ATOM     31  C   LIG    1       23.501 -20.737   7.169  0.00  0.00    +0.188 C 
BRANCH  31  32
ATOM     32  O   LIG    1       22.699 -20.105   6.164  0.00  0.00    -0.375 OA
BRANCH  32  33
ATOM     33  C   LIG    1       22.759 -20.718   4.874  0.00  0.00    +0.188 C 
BRANCH  33  34
ATOM     34  C   LIG    1       23.866 -20.097   3.996  0.00  0.00    +0.188 C 
BRANCH  34  35
ATOM     35  O   LIG    1       25.181 -20.616   4.291  0.00  0.00    -0.375 OA
BRANCH  35  36
ATOM     36  C   LIG    1       26.187 -19.614   4.503  0.00  0.00    +0.188 C 
BRANCH  36  37
ATOM     37  C   LIG    1       27.220 -19.985   5.597  0.00  0.00    +0.188 C 
BRANCH  37  38
ATOM     38  O   LIG    1       27.143 -21.308   6.148  0.00  0.00    -0.375 OA
BRANCH  38  39
ATOM     39  C   LIG    1       27.486 -21.340   7.533  0.00  0.00    +0.188 C 
BRANCH  39  40
ATOM     40  C   LIG    1       27.887 -19.961   8.065  0.00  0.00    +0.188 C 
BRANCH  40  41
ATOM     41  O   LIG    1       29.210 -20.059   8.601  0.00  0.00    -0.375 OA
BRANCH  41  42
ATOM     42  C   LIG    1       30.091 -19.011   8.194  0.00  0.00    +0.188 C 
BRANCH  42  43
ATOM     43  C   LIG    1       31.557 -19.270   8.574  0.00  0.00    +0.187 C 
BRANCH  43  44
ATOM     44  O   LIG    1       31.952 -18.599   9.775  0.00  0.00    -0.381 OA
ATOM     45  C   LIG    1       32.122 -17.197   9.614  0.00  0.00    +0.194 C 
ENDBRANCH  43  44
ENDBRANCH  42  43
ENDBRANCH  41  42
ENDBRANCH  40  41
ENDBRANCH  39  40
ENDBRANCH  38  39
ENDBRANCH  37  38
ENDBRANCH  36  37
ENDBRANCH  35  36
ENDBRANCH  34  35
ENDBRANCH  33  34
ENDBRANCH  32  33
ENDBRANCH  31  32
ENDBRANCH  30  31
ENDBRANCH  29  30
ENDBRANCH  28  29
ENDBRANCH  27  28
ENDBRANCH  26  27
ENDBRANCH  25  26
ENDBRANCH  24  25
ENDBRANCH  23  24
ENDBRANCH  12  23
BRANCH   1  46
ATOM     46  C   LIG    1       26.521 -29.108   9.110  0.00  0.00    +0.111 C 
BRANCH  46  48
ATOM     47  C   LIG    1       26.886 -28.295  11.542  0.00  0.00    +0.005 C 
ATOM     48  C   LIG    1       27.230 -29.000  10.458  0.00  0.00    -0.019 C 
ENDBRANCH  46  48
ENDBRANCH   1  46
TORSDOF 26
ENDMDL
MODEL 6
REMARK VINA RESULT:      -5.5      2.822      5.122
REMARK  Name = *****
REMARK                            x       y       z     vdW  Elec       q    Type
REMARK                         _______ _______ _______ _____ _____    ______ ____
ROOT
ATOM      1  N   LIG    1       23.154 -30.445  13.638  0.00  0.00    -0.293 NA
ATOM      2  C   LIG    1       22.486 -30.336  15.052  0.00  0.00    +0.094 C 
ATOM      3  C   LIG    1       22.530 -29.014  14.594  0.00  0.00    +0.095 C 
ATOM      4  C   LIG    1       21.352 -29.492  13.166  0.00  0.00    +0.070 C 
ATOM      5  C   LIG    1       21.884 -30.743  11.947  0.00  0.00    +0.216 C 
ATOM      6  O   LIG    1       20.690 -30.826  11.092  0.00  0.00    -0.481 OA
ATOM      7  C   LIG    1       19.697 -30.802  12.117  0.00  0.00    +0.166 A 
ATOM      8  C   LIG    1       18.602 -31.638  12.094  0.00  0.00    +0.159 A 
ATOM      9  C   LIG    1       18.009 -31.960  13.313  0.00  0.00    +0.049 A 
ATOM     10  C   LIG    1       18.673 -31.631  14.524  0.00  0.00    +0.008 A 
ATOM     11  C   LIG    1       19.835 -30.840  14.496  0.00  0.00    -0.038 A 
ATOM     12  C   LIG    1       23.617 -30.595  11.310  0.00  0.00    +0.160 C 
ATOM     13  C   LIG    1       24.856 -29.527  12.343  0.00  0.00    +0.038 C 
ATOM     14  C   LIG    1       20.102 -30.221  13.319  0.00  0.00    +0.014 A 
ATOM     15  C   LIG    1       21.408 -28.294  12.442  0.00  0.00    +0.033 C 
ATOM     16  C   LIG    1       24.405 -28.719  14.034  0.00  0.00    +0.040 C 
ATOM     17  C   LIG    1       20.990 -30.835  15.497  0.00  0.00    +0.057 C 
ATOM     18  C   LIG    1       22.825 -28.842  12.542  0.00  0.00    +0.086 C 
ENDROOT
BRANCH   3  19
ATOM     19  O   LIG    1       22.062 -27.985  15.443  0.00  0.00    -0.386 OA
ATOM     20  H   LIG    1       22.225 -28.238  16.361  0.00  0.00    +0.210 HD
ENDBRANCH   3  19
BRANCH   8  21
ATOM     21  O   LIG    1       18.220 -32.271  10.954  0.00  0.00    -0.503 OA
ATOM     22  H   LIG    1       18.365 -31.615  10.244  0.00  0.00    +0.292 HD
ENDBRANCH   8  21
BRANCH  12  23
ATOM     23  O   LIG    1       23.600 -30.184   9.896  0.00  0.00    -0.371 OA
BRANCH  23  24
ATOM     24  C   LIG    1       24.238 -31.094   8.971  0.00  0.00    +0.188 C 
BRANCH  24  25
ATOM     25  C   LIG    1       23.986 -30.599   7.510  0.00  0.00    +0.188 C 
BRANCH  25  26
ATOM     26  O   LIG    1       25.086 -29.885   6.925  0.00  0.00    -0.375 OA
BRANCH  26  27
ATOM     27  C   LIG    1       25.068 -28.444   7.100  0.00  0.00    +0.188 C 
BRANCH  27  28
ATOM     28  C   LIG    1       24.468 -27.625   5.941  0.00  0.00    +0.188 C 
BRANCH  28  29
ATOM     29  O   LIG    1       25.490 -26.921   5.217  0.00  0.00    -0.375 OA
BRANCH  29  30
ATOM     30  C   LIG    1       25.395 -25.489   5.126  0.00  0.00    +0.188 C 
BRANCH  30  31
ATOM     31  C   LIG    1       24.172 -24.770   5.748  0.00  0.00    +0.188 C 
BRANCH  31  32
ATOM     32  O   LIG    1       24.386 -24.039   6.962  0.00  0.00    -0.375 OA
BRANCH  32  33
ATOM     33  C   LIG    1       24.041 -22.654   6.898  0.00  0.00    +0.188 C 
BRANCH  33  34
ATOM     34  C   LIG    1       25.074 -21.841   6.089  0.00  0.00    +0.188 C 
BRANCH  34  35
ATOM     35  O   LIG    1       25.400 -20.574   6.698  0.00  0.00    -0.375 OA
BRANCH  35  36
ATOM     36  C   LIG    1       26.145 -20.670   7.922  0.00  0.00    +0.188 C 
BRANCH  36  37
ATOM     37  C   LIG    1       27.647 -20.991   7.719  0.00  0.00    +0.188 C 
BRANCH  37  38
ATOM     38  O   LIG    1       28.591 -20.185   8.440  0.00  0.00    -0.375 OA
BRANCH  38  39
ATOM     39  C   LIG    1       29.891 -20.214   7.852  0.00  0.00    +0.188 C 
BRANCH  39  40
ATOM     40  C   LIG    1       30.893 -21.008   8.696  0.00  0.00    +0.188 C 
BRANCH  40  41
ATOM     41  O   LIG    1       31.933 -20.117   9.106  0.00  0.00    -0.375 OA
BRANCH  41  42
ATOM     42  C   LIG    1       31.707 -18.748   8.764  0.00  0.00    +0.188 C 
BRANCH  42  43
ATOM     43  C   LIG    1       31.518 -17.841   9.990  0.00  0.00    +0.187 C 
BRANCH  43  44
ATOM     44  O   LIG    1       32.753 -17.492  10.625  0.00  0.00    -0.381 OA
ATOM     45  C   LIG    1       32.660 -16.345  11.458  0.00  0.00    +0.194 C 
ENDBRANCH  43  44
ENDBRANCH  42  43
ENDBRANCH  41  42
ENDBRANCH  40  41
ENDBRANCH  39  40
ENDBRANCH  38  39
ENDBRANCH  37  38
ENDBRANCH  36  37
ENDBRANCH  35  36
ENDBRANCH  34  35
ENDBRANCH  33  34
ENDBRANCH  32  33
ENDBRANCH  31  32
ENDBRANCH  30  31
ENDBRANCH  29  30
ENDBRANCH  28  29
ENDBRANCH  27  28
ENDBRANCH  26  27
ENDBRANCH  25  26
ENDBRANCH  24  25
ENDBRANCH  23  24
ENDBRANCH  12  23
BRANCH   1  46
ATOM     46  C   LIG    1       24.401 -31.392  13.999  0.00  0.00    +0.111 C 
BRANCH  46  48
ATOM     47  C   LIG    1       23.344 -33.757  13.998  0.00  0.00    +0.005 C 
ATOM     48  C   LIG    1       24.387 -32.919  13.994  0.00  0.00    -0.019 C 
ENDBRANCH  46  48
ENDBRANCH   1  46
TORSDOF 26
ENDMDL
MODEL 7
REMARK VINA RESULT:      -5.4      2.051      4.612
REMARK  Name = *****
REMARK                            x       y       z     vdW  Elec       q    Type
REMARK                         _______ _______ _______ _____ _____    ______ ____
ROOT
ATOM      1  N   LIG    1       25.704 -29.013  13.819  0.00  0.00    -0.293 NA
ATOM      2  C   LIG    1       25.013 -29.700  15.046  0.00  0.00    +0.094 C 
ATOM      3  C   LIG    1       24.100 -28.716  14.650  0.00  0.00    +0.095 C 
ATOM      4  C   LIG    1       23.886 -29.619  12.978  0.00  0.00    +0.070 C 
ATOM      5  C   LIG    1       25.328 -29.814  11.875  0.00  0.00    +0.216 C 
ATOM      6  O   LIG    1       24.732 -30.579  10.769  0.00  0.00    -0.481 OA
ATOM      7  C   LIG    1       23.947 -31.486  11.541  0.00  0.00    +0.166 A 
ATOM      8  C   LIG    1       23.878 -32.830  11.245  0.00  0.00    +0.159 A 
ATOM      9  C   LIG    1       23.587 -33.707  12.288  0.00  0.00    +0.049 A 
ATOM     10  C   LIG    1       23.610 -33.237  13.627  0.00  0.00    +0.008 A 
ATOM     11  C   LIG    1       23.762 -31.864  13.888  0.00  0.00    -0.038 A 
ATOM     12  C   LIG    1       26.410 -28.327  11.654  0.00  0.00    +0.160 C 
ATOM     13  C   LIG    1       26.267 -26.919  12.973  0.00  0.00    +0.038 C 
ATOM     14  C   LIG    1       23.615 -31.040  12.821  0.00  0.00    +0.014 A 
ATOM     15  C   LIG    1       23.108 -28.656  12.323  0.00  0.00    +0.033 C 
ATOM     16  C   LIG    1       25.152 -27.044  14.540  0.00  0.00    +0.040 C 
ATOM     17  C   LIG    1       24.374 -31.207  15.124  0.00  0.00    +0.057 C 
ATOM     18  C   LIG    1       24.420 -27.996  12.725  0.00  0.00    +0.086 C 
ENDROOT
BRANCH   3  19
ATOM     19  O   LIG    1       22.914 -28.548  15.401  0.00  0.00    -0.386 OA
ATOM     20  H   LIG    1       22.310 -27.975  14.911  0.00  0.00    +0.210 HD
ENDBRANCH   3  19
BRANCH   8  21
ATOM     21  O   LIG    1       24.256 -33.306  10.030  0.00  0.00    -0.503 OA
ATOM     22  H   LIG    1       25.232 -33.271  10.040  0.00  0.00    +0.292 HD
ENDBRANCH   8  21
BRANCH  12  23
ATOM     23  O   LIG    1       26.267 -27.800  10.285  0.00  0.00    -0.371 OA
BRANCH  23  24
ATOM     24  C   LIG    1       26.633 -28.709   9.223  0.00  0.00    +0.188 C 
BRANCH  24  25
ATOM     25  C   LIG    1       26.236 -28.078   7.849  0.00  0.00    +0.188 C 
BRANCH  25  26
ATOM     26  O   LIG    1       24.998 -28.564   7.307  0.00  0.00    -0.375 OA
BRANCH  26  27
ATOM     27  C   LIG    1       24.545 -27.916   6.089  0.00  0.00    +0.188 C 
BRANCH  27  28
ATOM     28  C   LIG    1       25.631 -27.598   5.043  0.00  0.00    +0.188 C 
BRANCH  28  29
ATOM     29  O   LIG    1       26.003 -26.210   5.083  0.00  0.00    -0.375 OA
BRANCH  29  30
ATOM     30  C   LIG    1       24.957 -25.227   5.142  0.00  0.00    +0.188 C 
BRANCH  30  31
ATOM     31  C   LIG    1       25.178 -23.933   5.966  0.00  0.00    +0.188 C 
BRANCH  31  32
ATOM     32  O   LIG    1       24.831 -22.690   5.344  0.00  0.00    -0.375 OA
BRANCH  32  33
ATOM     33  C   LIG    1       24.291 -21.706   6.229  0.00  0.00    +0.188 C 
BRANCH  33  34
ATOM     34  C   LIG    1       24.796 -21.896   7.675  0.00  0.00    +0.188 C 
BRANCH  34  35
ATOM     35  O   LIG    1       25.097 -20.649   8.338  0.00  0.00    -0.375 OA
BRANCH  35  36
ATOM     36  C   LIG    1       26.495 -20.328   8.407  0.00  0.00    +0.188 C 
BRANCH  36  37
ATOM     37  C   LIG    1       27.428 -21.495   7.997  0.00  0.00    +0.188 C 
BRANCH  37  38
ATOM     38  O   LIG    1       28.594 -21.161   7.230  0.00  0.00    -0.375 OA
BRANCH  38  39
ATOM     39  C   LIG    1       28.312 -20.223   6.192  0.00  0.00    +0.188 C 
BRANCH  39  40
ATOM     40  C   LIG    1       29.317 -19.066   6.165  0.00  0.00    +0.188 C 
BRANCH  40  41
ATOM     41  O   LIG    1       29.706 -18.784   7.512  0.00  0.00    -0.375 OA
BRANCH  41  42
ATOM     42  C   LIG    1       31.100 -18.957   7.772  0.00  0.00    +0.188 C 
BRANCH  42  43
ATOM     43  C   LIG    1       31.389 -19.542   9.164  0.00  0.00    +0.187 C 
BRANCH  43  44
ATOM     44  O   LIG    1       32.094 -20.787   9.113  0.00  0.00    -0.381 OA
ATOM     45  C   LIG    1       31.251 -21.924   9.239  0.00  0.00    +0.194 C 
ENDBRANCH  43  44
ENDBRANCH  42  43
ENDBRANCH  41  42
ENDBRANCH  40  41
ENDBRANCH  39  40
ENDBRANCH  38  39
ENDBRANCH  37  38
ENDBRANCH  36  37
ENDBRANCH  35  36
ENDBRANCH  34  35
ENDBRANCH  33  34
ENDBRANCH  32  33
ENDBRANCH  31  32
ENDBRANCH  30  31
ENDBRANCH  29  30
ENDBRANCH  28  29
ENDBRANCH  27  28
ENDBRANCH  26  27
ENDBRANCH  25  26
ENDBRANCH  24  25
ENDBRANCH  23  24
ENDBRANCH  12  23
BRANCH   1  46
ATOM     46  C   LIG    1       27.175 -28.788  14.426  0.00  0.00    +0.111 C 
BRANCH  46  48
ATOM     47  C   LIG    1       29.542 -29.757  14.020  0.00  0.00    +0.005 C 
ATOM     48  C   LIG    1       28.286 -29.835  14.471  0.00  0.00    -0.019 C 
ENDBRANCH  46  48
ENDBRANCH   1  46
TORSDOF 26
ENDMDL
MODEL 8
REMARK VINA RESULT:      -5.4      1.602      2.086
REMARK  Name = *****
REMARK                            x       y       z     vdW  Elec       q    Type
REMARK                         _______ _______ _______ _____ _____    ______ ____
ROOT
ATOM      1  N   LIG    1       24.596 -31.835   9.106  0.00  0.00    -0.293 NA
ATOM      2  C   LIG    1       24.672 -32.941  10.214  0.00  0.00    +0.094 C 
ATOM      3  C   LIG    1       25.964 -32.910   9.676  0.00  0.00    +0.095 C 
ATOM      4  C   LIG    1       26.156 -31.113  10.299  0.00  0.00    +0.070 C 
ATOM      5  C   LIG    1       25.031 -29.821   9.666  0.00  0.00    +0.216 C 
ATOM      6  O   LIG    1       25.497 -28.649  10.425  0.00  0.00    -0.481 OA
ATOM      7  C   LIG    1       25.668 -29.277  11.694  0.00  0.00    +0.166 A 
ATOM      8  C   LIG    1       25.257 -28.681  12.867  0.00  0.00    +0.159 A 
ATOM      9  C   LIG    1       24.942 -29.513  13.939  0.00  0.00    +0.049 A 
ATOM     10  C   LIG    1       24.819 -30.911  13.728  0.00  0.00    +0.008 A 
ATOM     11  C   LIG    1       25.175 -31.470  12.488  0.00  0.00    -0.038 A 
ATOM     12  C   LIG    1       24.708 -29.824   7.842  0.00  0.00    +0.160 C 
ATOM     13  C   LIG    1       25.111 -31.448   6.870  0.00  0.00    +0.038 C 
ATOM     14  C   LIG    1       25.865 -30.658  11.650  0.00  0.00    +0.014 A 
ATOM     15  C   LIG    1       27.375 -30.809   9.678  0.00  0.00    +0.033 C 
ATOM     16  C   LIG    1       25.717 -33.069   7.719  0.00  0.00    +0.040 C 
ATOM     17  C   LIG    1       24.625 -32.740  11.839  0.00  0.00    +0.057 C 
ATOM     18  C   LIG    1       26.382 -31.187   8.588  0.00  0.00    +0.086 C 
ENDROOT
BRANCH   3  19
ATOM     19  O   LIG    1       26.926 -33.824  10.165  0.00  0.00    -0.386 OA
ATOM     20  H   LIG    1       26.503 -34.682  10.299  0.00  0.00    +0.210 HD
ENDBRANCH   3  19
BRANCH   8  21
ATOM     21  O   LIG    1       24.994 -27.350  12.928  0.00  0.00    -0.503 OA
ATOM     22  H   LIG    1       25.833 -26.942  13.219  0.00  0.00    +0.292 HD
ENDBRANCH   8  21
BRANCH  12  23
ATOM     23  O   LIG    1       25.340 -28.650   7.217  0.00  0.00    -0.371 OA
BRANCH  23  24
ATOM     24  C   LIG    1       24.878 -28.322   5.888  0.00  0.00    +0.188 C 
BRANCH  24  25
ATOM     25  C   LIG    1       25.302 -26.857   5.544  0.00  0.00    +0.188 C 
BRANCH  25  26
ATOM     26  O   LIG    1       25.149 -25.924   6.625  0.00  0.00    -0.375 OA
BRANCH  26  27
ATOM     27  C   LIG    1       24.311 -24.771   6.349  0.00  0.00    +0.188 C 
BRANCH  27  28
ATOM     28  C   LIG    1       24.691 -23.932   5.114  0.00  0.00    +0.188 C 
BRANCH  28  29
ATOM     29  O   LIG    1       24.693 -22.527   5.418  0.00  0.00    -0.375 OA
BRANCH  29  30
ATOM     30  C   LIG    1       24.257 -22.114   6.723  0.00  0.00    +0.188 C 
BRANCH  30  31
ATOM     31  C   LIG    1       23.219 -20.970   6.849  0.00  0.00    +0.188 C 
BRANCH  31  32
ATOM     32  O   LIG    1       22.443 -20.656   5.686  0.00  0.00    -0.375 OA
BRANCH  32  33
ATOM     33  C   LIG    1       22.804 -19.436   5.035  0.00  0.00    +0.188 C 
BRANCH  33  34
ATOM     34  C   LIG    1       23.621 -19.691   3.751  0.00  0.00    +0.188 C 
BRANCH  34  35
ATOM     35  O   LIG    1       24.896 -19.013   3.747  0.00  0.00    -0.375 OA
BRANCH  35  36
ATOM     36  C   LIG    1       26.018 -19.843   4.083  0.00  0.00    +0.188 C 
BRANCH  36  37
ATOM     37  C   LIG    1       26.551 -19.626   5.522  0.00  0.00    +0.188 C 
BRANCH  37  38
ATOM     38  O   LIG    1       27.396 -20.649   6.067  0.00  0.00    -0.375 OA
BRANCH  38  39
ATOM     39  C   LIG    1       28.255 -20.155   7.095  0.00  0.00    +0.188 C 
BRANCH  39  40
ATOM     40  C   LIG    1       29.271 -19.138   6.565  0.00  0.00    +0.188 C 
BRANCH  40  41
ATOM     41  O   LIG    1       30.575 -19.713   6.678  0.00  0.00    -0.375 OA
BRANCH  41  42
ATOM     42  C   LIG    1       31.448 -19.025   7.577  0.00  0.00    +0.188 C 
BRANCH  42  43
ATOM     43  C   LIG    1       31.448 -19.620   8.994  0.00  0.00    +0.187 C 
BRANCH  43  44
ATOM     44  O   LIG    1       32.058 -20.913   9.059  0.00  0.00    -0.381 OA
ATOM     45  C   LIG    1       31.151 -21.954   9.393  0.00  0.00    +0.194 C 
ENDBRANCH  43  44
ENDBRANCH  42  43
ENDBRANCH  41  42
ENDBRANCH  40  41
ENDBRANCH  39  40
ENDBRANCH  38  39
ENDBRANCH  37  38
ENDBRANCH  36  37
ENDBRANCH  35  36
ENDBRANCH  34  35
ENDBRANCH  33  34
ENDBRANCH  32  33
ENDBRANCH  31  32
ENDBRANCH  30  31
ENDBRANCH  29  30
ENDBRANCH  28  29
ENDBRANCH  27  28
ENDBRANCH  26  27
ENDBRANCH  25  26
ENDBRANCH  24  25
ENDBRANCH  23  24
ENDBRANCH  12  23
BRANCH   1  46
ATOM     46  C   LIG    1       23.243 -32.286   8.365  0.00  0.00    +0.111 C 
BRANCH  46  48
ATOM     47  C   LIG    1       21.197 -33.336   9.557  0.00  0.00    +0.005 C 
ATOM     48  C   LIG    1       22.312 -33.407   8.822  0.00  0.00    -0.019 C 
ENDBRANCH  46  48
ENDBRANCH   1  46
TORSDOF 26
ENDMDL
MODEL 9
REMARK VINA RESULT:      -5.0      2.013      5.043
REMARK  Name = *****
REMARK                            x       y       z     vdW  Elec       q    Type
REMARK                         _______ _______ _______ _____ _____    ______ ____
ROOT
ATOM      1  N   LIG    1       25.784 -30.010  12.940  0.00  0.00    -0.293 NA
ATOM      2  C   LIG    1       24.918 -29.684  14.206  0.00  0.00    +0.094 C 
ATOM      3  C   LIG    1       24.701 -28.593  13.356  0.00  0.00    +0.095 C 
ATOM      4  C   LIG    1       23.887 -29.772  12.089  0.00  0.00    +0.070 C 
ATOM      5  C   LIG    1       24.876 -31.124  11.361  0.00  0.00    +0.216 C 
ATOM      6  O   LIG    1       23.870 -31.778  10.509  0.00  0.00    -0.481 OA
ATOM      7  C   LIG    1       22.769 -31.734  11.415  0.00  0.00    +0.166 A 
ATOM      8  C   LIG    1       21.926 -32.809  11.596  0.00  0.00    +0.159 A 
ATOM      9  C   LIG    1       21.266 -32.915  12.818  0.00  0.00    +0.049 A 
ATOM     10  C   LIG    1       21.652 -32.078  13.898  0.00  0.00    +0.008 A 
ATOM     11  C   LIG    1       22.577 -31.040  13.688  0.00  0.00    -0.038 A 
ATOM     12  C   LIG    1       26.591 -30.693  10.811  0.00  0.00    +0.160 C 
ATOM     13  C   LIG    1       27.373 -29.072  11.521  0.00  0.00    +0.038 C 
ATOM     14  C   LIG    1       22.846 -30.741  12.392  0.00  0.00    +0.014 A 
ATOM     15  C   LIG    1       23.749 -28.868  11.027  0.00  0.00    +0.033 C 
ATOM     16  C   LIG    1       26.505 -27.967  12.840  0.00  0.00    +0.040 C 
ATOM     17  C   LIG    1       23.544 -30.427  14.700  0.00  0.00    +0.057 C 
ATOM     18  C   LIG    1       25.229 -28.949  11.376  0.00  0.00    +0.086 C 
ENDROOT
BRANCH   3  19
ATOM     19  O   LIG    1       23.880 -27.534  13.808  0.00  0.00    -0.386 OA
ATOM     20  H   LIG    1       23.214 -27.344  13.134  0.00  0.00    +0.210 HD
ENDBRANCH   3  19
BRANCH   8  21
ATOM     21  O   LIG    1       21.875 -33.825  10.695  0.00  0.00    -0.503 OA
ATOM     22  H   LIG    1       21.765 -33.385   9.829  0.00  0.00    +0.292 HD
ENDBRANCH   8  21
BRANCH  12  23
ATOM     23  O   LIG    1       26.672 -30.731   9.340  0.00  0.00    -0.371 OA
BRANCH  23  24
ATOM     24  C   LIG    1       27.012 -32.013   8.764  0.00  0.00    +0.188 C 
BRANCH  24  25
ATOM     25  C   LIG    1       25.925 -32.406   7.712  0.00  0.00    +0.188 C 
BRANCH  25  26
ATOM     26  O   LIG    1       25.665 -31.400   6.720  0.00  0.00    -0.375 OA
BRANCH  26  27
ATOM     27  C   LIG    1       24.371 -30.749   6.807  0.00  0.00    +0.188 C 
BRANCH  27  28
ATOM     28  C   LIG    1       24.381 -29.267   7.231  0.00  0.00    +0.188 C 
BRANCH  28  29
ATOM     29  O   LIG    1       24.186 -28.400   6.102  0.00  0.00    -0.375 OA
BRANCH  29  30
ATOM     30  C   LIG    1       25.326 -28.076   5.289  0.00  0.00    +0.188 C 
BRANCH  30  31
ATOM     31  C   LIG    1       25.915 -26.643   5.345  0.00  0.00    +0.188 C 
BRANCH  31  32
ATOM     32  O   LIG    1       26.225 -26.111   6.638  0.00  0.00    -0.375 OA
BRANCH  32  33
ATOM     33  C   LIG    1       25.853 -24.745   6.830  0.00  0.00    +0.188 C 
BRANCH  33  34
ATOM     34  C   LIG    1       24.384 -24.489   6.430  0.00  0.00    +0.188 C 
BRANCH  34  35
ATOM     35  O   LIG    1       24.114 -23.104   6.123  0.00  0.00    -0.375 OA
BRANCH  35  36
ATOM     36  C   LIG    1       23.769 -22.295   7.258  0.00  0.00    +0.188 C 
BRANCH  36  37
ATOM     37  C   LIG    1       24.891 -21.321   7.698  0.00  0.00    +0.188 C 
BRANCH  37  38
ATOM     38  O   LIG    1       25.365 -20.384   6.720  0.00  0.00    -0.375 OA
BRANCH  38  39
ATOM     39  C   LIG    1       26.652 -20.733   6.212  0.00  0.00    +0.188 C 
BRANCH  39  40
ATOM     40  C   LIG    1       27.545 -21.373   7.280  0.00  0.00    +0.188 C 
BRANCH  40  41
ATOM     41  O   LIG    1       28.908 -21.174   6.897  0.00  0.00    -0.375 OA
BRANCH  41  42
ATOM     42  C   LIG    1       29.560 -20.098   7.574  0.00  0.00    +0.188 C 
BRANCH  42  43
ATOM     43  C   LIG    1       30.764 -19.537   6.801  0.00  0.00    +0.187 C 
BRANCH  43  44
ATOM     44  O   LIG    1       31.861 -19.184   7.651  0.00  0.00    -0.381 OA
ATOM     45  C   LIG    1       31.549 -18.162   8.587  0.00  0.00    +0.194 C 
ENDBRANCH  43  44
ENDBRANCH  42  43
ENDBRANCH  41  42
ENDBRANCH  40  41
ENDBRANCH  39  40
ENDBRANCH  38  39
ENDBRANCH  37  38
ENDBRANCH  36  37
ENDBRANCH  35  36
ENDBRANCH  34  35
ENDBRANCH  33  34
ENDBRANCH  32  33
ENDBRANCH  31  32
ENDBRANCH  30  31
ENDBRANCH  29  30
ENDBRANCH  28  29
ENDBRANCH  27  28
ENDBRANCH  26  27
ENDBRANCH  25  26
ENDBRANCH  24  25
ENDBRANCH  23  24
ENDBRANCH  12  23
BRANCH   1  46
ATOM     46  C   LIG    1       27.162 -30.427  13.654  0.00  0.00    +0.111 C 
BRANCH  46  48
ATOM     47  C   LIG    1       26.748 -32.635  14.944  0.00  0.00    +0.005 C 
ATOM     48  C   LIG    1       27.300 -31.425  14.802  0.00  0.00    -0.019 C 
ENDBRANCH  46  48
ENDBRANCH   1  46
TORSDOF 26
ENDMDL
