MODEL 1
REMARK VINA RESULT:      41.8      0.000      0.000
REMARK  Name = *****
REMARK                            x       y       z     vdW  Elec       q    Type
REMARK                         _______ _______ _______ _____ _____    ______ ____
ROOT
ATOM      1  C   LIG    1       28.508 -20.099   6.110  0.00  0.00    +0.061 C 
ATOM      2  C   LIG    1       28.011 -18.776   5.549  0.00  0.00    +0.016 C 
ATOM      3  N   LIG    1       28.256 -17.705   6.397  0.00  0.00    -0.321 N 
ATOM      4  H   LIG    1       28.892 -17.913   7.164  0.00  0.00    +0.152 HD
ATOM      5  C   LIG    1       28.270 -16.382   5.972  0.00  0.00    +0.017 C 
ATOM      6  C   LIG    1       29.076 -15.494   6.866  0.00  0.00    +0.061 C 
ATOM      7  C   LIG    1       27.625 -16.009   4.841  0.00  0.00    +0.070 C 
ATOM      8  C   LIG    1       26.783 -17.103   4.128  0.00  0.00    +0.097 C 
ATOM      9  C   LIG    1       27.366 -18.508   4.381  0.00  0.00    +0.065 C 
ENDROOT
BRANCH   7  10
ATOM     10  P   LIG    1       27.678 -14.429   4.039  0.00  0.00    +0.362 P 
ATOM     11  O   LIG    1       27.029 -14.681   2.571  0.00  0.00    -0.304 OA
ATOM     12  C   LIG    1       26.591 -13.545   1.837  0.00  0.00    +0.179 C 
ATOM     13  C   LIG    1       25.496 -12.802   2.617  0.00  0.00    +0.013 C 
ATOM     14  C   LIG    1       24.970 -11.609   1.812  0.00  0.00    +0.015 C 
ATOM     15  C   LIG    1       24.340 -13.779   2.888  0.00  0.00    +0.015 C 
ATOM     16  C   LIG    1       26.094 -12.349   3.958  0.00  0.00    +0.179 C 
ATOM     17  O   LIG    1       26.522 -13.488   4.703  0.00  0.00    -0.304 OA
ATOM     18  O   LIG    1       28.926 -13.597   3.918  0.00  0.00    -0.253 OA
ENDBRANCH   7  10
BRANCH   8  19
ATOM     19  C   LIG    1       25.280 -17.015   4.528  0.00  0.00    -0.029 A 
ATOM     20  C   LIG    1       24.663 -15.850   4.969  0.00  0.00    +0.088 A 
ATOM     21  C   LIG    1       23.276 -15.837   5.221  0.00  0.00    +0.273 A 
ATOM     22  C   LIG    1       22.452 -16.954   5.060  0.00  0.00    +0.084 A 
ATOM     23  C   LIG    1       23.062 -18.137   4.705  0.00  0.00    +0.007 A 
ATOM     24  C   LIG    1       24.451 -18.142   4.493  0.00  0.00    +0.005 A 
BRANCH  21  25
ATOM     25  N   LIG    1       22.681 -14.600   5.668  0.00  0.00    +0.080 N 
ATOM     26  O   LIG    1       21.623 -14.683   6.306  0.00  0.00    -0.576 OA
ATOM     27  O   LIG    1       23.277 -13.553   5.385  0.00  0.00    +0.041 OA
ENDBRANCH  21  25
ENDBRANCH   8  19
BRANCH   9  28
ATOM     28  C   LIG    1       27.193 -19.438   3.234  0.00  0.00    +0.338 C 
ATOM     29  O   LIG    1       27.000 -19.053   2.134  0.00  0.00    -0.245 OA
BRANCH  28  30
ATOM     30  O   LIG    1       27.388 -20.751   3.611  0.00  0.00    -0.460 OA
BRANCH  30  31
ATOM     31  C   LIG    1       26.196 -21.566   3.648  0.00  0.00    +0.251 C 
BRANCH  31  32
ATOM     32  C   LIG    1       25.135 -21.253   2.597  0.00  0.00    +0.146 C 
BRANCH  32  33
ATOM     33  N   LIG    1       23.766 -20.954   3.012  0.00  0.00    -0.322 N 
BRANCH  33  34
ATOM     34  C   LIG    1       23.394 -21.220   4.335  0.00  0.00    +0.030 A 
ATOM     35  C   LIG    1       22.048 -21.367   4.706  0.00  0.00    +0.023 A 
ATOM     36  C   LIG    1       21.640 -21.538   6.038  0.00  0.00    +0.002 A 
ATOM     37  C   LIG    1       22.571 -21.569   7.061  0.00  0.00    +0.000 A 
ATOM     38  C   LIG    1       23.911 -21.478   6.732  0.00  0.00    +0.002 A 
ATOM     39  C   LIG    1       24.313 -21.307   5.389  0.00  0.00    +0.023 A 
ENDBRANCH  33  34
BRANCH  33  40
ATOM     40  C   LIG    1       22.740 -20.587   1.999  0.00  0.00    +0.140 C 
BRANCH  40  41
ATOM     41  C   LIG    1       21.536 -19.723   2.433  0.00  0.00    -0.030 A 
ATOM     42  C   LIG    1       20.484 -20.106   3.295  0.00  0.00    +0.005 A 
ATOM     43  C   LIG    1       19.544 -19.192   3.781  0.00  0.00    +0.000 A 
ATOM     44  C   LIG    1       19.588 -17.876   3.362  0.00  0.00    +0.000 A 
ATOM     45  C   LIG    1       20.581 -17.477   2.471  0.00  0.00    +0.000 A 
ATOM     46  C   LIG    1       21.506 -18.399   1.967  0.00  0.00    +0.005 A 
ENDBRANCH  40  41
ENDBRANCH  33  40
ENDBRANCH  32  33
ENDBRANCH  31  32
ENDBRANCH  30  31
ENDBRANCH  28  30
ENDBRANCH   9  28
TORSDOF 11
ENDMDL
