MODEL 1
REMARK VINA RESULT:      -2.3      0.000      0.000
REMARK  Name = *****
REMARK                            x       y       z     vdW  Elec       q    Type
REMARK                         _______ _______ _______ _____ _____    ______ ____
ROOT
ATOM      1  C   LIG    1       22.442 -21.464   4.092  0.00  0.00    +0.134 C 
ATOM      2  N   LIG    1       23.325 -20.304   3.916  0.00  0.00    -0.158 NA
ATOM      3  S   LIG    1       22.727 -18.851   4.497  0.00  0.00    +0.064 S 
ATOM      4  O   LIG    1       22.694 -18.930   5.942  0.00  0.00    -0.153 OA
ATOM      5  O   LIG    1       21.538 -18.521   3.742  0.00  0.00    -0.153 OA
ATOM      6  C   LIG    1       23.984 -17.706   4.064  0.00  0.00    +0.128 A 
ATOM      7  C   LIG    1       25.235 -18.178   3.674  0.00  0.00    +0.057 A 
ATOM      8  C   LIG    1       26.182 -17.223   3.277  0.00  0.00    +0.047 A 
ATOM      9  C   LIG    1       25.914 -15.844   3.343  0.00  0.00    +0.069 A 
ATOM     10  C   LIG    1       24.666 -15.406   3.784  0.00  0.00    +0.125 A 
ATOM     11 CL   LIG    1       27.180 -14.777   2.853  0.00  0.00    -0.082 Cl
ATOM     12  N   LIG    1       25.540 -19.529   3.528  0.00  0.00    -0.325 N 
ATOM     13  H   LIG    1       26.536 -19.734   3.578  0.00  0.00    +0.148 HD
ATOM     14  C   LIG    1       23.688 -16.341   4.135  0.00  0.00    +0.060 A 
ATOM     15  C   LIG    1       24.739 -20.546   4.205  0.00  0.00    +0.177 C 
ENDROOT
BRANCH  10  16
ATOM     16  S   LIG    1       24.320 -13.684   3.913  0.00  0.00    +0.057 S 
ATOM     17  O   LIG    1       23.229 -13.494   4.837  0.00  0.00    -0.153 OA
ATOM     18  O   LIG    1       24.364 -13.104   2.591  0.00  0.00    -0.153 OA
BRANCH  16  19
ATOM     19  N   LIG    1       25.667 -13.046   4.701  0.00  0.00    -0.203 NA
ATOM     20  H   LIG    1       26.517 -13.378   4.240  0.00  0.00    +0.144 HD
ATOM     21  H   LIG    1       25.624 -13.277   5.695  0.00  0.00    +0.144 HD
ENDBRANCH  16  19
ENDBRANCH  10  16
BRANCH  15  22
ATOM     22  C   LIG    1       25.101 -20.670   5.701  0.00  0.00    +0.148 C 
ATOM     23 CL   LIG    1       26.832 -20.279   5.969  0.00  0.00    -0.122 Cl
ENDBRANCH  15  22
TORSDOF 3
ENDMDL
MODEL 2
REMARK VINA RESULT:      -2.0      2.930      3.569
REMARK  Name = *****
REMARK                            x       y       z     vdW  Elec       q    Type
REMARK                         _______ _______ _______ _____ _____    ______ ____
ROOT
ATOM      1  C   LIG    1       23.262 -20.902   4.870  0.00  0.00    +0.134 C 
ATOM      2  N   LIG    1       23.310 -19.439   4.742  0.00  0.00    -0.158 NA
ATOM      3  S   LIG    1       24.537 -18.843   3.770  0.00  0.00    +0.064 S 
ATOM      4  O   LIG    1       24.239 -19.210   2.402  0.00  0.00    -0.153 OA
ATOM      5  O   LIG    1       25.802 -19.197   4.376  0.00  0.00    -0.153 OA
ATOM      6  C   LIG    1       24.335 -17.105   3.902  0.00  0.00    +0.128 A 
ATOM      7  C   LIG    1       23.156 -16.592   4.437  0.00  0.00    +0.057 A 
ATOM      8  C   LIG    1       23.074 -15.199   4.580  0.00  0.00    +0.047 A 
ATOM      9  C   LIG    1       24.099 -14.347   4.131  0.00  0.00    +0.069 A 
ATOM     10  C   LIG    1       25.245 -14.895   3.556  0.00  0.00    +0.125 A 
ATOM     11 CL   LIG    1       23.854 -12.651   4.339  0.00  0.00    -0.082 Cl
ATOM     12  N   LIG    1       22.134 -17.383   4.955  0.00  0.00    -0.325 N 
ATOM     13  H   LIG    1       21.229 -16.917   4.988  0.00  0.00    +0.148 HD
ATOM     14  C   LIG    1       25.373 -16.282   3.452  0.00  0.00    +0.060 A 
ATOM     15  C   LIG    1       22.013 -18.785   4.565  0.00  0.00    +0.177 C 
ENDROOT
BRANCH  10  16
ATOM     16  S   LIG    1       26.525 -13.848   2.950  0.00  0.00    +0.057 S 
ATOM     17  O   LIG    1       27.147 -14.479   1.812  0.00  0.00    -0.153 OA
ATOM     18  O   LIG    1       27.260 -13.319   4.076  0.00  0.00    -0.153 OA
BRANCH  16  19
ATOM     19  N   LIG    1       25.709 -12.517   2.314  0.00  0.00    -0.203 NA
ATOM     20  H   LIG    1       24.705 -12.632   2.463  0.00  0.00    +0.144 HD
ATOM     21  H   LIG    1       25.966 -12.395   1.333  0.00  0.00    +0.144 HD
ENDBRANCH  16  19
ENDBRANCH  10  16
BRANCH  15  22
ATOM     22  C   LIG    1       21.371 -18.946   3.169  0.00  0.00    +0.148 C 
ATOM     23 CL   LIG    1       19.617 -18.571   3.231  0.00  0.00    -0.122 Cl
ENDBRANCH  15  22
TORSDOF 3
ENDMDL
MODEL 3
REMARK VINA RESULT:      -1.9      2.926      6.425
REMARK  Name = *****
REMARK                            x       y       z     vdW  Elec       q    Type
REMARK                         _______ _______ _______ _____ _____    ______ ____
ROOT
ATOM      1  C   LIG    1       25.970 -11.958   2.344  0.00  0.00    +0.134 C 
ATOM      2  N   LIG    1       25.241 -13.154   2.788  0.00  0.00    -0.158 NA
ATOM      3  S   LIG    1       26.195 -14.483   3.151  0.00  0.00    +0.064 S 
ATOM      4  O   LIG    1       26.943 -14.178   4.352  0.00  0.00    -0.153 OA
ATOM      5  O   LIG    1       26.868 -14.896   1.940  0.00  0.00    -0.153 OA
ATOM      6  C   LIG    1       25.015 -15.713   3.568  0.00  0.00    +0.128 A 
ATOM      7  C   LIG    1       23.697 -15.339   3.821  0.00  0.00    +0.057 A 
ATOM      8  C   LIG    1       22.782 -16.369   4.085  0.00  0.00    +0.047 A 
ATOM      9  C   LIG    1       23.186 -17.713   4.171  0.00  0.00    +0.069 A 
ATOM     10  C   LIG    1       24.523 -18.045   3.958  0.00  0.00    +0.125 A 
ATOM     11 CL   LIG    1       21.962 -18.875   4.534  0.00  0.00    -0.082 Cl
ATOM     12  N   LIG    1       23.225 -14.036   3.690  0.00  0.00    -0.325 N 
ATOM     13  H   LIG    1       22.374 -13.851   4.219  0.00  0.00    +0.148 HD
ATOM     14  C   LIG    1       25.444 -17.042   3.641  0.00  0.00    +0.060 A 
ATOM     15  C   LIG    1       24.150 -12.906   3.731  0.00  0.00    +0.177 C 
ENDROOT
BRANCH  10  16
ATOM     16  S   LIG    1       25.060 -19.716   4.099  0.00  0.00    +0.057 S 
ATOM     17  O   LIG    1       24.957 -20.352   2.809  0.00  0.00    -0.153 OA
ATOM     18  O   LIG    1       24.516 -20.274   5.316  0.00  0.00    -0.153 OA
BRANCH  16  19
ATOM     19  N   LIG    1       26.716 -19.599   4.391  0.00  0.00    -0.203 NA
ATOM     20  H   LIG    1       27.082 -20.519   4.644  0.00  0.00    +0.144 HD
ATOM     21  H   LIG    1       26.889 -18.882   5.098  0.00  0.00    +0.144 HD
ENDBRANCH  16  19
ENDBRANCH  10  16
BRANCH  15  22
ATOM     22  C   LIG    1       24.580 -12.559   5.173  0.00  0.00    +0.148 C 
ATOM     23 CL   LIG    1       23.397 -11.447   5.938  0.00  0.00    -0.122 Cl
ENDBRANCH  15  22
TORSDOF 3
ENDMDL
MODEL 4
REMARK VINA RESULT:       0.0      1.264      1.401
REMARK  Name = *****
REMARK                            x       y       z     vdW  Elec       q    Type
REMARK                         _______ _______ _______ _____ _____    ______ ____
ROOT
ATOM      1  C   LIG    1       24.531 -21.566   4.065  0.00  0.00    +0.134 C 
ATOM      2  N   LIG    1       25.149 -20.237   3.957  0.00  0.00    -0.158 NA
ATOM      3  S   LIG    1       24.095 -18.942   4.099  0.00  0.00    +0.064 S 
ATOM      4  O   LIG    1       23.628 -18.896   5.468  0.00  0.00    -0.153 OA
ATOM      5  O   LIG    1       23.162 -19.000   2.996  0.00  0.00    -0.153 OA
ATOM      6  C   LIG    1       25.142 -17.555   3.857  0.00  0.00    +0.128 A 
ATOM      7  C   LIG    1       26.524 -17.721   3.919  0.00  0.00    +0.057 A 
ATOM      8  C   LIG    1       27.314 -16.593   3.653  0.00  0.00    +0.047 A 
ATOM      9  C   LIG    1       26.744 -15.330   3.413  0.00  0.00    +0.069 A 
ATOM     10  C   LIG    1       25.357 -15.192   3.406  0.00  0.00    +0.125 A 
ATOM     11 CL   LIG    1       27.834 -14.021   3.133  0.00  0.00    -0.082 Cl
ATOM     12  N   LIG    1       27.146 -18.955   4.089  0.00  0.00    -0.325 N 
ATOM     13  H   LIG    1       28.096 -18.890   4.451  0.00  0.00    +0.148 HD
ATOM     14  C   LIG    1       24.547 -16.312   3.615  0.00  0.00    +0.060 A 
ATOM     15  C   LIG    1       26.416 -20.079   4.670  0.00  0.00    +0.177 C 
ENDROOT
BRANCH  10  16
ATOM     16  S   LIG    1       24.620 -13.613   3.147  0.00  0.00    +0.057 S 
ATOM     17  O   LIG    1       23.215 -13.695   3.465  0.00  0.00    -0.153 OA
ATOM     18  O   LIG    1       25.135 -13.060   1.916  0.00  0.00    -0.153 OA
BRANCH  16  19
ATOM     19  N   LIG    1       25.280 -12.642   4.357  0.00  0.00    -0.203 NA
ATOM     20  H   LIG    1       26.300 -12.675   4.299  0.00  0.00    +0.144 HD
ATOM     21  H   LIG    1       24.913 -12.930   5.266  0.00  0.00    +0.144 HD
ENDBRANCH  16  19
ENDBRANCH  10  16
BRANCH  15  22
ATOM     22  C   LIG    1       26.309 -19.969   6.207  0.00  0.00    +0.148 C 
ATOM     23 CL   LIG    1       25.959 -21.572   6.934  0.00  0.00    -0.122 Cl
ENDBRANCH  15  22
TORSDOF 3
ENDMDL
MODEL 5
REMARK VINA RESULT:       0.3      2.011      5.979
REMARK  Name = *****
REMARK                            x       y       z     vdW  Elec       q    Type
REMARK                         _______ _______ _______ _____ _____    ______ ____
ROOT
ATOM      1  C   LIG    1       24.680 -12.035   4.745  0.00  0.00    +0.134 C 
ATOM      2  N   LIG    1       24.951 -13.439   4.403  0.00  0.00    -0.158 NA
ATOM      3  S   LIG    1       23.612 -14.446   4.398  0.00  0.00    +0.064 S 
ATOM      4  O   LIG    1       22.774 -14.067   3.281  0.00  0.00    -0.153 OA
ATOM      5  O   LIG    1       23.082 -14.495   5.743  0.00  0.00    -0.153 OA
ATOM      6  C   LIG    1       24.302 -16.016   4.026  0.00  0.00    +0.128 A 
ATOM      7  C   LIG    1       25.603 -16.092   3.533  0.00  0.00    +0.057 A 
ATOM      8  C   LIG    1       26.128 -17.374   3.315  0.00  0.00    +0.047 A 
ATOM      9  C   LIG    1       25.355 -18.533   3.506  0.00  0.00    +0.069 A 
ATOM     10  C   LIG    1       24.040 -18.416   3.955  0.00  0.00    +0.125 A 
ATOM     11 CL   LIG    1       26.115 -20.045   3.169  0.00  0.00    -0.082 Cl
ATOM     12  N   LIG    1       26.438 -14.988   3.384  0.00  0.00    -0.325 N 
ATOM     13  H   LIG    1       27.196 -15.132   2.718  0.00  0.00    +0.148 HD
ATOM     14  C   LIG    1       23.512 -17.152   4.231  0.00  0.00    +0.060 A 
ATOM     15  C   LIG    1       25.877 -13.643   3.290  0.00  0.00    +0.177 C 
ENDROOT
BRANCH  10  16
ATOM     16  S   LIG    1       23.039 -19.850   4.164  0.00  0.00    +0.057 S 
ATOM     17  O   LIG    1       23.477 -20.865   3.239  0.00  0.00    -0.153 OA
ATOM     18  O   LIG    1       21.663 -19.433   4.308  0.00  0.00    -0.153 OA
BRANCH  16  19
ATOM     19  N   LIG    1       23.465 -20.438   5.685  0.00  0.00    -0.203 NA
ATOM     20  H   LIG    1       24.440 -20.744   5.669  0.00  0.00    +0.144 HD
ATOM     21  H   LIG    1       22.811 -21.171   5.964  0.00  0.00    +0.144 HD
ENDBRANCH  16  19
ENDBRANCH  10  16
BRANCH  15  22
ATOM     22  C   LIG    1       25.307 -13.348   1.885  0.00  0.00    +0.148 C 
ATOM     23 CL   LIG    1       24.622 -11.691   1.813  0.00  0.00    -0.122 Cl
ENDBRANCH  15  22
TORSDOF 3
ENDMDL
