MODEL 1
REMARK VINA RESULT:      -3.1      0.000      0.000
REMARK  Name = *****
REMARK                            x       y       z     vdW  Elec       q    Type
REMARK                         _______ _______ _______ _____ _____    ______ ____
ROOT
ATOM      1  C   LIG    1       24.126 -14.053   3.945  0.00  0.00    +0.243 C 
ATOM      2  N   LIG    1       25.393 -14.649   4.017  0.00  0.00    -0.268 N 
ATOM      3  O   LIG    1       23.126 -14.647   3.557  0.00  0.00    -0.270 OA
ENDROOT
BRANCH   2   4
ATOM      4  C   LIG    1       26.595 -13.886   4.055  0.00  0.00    +0.039 A 
ATOM      5  C   LIG    1       27.175 -13.449   5.263  0.00  0.00    -0.029 A 
ATOM      6  C   LIG    1       26.542 -13.677   6.606  0.00  0.00    +0.045 C 
ATOM      7  C   LIG    1       28.398 -12.758   5.213  0.00  0.00    +0.005 A 
ATOM      8  C   LIG    1       28.997 -12.449   3.993  0.00  0.00    +0.000 A 
ATOM      9  C   LIG    1       28.389 -12.834   2.802  0.00  0.00    +0.002 A 
ATOM     10  C   LIG    1       27.193 -13.554   2.831  0.00  0.00    +0.024 A 
ENDBRANCH   2   4
BRANCH   1  13
ATOM     11  C   LIG    1       24.087 -11.505   2.147  0.00  0.00    +0.035 C 
ATOM     12  C   LIG    1       24.025 -11.551   3.641  0.00  0.00    -0.025 C 
ATOM     13  C   LIG    1       24.034 -12.638   4.430  0.00  0.00    +0.063 C 
ENDBRANCH   1  13
BRANCH   2  14
ATOM     14  C   LIG    1       25.526 -16.001   3.457  0.00  0.00    +0.111 C 
ATOM     15  C   LIG    1       26.911 -16.604   3.644  0.00  0.00    +0.025 C 
ENDBRANCH   2  14
TORSDOF 3
ENDMDL
MODEL 2
REMARK VINA RESULT:      -3.1      1.812      4.079
REMARK  Name = *****
REMARK                            x       y       z     vdW  Elec       q    Type
REMARK                         _______ _______ _______ _____ _____    ______ ____
ROOT
ATOM      1  C   LIG    1       26.370 -15.988   3.493  0.00  0.00    +0.243 C 
ATOM      2  N   LIG    1       26.649 -14.619   3.613  0.00  0.00    -0.268 N 
ATOM      3  O   LIG    1       27.237 -16.836   3.309  0.00  0.00    -0.270 OA
ENDROOT
BRANCH   2   4
ATOM      4  C   LIG    1       25.659 -13.617   3.406  0.00  0.00    +0.039 A 
ATOM      5  C   LIG    1       24.997 -12.975   4.472  0.00  0.00    -0.029 A 
ATOM      6  C   LIG    1       25.216 -13.342   5.913  0.00  0.00    +0.045 C 
ATOM      7  C   LIG    1       24.081 -11.950   4.180  0.00  0.00    +0.005 A 
ATOM      8  C   LIG    1       23.778 -11.615   2.861  0.00  0.00    +0.000 A 
ATOM      9  C   LIG    1       24.393 -12.293   1.812  0.00  0.00    +0.002 A 
ATOM     10  C   LIG    1       25.333 -13.289   2.082  0.00  0.00    +0.024 A 
ENDBRANCH   2   4
BRANCH   1  13
ATOM     11  C   LIG    1       25.283 -18.911   3.569  0.00  0.00    +0.035 C 
ATOM     12  C   LIG    1       24.483 -17.652   3.684  0.00  0.00    -0.025 C 
ATOM     13  C   LIG    1       24.935 -16.387   3.660  0.00  0.00    +0.063 C 
ENDBRANCH   1  13
BRANCH   2  14
ATOM     14  C   LIG    1       28.032 -14.197   3.357  0.00  0.00    +0.111 C 
ATOM     15  C   LIG    1       28.416 -12.907   4.070  0.00  0.00    +0.025 C 
ENDBRANCH   2  14
TORSDOF 3
ENDMDL
MODEL 3
REMARK VINA RESULT:      -2.4      1.020      3.271
REMARK  Name = *****
REMARK                            x       y       z     vdW  Elec       q    Type
REMARK                         _______ _______ _______ _____ _____    ______ ____
ROOT
ATOM      1  C   LIG    1       24.740 -15.504   3.803  0.00  0.00    +0.243 C 
ATOM      2  N   LIG    1       25.037 -14.133   3.782  0.00  0.00    -0.268 N 
ATOM      3  O   LIG    1       23.625 -15.944   4.060  0.00  0.00    -0.270 OA
ENDROOT
BRANCH   2   4
ATOM      4  C   LIG    1       26.367 -13.638   3.904  0.00  0.00    +0.039 A 
ATOM      5  C   LIG    1       26.964 -13.377   5.153  0.00  0.00    -0.029 A 
ATOM      6  C   LIG    1       26.233 -13.520   6.458  0.00  0.00    +0.045 C 
ATOM      7  C   LIG    1       28.304 -12.952   5.185  0.00  0.00    +0.005 A 
ATOM      8  C   LIG    1       29.013 -12.727   4.005  0.00  0.00    +0.000 A 
ATOM      9  C   LIG    1       28.397 -12.932   2.774  0.00  0.00    +0.002 A 
ATOM     10  C   LIG    1       27.078 -13.389   2.722  0.00  0.00    +0.024 A 
ENDBRANCH   2   4
BRANCH   1  13
ATOM     11  C   LIG    1       24.547 -18.608   3.573  0.00  0.00    +0.035 C 
ATOM     12  C   LIG    1       25.761 -17.765   3.346  0.00  0.00    -0.025 C 
ATOM     13  C   LIG    1       25.860 -16.428   3.433  0.00  0.00    +0.063 C 
ENDBRANCH   1  13
BRANCH   2  14
ATOM     14  C   LIG    1       23.982 -13.217   4.234  0.00  0.00    +0.111 C 
ATOM     15  C   LIG    1       23.859 -11.962   3.380  0.00  0.00    +0.025 C 
ENDBRANCH   2  14
TORSDOF 3
ENDMDL
MODEL 4
REMARK VINA RESULT:      -2.2      4.756      7.399
REMARK  Name = *****
REMARK                            x       y       z     vdW  Elec       q    Type
REMARK                         _______ _______ _______ _____ _____    ______ ____
ROOT
ATOM      1  C   LIG    1       26.913 -18.828   4.454  0.00  0.00    +0.243 C 
ATOM      2  N   LIG    1       26.594 -20.057   5.049  0.00  0.00    -0.268 N 
ATOM      3  O   LIG    1       28.030 -18.326   4.509  0.00  0.00    -0.270 OA
ENDROOT
BRANCH   2   4
ATOM      4  C   LIG    1       25.255 -20.435   5.351  0.00  0.00    +0.039 A 
ATOM      5  C   LIG    1       24.323 -20.779   4.351  0.00  0.00    -0.029 A 
ATOM      6  C   LIG    1       24.630 -20.702   2.882  0.00  0.00    +0.045 C 
ATOM      7  C   LIG    1       23.041 -21.204   4.740  0.00  0.00    +0.005 A 
ATOM      8  C   LIG    1       22.670 -21.224   6.084  0.00  0.00    +0.000 A 
ATOM      9  C   LIG    1       23.578 -20.828   7.062  0.00  0.00    +0.002 A 
ATOM     10  C   LIG    1       24.868 -20.438   6.698  0.00  0.00    +0.024 A 
ENDBRANCH   2   4
BRANCH   1  13
ATOM     11  C   LIG    1       26.849 -15.838   3.570  0.00  0.00    +0.035 C 
ATOM     12  C   LIG    1       25.801 -16.873   3.312  0.00  0.00    -0.025 C 
ATOM     13  C   LIG    1       25.815 -18.166   3.679  0.00  0.00    +0.063 C 
ENDBRANCH   1  13
BRANCH   2  14
ATOM     14  C   LIG    1       27.626 -20.676   5.893  0.00  0.00    +0.111 C 
ATOM     15  C   LIG    1       28.074 -19.793   7.050  0.00  0.00    +0.025 C 
ENDBRANCH   2  14
TORSDOF 3
ENDMDL
MODEL 5
REMARK VINA RESULT:      -2.1      1.208      3.774
REMARK  Name = *****
REMARK                            x       y       z     vdW  Elec       q    Type
REMARK                         _______ _______ _______ _____ _____    ______ ____
ROOT
ATOM      1  C   LIG    1       24.570 -15.675   3.922  0.00  0.00    +0.243 C 
ATOM      2  N   LIG    1       24.844 -14.304   4.031  0.00  0.00    -0.268 N 
ATOM      3  O   LIG    1       23.447 -16.148   4.067  0.00  0.00    -0.270 OA
ENDROOT
BRANCH   2   4
ATOM      4  C   LIG    1       26.155 -13.806   4.281  0.00  0.00    +0.039 A 
ATOM      5  C   LIG    1       27.092 -13.593   3.250  0.00  0.00    -0.029 A 
ATOM      6  C   LIG    1       26.825 -13.945   1.814  0.00  0.00    +0.045 C 
ATOM      7  C   LIG    1       28.340 -13.035   3.577  0.00  0.00    +0.005 A 
ATOM      8  C   LIG    1       28.676 -12.758   4.901  0.00  0.00    +0.000 A 
ATOM      9  C   LIG    1       27.766 -13.025   5.920  0.00  0.00    +0.002 A 
ATOM     10  C   LIG    1       26.507 -13.544   5.612  0.00  0.00    +0.024 A 
ENDBRANCH   2   4
BRANCH   1  13
ATOM     11  C   LIG    1       24.468 -18.770   3.550  0.00  0.00    +0.035 C 
ATOM     12  C   LIG    1       25.666 -17.887   3.405  0.00  0.00    -0.025 C 
ATOM     13  C   LIG    1       25.727 -16.553   3.554  0.00  0.00    +0.063 C 
ENDBRANCH   1  13
BRANCH   2  14
ATOM     14  C   LIG    1       23.747 -13.439   4.485  0.00  0.00    +0.111 C 
ATOM     15  C   LIG    1       23.795 -12.036   3.896  0.00  0.00    +0.025 C 
ENDBRANCH   2  14
TORSDOF 3
ENDMDL
MODEL 6
REMARK VINA RESULT:      -2.1      1.872      4.216
REMARK  Name = *****
REMARK                            x       y       z     vdW  Elec       q    Type
REMARK                         _______ _______ _______ _____ _____    ______ ____
ROOT
ATOM      1  C   LIG    1       26.345 -13.378   2.864  0.00  0.00    +0.243 C 
ATOM      2  N   LIG    1       26.299 -14.472   3.740  0.00  0.00    -0.268 N 
ATOM      3  O   LIG    1       27.223 -12.522   2.906  0.00  0.00    -0.270 OA
ENDROOT
BRANCH   2   4
ATOM      4  C   LIG    1       25.105 -15.210   3.977  0.00  0.00    +0.039 A 
ATOM      5  C   LIG    1       24.997 -16.586   3.692  0.00  0.00    -0.029 A 
ATOM      6  C   LIG    1       26.097 -17.378   3.043  0.00  0.00    +0.045 C 
ATOM      7  C   LIG    1       23.803 -17.252   4.019  0.00  0.00    +0.005 A 
ATOM      8  C   LIG    1       22.719 -16.558   4.553  0.00  0.00    +0.000 A 
ATOM      9  C   LIG    1       22.813 -15.187   4.779  0.00  0.00    +0.002 A 
ATOM     10  C   LIG    1       24.003 -14.515   4.495  0.00  0.00    +0.024 A 
ENDBRANCH   2   4
BRANCH   1  13
ATOM     11  C   LIG    1       23.896 -11.447   2.834  0.00  0.00    +0.035 C 
ATOM     12  C   LIG    1       24.227 -12.494   1.818  0.00  0.00    -0.025 C 
ATOM     13  C   LIG    1       25.280 -13.329   1.812  0.00  0.00    +0.063 C 
ENDBRANCH   1  13
BRANCH   2  14
ATOM     14  C   LIG    1       27.275 -14.488   4.838  0.00  0.00    +0.111 C 
ATOM     15  C   LIG    1       26.998 -13.444   5.912  0.00  0.00    +0.025 C 
ENDBRANCH   2  14
TORSDOF 3
ENDMDL
MODEL 7
REMARK VINA RESULT:      -1.6      4.203      6.639
REMARK  Name = *****
REMARK                            x       y       z     vdW  Elec       q    Type
REMARK                         _______ _______ _______ _____ _____    ______ ____
ROOT
ATOM      1  C   LIG    1       27.111 -18.199   4.209  0.00  0.00    +0.243 C 
ATOM      2  N   LIG    1       26.636 -19.446   4.639  0.00  0.00    -0.268 N 
ATOM      3  O   LIG    1       28.256 -17.810   4.415  0.00  0.00    -0.270 OA
ENDROOT
BRANCH   2   4
ATOM      4  C   LIG    1       25.247 -19.727   4.781  0.00  0.00    +0.039 A 
ATOM      5  C   LIG    1       24.715 -20.351   5.927  0.00  0.00    -0.029 A 
ATOM      6  C   LIG    1       25.567 -20.845   7.062  0.00  0.00    +0.045 C 
ATOM      7  C   LIG    1       23.324 -20.531   6.013  0.00  0.00    +0.005 A 
ATOM      8  C   LIG    1       22.487 -20.163   4.960  0.00  0.00    +0.000 A 
ATOM      9  C   LIG    1       23.026 -19.600   3.807  0.00  0.00    +0.002 A 
ATOM     10  C   LIG    1       24.402 -19.379   3.718  0.00  0.00    +0.024 A 
ENDBRANCH   2   4
BRANCH   1  13
ATOM     11  C   LIG    1       27.260 -15.107   3.831  0.00  0.00    +0.035 C 
ATOM     12  C   LIG    1       26.227 -16.031   3.270  0.00  0.00    -0.025 C 
ATOM     13  C   LIG    1       26.151 -17.365   3.417  0.00  0.00    +0.063 C 
ENDBRANCH   1  13
BRANCH   2  14
ATOM     14  C   LIG    1       27.526 -20.237   5.499  0.00  0.00    +0.111 C 
ATOM     15  C   LIG    1       28.605 -19.409   6.183  0.00  0.00    +0.025 C 
ENDBRANCH   2  14
TORSDOF 3
ENDMDL
MODEL 8
REMARK VINA RESULT:      -1.5      4.524      7.653
REMARK  Name = *****
REMARK                            x       y       z     vdW  Elec       q    Type
REMARK                         _______ _______ _______ _____ _____    ______ ____
ROOT
ATOM      1  C   LIG    1       26.816 -19.199   4.858  0.00  0.00    +0.243 C 
ATOM      2  N   LIG    1       25.607 -18.751   4.307  0.00  0.00    -0.268 N 
ATOM      3  O   LIG    1       27.915 -18.849   4.438  0.00  0.00    -0.270 OA
ENDROOT
BRANCH   2   4
ATOM      4  C   LIG    1       24.379 -19.447   4.492  0.00  0.00    +0.039 A 
ATOM      5  C   LIG    1       23.129 -18.796   4.464  0.00  0.00    -0.029 A 
ATOM      6  C   LIG    1       22.983 -17.308   4.316  0.00  0.00    +0.045 C 
ATOM      7  C   LIG    1       21.962 -19.569   4.589  0.00  0.00    +0.005 A 
ATOM      8  C   LIG    1       22.034 -20.945   4.805  0.00  0.00    +0.000 A 
ATOM      9  C   LIG    1       23.274 -21.572   4.889  0.00  0.00    +0.002 A 
ATOM     10  C   LIG    1       24.444 -20.827   4.730  0.00  0.00    +0.024 A 
ENDBRANCH   2   4
BRANCH   1  13
ATOM     11  C   LIG    1       29.154 -20.020   6.752  0.00  0.00    +0.035 C 
ATOM     12  C   LIG    1       27.725 -20.450   6.851  0.00  0.00    -0.025 C 
ATOM     13  C   LIG    1       26.705 -20.101   6.048  0.00  0.00    +0.063 C 
ENDBRANCH   1  13
BRANCH   2  14
ATOM     14  C   LIG    1       25.692 -17.944   3.082  0.00  0.00    +0.111 C 
ATOM     15  C   LIG    1       26.280 -16.557   3.306  0.00  0.00    +0.025 C 
ENDBRANCH   2  14
TORSDOF 3
ENDMDL
MODEL 9
REMARK VINA RESULT:      -1.4      1.699      4.260
REMARK  Name = *****
REMARK                            x       y       z     vdW  Elec       q    Type
REMARK                         _______ _______ _______ _____ _____    ______ ____
ROOT
ATOM      1  C   LIG    1       25.265 -12.991   4.651  0.00  0.00    +0.243 C 
ATOM      2  N   LIG    1       24.424 -13.886   3.975  0.00  0.00    -0.268 N 
ATOM      3  O   LIG    1       25.213 -11.776   4.498  0.00  0.00    -0.270 OA
ENDROOT
BRANCH   2   4
ATOM      4  C   LIG    1       24.742 -15.266   3.821  0.00  0.00    +0.039 A 
ATOM      5  C   LIG    1       23.830 -16.292   4.139  0.00  0.00    -0.029 A 
ATOM      6  C   LIG    1       22.478 -16.030   4.739  0.00  0.00    +0.045 C 
ATOM      7  C   LIG    1       24.202 -17.625   3.894  0.00  0.00    +0.005 A 
ATOM      8  C   LIG    1       25.471 -17.938   3.409  0.00  0.00    +0.000 A 
ATOM      9  C   LIG    1       26.387 -16.922   3.152  0.00  0.00    +0.002 A 
ATOM     10  C   LIG    1       26.024 -15.589   3.353  0.00  0.00    +0.024 A 
ENDBRANCH   2   4
BRANCH   1  13
ATOM     11  C   LIG    1       28.377 -12.965   4.441  0.00  0.00    +0.035 C 
ATOM     12  C   LIG    1       27.556 -13.582   5.528  0.00  0.00    -0.025 C 
ATOM     13  C   LIG    1       26.216 -13.597   5.638  0.00  0.00    +0.063 C 
ENDBRANCH   1  13
BRANCH   2  14
ATOM     14  C   LIG    1       23.553 -13.324   2.934  0.00  0.00    +0.111 C 
ATOM     15  C   LIG    1       24.315 -12.630   1.812  0.00  0.00    +0.025 C 
ENDBRANCH   2  14
TORSDOF 3
ENDMDL
