MODEL 1
REMARK VINA RESULT:      -5.5      0.000      0.000
REMARK  Name = *****
REMARK                            x       y       z     vdW  Elec       q    Type
REMARK                         _______ _______ _______ _____ _____    ______ ____
ROOT
ATOM      1  C   LIG    1       22.766 -20.191   5.707  0.00  0.00    -0.027 C 
ATOM      2  C   LIG    1       22.358 -18.897   5.482  0.00  0.00    -0.027 C 
ENDROOT
BRANCH   1   3
ATOM      3  C   LIG    1       23.478 -21.306   4.953  0.00  0.00    +0.054 C 
BRANCH   3   5
ATOM      4  C   LIG    1       24.792 -20.137   3.160  0.00  0.00    -0.027 C 
ATOM      5  C   LIG    1       23.933 -21.091   3.557  0.00  0.00    -0.027 C 
BRANCH   4   6
ATOM      6  C   LIG    1       25.618 -19.211   3.991  0.00  0.00    +0.054 C 
BRANCH   6   8
ATOM      7  C   LIG    1       27.220 -17.084   3.696  0.00  0.00    -0.027 C 
ATOM      8  C   LIG    1       26.228 -17.955   3.408  0.00  0.00    -0.027 C 
BRANCH   7   9
ATOM      9  C   LIG    1       28.281 -16.963   4.777  0.00  0.00    +0.054 C 
BRANCH   9  11
ATOM     10  C   LIG    1       29.089 -19.257   5.909  0.00  0.00    -0.031 C 
ATOM     11  C   LIG    1       29.118 -18.212   5.040  0.00  0.00    -0.027 C 
BRANCH  10  13
ATOM     12  C   LIG    1       27.126 -20.620   6.613  0.00  0.00    +0.008 C 
ATOM     13  C   LIG    1       28.190 -19.650   7.062  0.00  0.00    +0.023 C 
ENDBRANCH  10  13
ENDBRANCH   9  11
ENDBRANCH   7   9
ENDBRANCH   6   8
ENDBRANCH   4   6
ENDBRANCH   3   5
ENDBRANCH   1   3
BRANCH   2  14
ATOM     14  C   LIG    1       22.231 -17.866   4.272  0.00  0.00    +0.054 C 
BRANCH  14  15
ATOM     15  C   LIG    1       22.418 -16.435   4.608  0.00  0.00    -0.027 C 
ATOM     16  C   LIG    1       23.617 -15.806   4.244  0.00  0.00    -0.027 C 
BRANCH  16  17
ATOM     17  C   LIG    1       23.826 -14.417   4.487  0.00  0.00    +0.054 C 
BRANCH  17  18
ATOM     18  C   LIG    1       23.917 -13.677   3.193  0.00  0.00    -0.027 C 
ATOM     19  C   LIG    1       24.961 -13.384   2.398  0.00  0.00    -0.030 C 
BRANCH  19  20
ATOM     20  C   LIG    1       26.438 -13.647   2.534  0.00  0.00    +0.038 C 
BRANCH  20  21
ATOM     21  C   LIG    1       26.892 -13.419   3.985  0.00  0.00    +0.124 C 
BRANCH  21  22
ATOM     22  C   LIG    1       28.278 -13.035   4.165  0.00  0.00    +0.305 C 
ATOM     23  O   LIG    1       28.683 -12.220   5.168  0.00  0.00    -0.251 OA
BRANCH  22  24
ATOM     24  O   LIG    1       29.179 -13.562   3.334  0.00  0.00    -0.481 OA
ATOM     25  H   LIG    1       29.608 -12.885   2.773  0.00  0.00    +0.295 HD
ENDBRANCH  22  24
ENDBRANCH  21  22
ENDBRANCH  20  21
ENDBRANCH  19  20
ENDBRANCH  17  18
ENDBRANCH  16  17
ENDBRANCH  14  15
ENDBRANCH   2  14
TORSDOF 15
ENDMDL
MODEL 2
REMARK VINA RESULT:      -5.4      1.630      4.746
REMARK  Name = *****
REMARK                            x       y       z     vdW  Elec       q    Type
REMARK                         _______ _______ _______ _____ _____    ______ ____
ROOT
ATOM      1  C   LIG    1       24.954 -20.802   5.820  0.00  0.00    -0.027 C 
ATOM      2  C   LIG    1       25.616 -20.498   4.654  0.00  0.00    -0.027 C 
ENDROOT
BRANCH   1   3
ATOM      3  C   LIG    1       23.558 -20.646   6.409  0.00  0.00    +0.054 C 
BRANCH   3   5
ATOM      4  C   LIG    1       21.907 -19.824   4.704  0.00  0.00    -0.027 C 
ATOM      5  C   LIG    1       22.362 -20.773   5.539  0.00  0.00    -0.027 C 
BRANCH   4   6
ATOM      6  C   LIG    1       22.548 -18.534   4.309  0.00  0.00    +0.054 C 
BRANCH   6   8
ATOM      7  C   LIG    1       22.452 -15.910   4.841  0.00  0.00    -0.027 C 
ATOM      8  C   LIG    1       22.123 -17.218   4.923  0.00  0.00    -0.027 C 
BRANCH   7   9
ATOM      9  C   LIG    1       23.427 -15.083   4.020  0.00  0.00    +0.054 C 
BRANCH   9  11
ATOM     10  C   LIG    1       24.173 -12.544   4.459  0.00  0.00    -0.031 C 
ATOM     11  C   LIG    1       24.036 -13.871   4.720  0.00  0.00    -0.027 C 
BRANCH  10  13
ATOM     12  C   LIG    1       24.490 -12.067   2.034  0.00  0.00    +0.008 C 
ATOM     13  C   LIG    1       23.788 -11.648   3.302  0.00  0.00    +0.023 C 
ENDBRANCH  10  13
ENDBRANCH   9  11
ENDBRANCH   7   9
ENDBRANCH   6   8
ENDBRANCH   4   6
ENDBRANCH   3   5
ENDBRANCH   1   3
BRANCH   2  14
ATOM     14  C   LIG    1       25.379 -19.665   3.315  0.00  0.00    +0.054 C 
BRANCH  14  15
ATOM     15  C   LIG    1       25.900 -18.277   3.307  0.00  0.00    -0.027 C 
ATOM     16  C   LIG    1       27.030 -17.976   4.079  0.00  0.00    -0.027 C 
BRANCH  16  17
ATOM     17  C   LIG    1       27.612 -16.675   4.061  0.00  0.00    +0.054 C 
BRANCH  17  18
ATOM     18  C   LIG    1       26.742 -15.733   3.295  0.00  0.00    -0.027 C 
ATOM     19  C   LIG    1       26.966 -14.499   2.809  0.00  0.00    -0.030 C 
BRANCH  19  20
ATOM     20  C   LIG    1       28.156 -13.580   2.896  0.00  0.00    +0.038 C 
BRANCH  20  21
ATOM     21  C   LIG    1       27.844 -12.385   3.811  0.00  0.00    +0.124 C 
BRANCH  21  22
ATOM     22  C   LIG    1       28.057 -12.597   5.230  0.00  0.00    +0.305 C 
ATOM     23  O   LIG    1       27.320 -13.472   5.954  0.00  0.00    -0.251 OA
BRANCH  22  24
ATOM     24  O   LIG    1       29.061 -11.937   5.810  0.00  0.00    -0.481 OA
ATOM     25  H   LIG    1       28.764 -11.104   6.229  0.00  0.00    +0.295 HD
ENDBRANCH  22  24
ENDBRANCH  21  22
ENDBRANCH  20  21
ENDBRANCH  19  20
ENDBRANCH  17  18
ENDBRANCH  16  17
ENDBRANCH  14  15
ENDBRANCH   2  14
TORSDOF 15
ENDMDL
MODEL 3
REMARK VINA RESULT:      -5.2      1.328      2.909
REMARK  Name = *****
REMARK                            x       y       z     vdW  Elec       q    Type
REMARK                         _______ _______ _______ _____ _____    ______ ____
ROOT
ATOM      1  C   LIG    1       22.138 -18.531   5.227  0.00  0.00    -0.027 C 
ATOM      2  C   LIG    1       22.355 -17.179   5.103  0.00  0.00    -0.027 C 
ENDROOT
BRANCH   1   3
ATOM      3  C   LIG    1       22.253 -19.785   4.370  0.00  0.00    +0.054 C 
BRANCH   3   5
ATOM      4  C   LIG    1       22.802 -21.543   6.078  0.00  0.00    -0.027 C 
ATOM      5  C   LIG    1       22.131 -21.127   4.991  0.00  0.00    -0.027 C 
BRANCH   4   6
ATOM      6  C   LIG    1       23.658 -20.752   7.012  0.00  0.00    +0.054 C 
BRANCH   6   8
ATOM      7  C   LIG    1       25.994 -20.434   5.738  0.00  0.00    -0.027 C 
ATOM      8  C   LIG    1       25.145 -20.592   6.777  0.00  0.00    -0.027 C 
BRANCH   7   9
ATOM      9  C   LIG    1       25.855 -20.293   4.231  0.00  0.00    +0.054 C 
BRANCH   9  11
ATOM     10  C   LIG    1       25.850 -17.719   3.475  0.00  0.00    -0.031 C 
ATOM     11  C   LIG    1       25.332 -18.950   3.728  0.00  0.00    -0.027 C 
BRANCH  10  13
ATOM     12  C   LIG    1       28.042 -17.817   4.656  0.00  0.00    +0.008 C 
ATOM     13  C   LIG    1       27.227 -17.103   3.607  0.00  0.00    +0.023 C 
ENDBRANCH  10  13
ENDBRANCH   9  11
ENDBRANCH   7   9
ENDBRANCH   6   8
ENDBRANCH   4   6
ENDBRANCH   3   5
ENDBRANCH   1   3
BRANCH   2  14
ATOM     14  C   LIG    1       22.684 -16.110   3.966  0.00  0.00    +0.054 C 
BRANCH  14  15
ATOM     15  C   LIG    1       23.420 -14.898   4.399  0.00  0.00    -0.027 C 
ATOM     16  C   LIG    1       23.580 -13.844   3.489  0.00  0.00    -0.027 C 
BRANCH  16  17
ATOM     17  C   LIG    1       24.224 -12.631   3.870  0.00  0.00    +0.054 C 
BRANCH  17  18
ATOM     18  C   LIG    1       25.163 -12.188   2.797  0.00  0.00    -0.027 C 
ATOM     19  C   LIG    1       26.323 -12.701   2.352  0.00  0.00    -0.030 C 
BRANCH  19  20
ATOM     20  C   LIG    1       27.141 -13.884   2.799  0.00  0.00    +0.038 C 
BRANCH  20  21
ATOM     21  C   LIG    1       28.347 -13.418   3.631  0.00  0.00    +0.124 C 
BRANCH  21  22
ATOM     22  C   LIG    1       28.054 -12.959   4.975  0.00  0.00    +0.305 C 
ATOM     23  O   LIG    1       27.064 -13.495   5.727  0.00  0.00    -0.251 OA
BRANCH  22  24
ATOM     24  O   LIG    1       28.840 -12.012   5.489  0.00  0.00    -0.481 OA
ATOM     25  H   LIG    1       29.757 -12.325   5.627  0.00  0.00    +0.295 HD
ENDBRANCH  22  24
ENDBRANCH  21  22
ENDBRANCH  20  21
ENDBRANCH  19  20
ENDBRANCH  17  18
ENDBRANCH  16  17
ENDBRANCH  14  15
ENDBRANCH   2  14
TORSDOF 15
ENDMDL
MODEL 4
REMARK VINA RESULT:      -4.7      1.744      5.768
REMARK  Name = *****
REMARK                            x       y       z     vdW  Elec       q    Type
REMARK                         _______ _______ _______ _____ _____    ______ ____
ROOT
ATOM      1  C   LIG    1       21.881 -18.706   4.077  0.00  0.00    -0.027 C 
ATOM      2  C   LIG    1       21.774 -20.069   4.232  0.00  0.00    -0.027 C 
ENDROOT
BRANCH   1   3
ATOM      3  C   LIG    1       22.795 -17.578   4.535  0.00  0.00    +0.054 C 
BRANCH   3   5
ATOM      4  C   LIG    1       22.693 -15.135   5.112  0.00  0.00    -0.027 C 
ATOM      5  C   LIG    1       22.228 -16.391   5.223  0.00  0.00    -0.027 C 
BRANCH   4   6
ATOM      6  C   LIG    1       23.725 -14.595   4.178  0.00  0.00    +0.054 C 
BRANCH   6   8
ATOM      7  C   LIG    1       24.428 -12.324   2.944  0.00  0.00    -0.027 C 
ATOM      8  C   LIG    1       23.752 -13.133   3.788  0.00  0.00    -0.027 C 
BRANCH   7   9
ATOM      9  C   LIG    1       25.513 -12.507   1.896  0.00  0.00    +0.054 C 
BRANCH   9  11
ATOM     10  C   LIG    1       27.466 -13.880   3.122  0.00  0.00    -0.031 C 
ATOM     11  C   LIG    1       26.533 -13.610   2.171  0.00  0.00    -0.027 C 
BRANCH  10  13
ATOM     12  C   LIG    1       27.151 -13.604   5.579  0.00  0.00    +0.008 C 
ATOM     13  C   LIG    1       27.940 -13.167   4.371  0.00  0.00    +0.023 C 
ENDBRANCH  10  13
ENDBRANCH   9  11
ENDBRANCH   7   9
ENDBRANCH   6   8
ENDBRANCH   4   6
ENDBRANCH   3   5
ENDBRANCH   1   3
BRANCH   2  14
ATOM     14  C   LIG    1       22.422 -21.237   5.102  0.00  0.00    +0.054 C 
BRANCH  14  15
ATOM     15  C   LIG    1       23.297 -20.812   6.221  0.00  0.00    -0.027 C 
ATOM     16  C   LIG    1       24.687 -20.849   6.043  0.00  0.00    -0.027 C 
BRANCH  16  17
ATOM     17  C   LIG    1       25.574 -20.394   7.061  0.00  0.00    +0.054 C 
BRANCH  17  18
ATOM     18  C   LIG    1       26.924 -21.006   6.878  0.00  0.00    -0.027 C 
ATOM     19  C   LIG    1       28.010 -20.596   6.200  0.00  0.00    -0.030 C 
BRANCH  19  20
ATOM     20  C   LIG    1       28.261 -19.394   5.327  0.00  0.00    +0.038 C 
BRANCH  20  21
ATOM     21  C   LIG    1       27.080 -19.170   4.369  0.00  0.00    +0.124 C 
BRANCH  21  22
ATOM     22  C   LIG    1       26.972 -17.845   3.791  0.00  0.00    +0.305 C 
ATOM     23  O   LIG    1       25.914 -17.464   3.036  0.00  0.00    -0.251 OA
BRANCH  22  24
ATOM     24  O   LIG    1       27.935 -16.966   4.074  0.00  0.00    -0.481 OA
ATOM     25  H   LIG    1       27.869 -16.156   3.529  0.00  0.00    +0.295 HD
ENDBRANCH  22  24
ENDBRANCH  21  22
ENDBRANCH  20  21
ENDBRANCH  19  20
ENDBRANCH  17  18
ENDBRANCH  16  17
ENDBRANCH  14  15
ENDBRANCH   2  14
TORSDOF 15
ENDMDL
MODEL 5
REMARK VINA RESULT:      -4.6      1.777      4.259
REMARK  Name = *****
REMARK                            x       y       z     vdW  Elec       q    Type
REMARK                         _______ _______ _______ _____ _____    ______ ____
ROOT
ATOM      1  C   LIG    1       25.674 -21.488   5.874  0.00  0.00    -0.027 C 
ATOM      2  C   LIG    1       24.302 -21.439   5.797  0.00  0.00    -0.027 C 
ENDROOT
BRANCH   1   3
ATOM      3  C   LIG    1       26.781 -20.973   6.785  0.00  0.00    +0.054 C 
BRANCH   3   5
ATOM      4  C   LIG    1       27.553 -19.213   5.167  0.00  0.00    -0.027 C 
ATOM      5  C   LIG    1       27.635 -19.839   6.353  0.00  0.00    -0.027 C 
BRANCH   4   6
ATOM      6  C   LIG    1       26.518 -19.357   4.100  0.00  0.00    +0.054 C 
BRANCH   6   8
ATOM      7  C   LIG    1       26.159 -16.828   3.290  0.00  0.00    -0.027 C 
ATOM      8  C   LIG    1       25.908 -18.149   3.421  0.00  0.00    -0.027 C 
BRANCH   7   9
ATOM      9  C   LIG    1       27.253 -15.878   3.750  0.00  0.00    +0.054 C 
BRANCH   9  11
ATOM     10  C   LIG    1       27.234 -13.618   5.196  0.00  0.00    -0.031 C 
ATOM     11  C   LIG    1       26.859 -14.872   4.829  0.00  0.00    -0.027 C 
BRANCH  10  13
ATOM     12  C   LIG    1       28.915 -13.128   3.423  0.00  0.00    +0.008 C 
ATOM     13  C   LIG    1       28.264 -12.631   4.690  0.00  0.00    +0.023 C 
ENDBRANCH  10  13
ENDBRANCH   9  11
ENDBRANCH   7   9
ENDBRANCH   6   8
ENDBRANCH   4   6
ENDBRANCH   3   5
ENDBRANCH   1   3
BRANCH   2  14
ATOM     14  C   LIG    1       23.081 -20.688   6.497  0.00  0.00    +0.054 C 
BRANCH  14  15
ATOM     15  C   LIG    1       22.694 -19.382   5.913  0.00  0.00    -0.027 C 
ATOM     16  C   LIG    1       22.578 -19.273   4.520  0.00  0.00    -0.027 C 
BRANCH  16  17
ATOM     17  C   LIG    1       22.149 -18.060   3.907  0.00  0.00    +0.054 C 
BRANCH  17  18
ATOM     18  C   LIG    1       22.180 -16.944   4.899  0.00  0.00    -0.027 C 
ATOM     19  C   LIG    1       22.744 -15.724   4.859  0.00  0.00    -0.030 C 
BRANCH  19  20
ATOM     20  C   LIG    1       23.599 -15.040   3.824  0.00  0.00    +0.038 C 
BRANCH  20  21
ATOM     21  C   LIG    1       23.705 -13.536   4.125  0.00  0.00    +0.124 C 
BRANCH  21  22
ATOM     22  C   LIG    1       24.218 -12.707   3.051  0.00  0.00    +0.305 C 
ATOM     23  O   LIG    1       25.249 -13.093   2.262  0.00  0.00    -0.251 OA
BRANCH  22  24
ATOM     24  O   LIG    1       23.598 -11.550   2.813  0.00  0.00    -0.481 OA
ATOM     25  H   LIG    1       24.049 -10.793   3.238  0.00  0.00    +0.295 HD
ENDBRANCH  22  24
ENDBRANCH  21  22
ENDBRANCH  20  21
ENDBRANCH  19  20
ENDBRANCH  17  18
ENDBRANCH  16  17
ENDBRANCH  14  15
ENDBRANCH   2  14
TORSDOF 15
ENDMDL
MODEL 6
REMARK VINA RESULT:      -4.6      1.931      4.959
REMARK  Name = *****
REMARK                            x       y       z     vdW  Elec       q    Type
REMARK                         _______ _______ _______ _____ _____    ______ ____
ROOT
ATOM      1  C   LIG    1       26.341 -19.681   4.108  0.00  0.00    -0.027 C 
ATOM      2  C   LIG    1       25.668 -18.756   3.345  0.00  0.00    -0.027 C 
ENDROOT
BRANCH   1   3
ATOM      3  C   LIG    1       27.190 -19.711   5.372  0.00  0.00    +0.054 C 
BRANCH   3   5
ATOM      4  C   LIG    1       26.036 -21.169   7.061  0.00  0.00    -0.027 C 
ATOM      5  C   LIG    1       27.103 -20.863   6.303  0.00  0.00    -0.027 C 
BRANCH   4   6
ATOM      6  C   LIG    1       24.665 -20.578   7.034  0.00  0.00    +0.054 C 
BRANCH   6   8
ATOM      7  C   LIG    1       22.724 -21.390   5.376  0.00  0.00    -0.027 C 
ATOM      8  C   LIG    1       23.481 -21.350   6.494  0.00  0.00    -0.027 C 
BRANCH   7   9
ATOM      9  C   LIG    1       22.722 -20.671   4.037  0.00  0.00    +0.054 C 
BRANCH   9  11
ATOM     10  C   LIG    1       21.593 -18.253   4.316  0.00  0.00    -0.031 C 
ATOM     11  C   LIG    1       21.712 -19.536   3.885  0.00  0.00    -0.027 C 
BRANCH  10  13
ATOM     12  C   LIG    1       22.634 -16.001   4.547  0.00  0.00    +0.008 C 
ATOM     13  C   LIG    1       22.435 -17.350   5.192  0.00  0.00    +0.023 C 
ENDBRANCH  10  13
ENDBRANCH   9  11
ENDBRANCH   7   9
ENDBRANCH   6   8
ENDBRANCH   4   6
ENDBRANCH   3   5
ENDBRANCH   1   3
BRANCH   2  14
ATOM     14  C   LIG    1       25.517 -17.173   3.226  0.00  0.00    +0.054 C 
BRANCH  14  15
ATOM     15  C   LIG    1       26.704 -16.371   3.609  0.00  0.00    -0.027 C 
ATOM     16  C   LIG    1       26.774 -15.032   3.201  0.00  0.00    -0.027 C 
BRANCH  16  17
ATOM     17  C   LIG    1       27.861 -14.196   3.592  0.00  0.00    +0.054 C 
BRANCH  17  18
ATOM     18  C   LIG    1       27.441 -13.294   4.705  0.00  0.00    -0.027 C 
ATOM     19  C   LIG    1       26.236 -13.025   5.236  0.00  0.00    -0.030 C 
BRANCH  19  20
ATOM     20  C   LIG    1       24.848 -13.491   4.878  0.00  0.00    +0.038 C 
BRANCH  20  21
ATOM     21  C   LIG    1       24.108 -12.407   4.079  0.00  0.00    +0.124 C 
BRANCH  21  22
ATOM     22  C   LIG    1       24.349 -12.394   2.649  0.00  0.00    +0.305 C 
ATOM     23  O   LIG    1       25.255 -11.571   2.071  0.00  0.00    -0.251 OA
BRANCH  22  24
ATOM     24  O   LIG    1       23.682 -13.276   1.902  0.00  0.00    -0.481 OA
ATOM     25  H   LIG    1       22.839 -13.551   2.316  0.00  0.00    +0.295 HD
ENDBRANCH  22  24
ENDBRANCH  21  22
ENDBRANCH  20  21
ENDBRANCH  19  20
ENDBRANCH  17  18
ENDBRANCH  16  17
ENDBRANCH  14  15
ENDBRANCH   2  14
TORSDOF 15
ENDMDL
MODEL 7
REMARK VINA RESULT:      -4.5      1.646      4.705
REMARK  Name = *****
REMARK                            x       y       z     vdW  Elec       q    Type
REMARK                         _______ _______ _______ _____ _____    ______ ____
ROOT
ATOM      1  C   LIG    1       25.673 -17.903   3.348  0.00  0.00    -0.027 C 
ATOM      2  C   LIG    1       24.828 -16.821   3.421  0.00  0.00    -0.027 C 
ENDROOT
BRANCH   1   3
ATOM      3  C   LIG    1       25.815 -19.280   3.982  0.00  0.00    +0.054 C 
BRANCH   3   5
ATOM      4  C   LIG    1       26.859 -20.377   5.987  0.00  0.00    -0.027 C 
ATOM      5  C   LIG    1       26.927 -19.557   4.925  0.00  0.00    -0.027 C 
BRANCH   4   6
ATOM      6  C   LIG    1       25.768 -21.321   6.375  0.00  0.00    +0.054 C 
BRANCH   6   8
ATOM      7  C   LIG    1       23.211 -20.550   6.586  0.00  0.00    -0.027 C 
ATOM      8  C   LIG    1       24.473 -20.827   6.982  0.00  0.00    -0.027 C 
BRANCH   7   9
ATOM      9  C   LIG    1       22.433 -20.646   5.285  0.00  0.00    +0.054 C 
BRANCH   9  11
ATOM     10  C   LIG    1       21.347 -18.704   3.787  0.00  0.00    -0.031 C 
ATOM     11  C   LIG    1       22.321 -19.359   4.472  0.00  0.00    -0.027 C 
BRANCH  10  13
ATOM     12  C   LIG    1       19.353 -18.036   2.450  0.00  0.00    +0.008 C 
ATOM     13  C   LIG    1       19.888 -18.983   3.496  0.00  0.00    +0.023 C 
ENDBRANCH  10  13
ENDBRANCH   9  11
ENDBRANCH   7   9
ENDBRANCH   6   8
ENDBRANCH   4   6
ENDBRANCH   3   5
ENDBRANCH   1   3
BRANCH   2  14
ATOM     14  C   LIG    1       23.618 -16.295   4.316  0.00  0.00    +0.054 C 
BRANCH  14  15
ATOM     15  C   LIG    1       23.398 -14.829   4.324  0.00  0.00    -0.027 C 
ATOM     16  C   LIG    1       23.920 -14.062   3.273  0.00  0.00    -0.027 C 
BRANCH  16  17
ATOM     17  C   LIG    1       23.687 -12.658   3.197  0.00  0.00    +0.054 C 
BRANCH  17  18
ATOM     18  C   LIG    1       24.094 -11.999   4.474  0.00  0.00    -0.027 C 
ATOM     19  C   LIG    1       25.137 -12.204   5.296  0.00  0.00    -0.030 C 
BRANCH  19  20
ATOM     20  C   LIG    1       26.261 -13.207   5.270  0.00  0.00    +0.038 C 
BRANCH  20  21
ATOM     21  C   LIG    1       27.122 -13.015   4.011  0.00  0.00    +0.124 C 
BRANCH  21  22
ATOM     22  C   LIG    1       27.420 -14.216   3.255  0.00  0.00    +0.305 C 
ATOM     23  O   LIG    1       27.073 -14.361   1.954  0.00  0.00    -0.251 OA
BRANCH  22  24
ATOM     24  O   LIG    1       28.113 -15.177   3.868  0.00  0.00    -0.481 OA
ATOM     25  H   LIG    1       27.535 -15.795   4.359  0.00  0.00    +0.295 HD
ENDBRANCH  22  24
ENDBRANCH  21  22
ENDBRANCH  20  21
ENDBRANCH  19  20
ENDBRANCH  17  18
ENDBRANCH  16  17
ENDBRANCH  14  15
ENDBRANCH   2  14
TORSDOF 15
ENDMDL
MODEL 8
REMARK VINA RESULT:      -4.3      1.804      5.116
REMARK  Name = *****
REMARK                            x       y       z     vdW  Elec       q    Type
REMARK                         _______ _______ _______ _____ _____    ______ ____
ROOT
ATOM      1  C   LIG    1       28.544 -21.065   6.435  0.00  0.00    -0.027 C 
ATOM      2  C   LIG    1       29.371 -19.991   6.207  0.00  0.00    -0.027 C 
ENDROOT
BRANCH   1   3
ATOM      3  C   LIG    1       27.071 -21.325   6.725  0.00  0.00    +0.054 C 
BRANCH   3   5
ATOM      4  C   LIG    1       24.824 -20.235   6.994  0.00  0.00    -0.027 C 
ATOM      5  C   LIG    1       26.166 -20.198   7.057  0.00  0.00    -0.027 C 
BRANCH   4   6
ATOM      6  C   LIG    1       23.928 -21.408   6.766  0.00  0.00    +0.054 C 
BRANCH   6   8
ATOM      7  C   LIG    1       23.269 -21.235   4.175  0.00  0.00    -0.027 C 
ATOM      8  C   LIG    1       23.150 -21.572   5.479  0.00  0.00    -0.027 C 
BRANCH   7   9
ATOM      9  C   LIG    1       24.314 -20.532   3.324  0.00  0.00    +0.054 C 
BRANCH   9  11
ATOM     10  C   LIG    1       23.745 -18.028   4.104  0.00  0.00    -0.031 C 
ATOM     11  C   LIG    1       24.488 -19.036   3.575  0.00  0.00    -0.027 C 
BRANCH  10  13
ATOM     12  C   LIG    1       21.338 -18.578   3.768  0.00  0.00    +0.008 C 
ATOM     13  C   LIG    1       22.349 -17.935   4.683  0.00  0.00    +0.023 C 
ENDBRANCH  10  13
ENDBRANCH   9  11
ENDBRANCH   7   9
ENDBRANCH   6   8
ENDBRANCH   4   6
ENDBRANCH   3   5
ENDBRANCH   1   3
BRANCH   2  14
ATOM     14  C   LIG    1       29.326 -18.398   6.278  0.00  0.00    +0.054 C 
BRANCH  14  15
ATOM     15  C   LIG    1       29.090 -17.692   4.996  0.00  0.00    -0.027 C 
ATOM     16  C   LIG    1       27.827 -17.135   4.755  0.00  0.00    -0.027 C 
BRANCH  16  17
ATOM     17  C   LIG    1       27.561 -16.391   3.568  0.00  0.00    +0.054 C 
BRANCH  17  18
ATOM     18  C   LIG    1       27.513 -14.931   3.875  0.00  0.00    -0.027 C 
ATOM     19  C   LIG    1       26.769 -13.932   3.370  0.00  0.00    -0.030 C 
BRANCH  19  20
ATOM     20  C   LIG    1       25.740 -13.896   2.270  0.00  0.00    +0.038 C 
BRANCH  20  21
ATOM     21  C   LIG    1       24.479 -13.153   2.740  0.00  0.00    +0.124 C 
BRANCH  21  22
ATOM     22  C   LIG    1       24.146 -13.290   4.145  0.00  0.00    +0.305 C 
ATOM     23  O   LIG    1       23.761 -14.469   4.690  0.00  0.00    -0.251 OA
BRANCH  22  24
ATOM     24  O   LIG    1       24.286 -12.215   4.922  0.00  0.00    -0.481 OA
ATOM     25  H   LIG    1       24.436 -11.399   4.402  0.00  0.00    +0.295 HD
ENDBRANCH  22  24
ENDBRANCH  21  22
ENDBRANCH  20  21
ENDBRANCH  19  20
ENDBRANCH  17  18
ENDBRANCH  16  17
ENDBRANCH  14  15
ENDBRANCH   2  14
TORSDOF 15
ENDMDL
MODEL 9
REMARK VINA RESULT:      -4.2      1.756      3.066
REMARK  Name = *****
REMARK                            x       y       z     vdW  Elec       q    Type
REMARK                         _______ _______ _______ _____ _____    ______ ____
ROOT
ATOM      1  C   LIG    1       22.607 -18.184   3.922  0.00  0.00    -0.027 C 
ATOM      2  C   LIG    1       23.274 -17.067   4.366  0.00  0.00    -0.027 C 
ENDROOT
BRANCH   1   3
ATOM      3  C   LIG    1       21.203 -18.566   3.473  0.00  0.00    +0.054 C 
BRANCH   3   5
ATOM      4  C   LIG    1       21.329 -20.917   4.350  0.00  0.00    -0.027 C 
ATOM      5  C   LIG    1       20.632 -19.883   3.849  0.00  0.00    -0.027 C 
BRANCH   4   6
ATOM      6  C   LIG    1       22.748 -20.955   4.813  0.00  0.00    +0.054 C 
BRANCH   6   8
ATOM      7  C   LIG    1       24.179 -20.680   7.062  0.00  0.00    -0.027 C 
ATOM      8  C   LIG    1       23.133 -20.542   6.218  0.00  0.00    -0.027 C 
BRANCH   7   9
ATOM      9  C   LIG    1       25.559 -21.312   6.990  0.00  0.00    +0.054 C 
BRANCH   9  11
ATOM     10  C   LIG    1       27.792 -20.252   5.946  0.00  0.00    -0.031 C 
ATOM     11  C   LIG    1       26.516 -20.720   5.958  0.00  0.00    -0.027 C 
BRANCH  10  13
ATOM     12  C   LIG    1       29.344 -18.654   7.062  0.00  0.00    +0.008 C 
ATOM     13  C   LIG    1       28.866 -20.083   6.999  0.00  0.00    +0.023 C 
ENDBRANCH  10  13
ENDBRANCH   9  11
ENDBRANCH   7   9
ENDBRANCH   6   8
ENDBRANCH   4   6
ENDBRANCH   3   5
ENDBRANCH   1   3
BRANCH   2  14
ATOM     14  C   LIG    1       22.952 -15.577   4.834  0.00  0.00    +0.054 C 
BRANCH  14  15
ATOM     15  C   LIG    1       23.263 -14.503   3.860  0.00  0.00    -0.027 C 
ATOM     16  C   LIG    1       24.153 -13.488   4.236  0.00  0.00    -0.027 C 
BRANCH  16  17
ATOM     17  C   LIG    1       24.536 -12.464   3.321  0.00  0.00    +0.054 C 
BRANCH  17  18
ATOM     18  C   LIG    1       25.233 -13.062   2.143  0.00  0.00    -0.027 C 
ATOM     19  C   LIG    1       26.409 -13.703   2.028  0.00  0.00    -0.030 C 
BRANCH  19  20
ATOM     20  C   LIG    1       27.492 -14.015   3.028  0.00  0.00    +0.038 C 
BRANCH  20  21
ATOM     21  C   LIG    1       28.004 -12.723   3.685  0.00  0.00    +0.124 C 
BRANCH  21  22
ATOM     22  C   LIG    1       28.092 -12.738   5.133  0.00  0.00    +0.305 C 
ATOM     23  O   LIG    1       27.274 -13.493   5.904  0.00  0.00    -0.251 OA
BRANCH  22  24
ATOM     24  O   LIG    1       29.060 -12.016   5.700  0.00  0.00    -0.481 OA
ATOM     25  H   LIG    1       28.769 -11.595   6.534  0.00  0.00    +0.295 HD
ENDBRANCH  22  24
ENDBRANCH  21  22
ENDBRANCH  20  21
ENDBRANCH  19  20
ENDBRANCH  17  18
ENDBRANCH  16  17
ENDBRANCH  14  15
ENDBRANCH   2  14
TORSDOF 15
ENDMDL
