MODEL 1
REMARK VINA RESULT:      -6.0      0.000      0.000
REMARK  Name = *****
REMARK                            x       y       z     vdW  Elec       q    Type
REMARK                         _______ _______ _______ _____ _____    ______ ____
ROOT
ATOM      1  O   LIG    1       25.772 -18.796   3.689  0.00  0.00    -0.489 OA
ENDROOT
BRANCH   1   3
ATOM      2  C   LIG    1       24.744 -20.450   5.077  0.00  0.00    -0.002 A 
ATOM      3  C   LIG    1       24.623 -19.307   4.263  0.00  0.00    +0.124 A 
ATOM      4  C   LIG    1       23.345 -18.793   3.998  0.00  0.00    +0.046 A 
ATOM      5  C   LIG    1       22.200 -19.412   4.507  0.00  0.00    +0.004 A 
ATOM      6  C   LIG    1       22.311 -20.584   5.244  0.00  0.00    +0.001 A 
ATOM      7  C   LIG    1       23.574 -21.103   5.524  0.00  0.00    +0.007 A 
BRANCH   2   8
ATOM      8  C   LIG    1       26.093 -20.996   5.492  0.00  0.00    +0.065 C 
BRANCH   8  10
ATOM      9  C   LIG    1       27.917 -20.102   7.057  0.00  0.00    +0.004 C 
ATOM     10  C   LIG    1       26.664 -20.450   6.787  0.00  0.00    -0.030 C 
ENDBRANCH   8  10
ENDBRANCH   2   8
ENDBRANCH   1   3
BRANCH   1  11
ATOM     11  C   LIG    1       25.681 -17.410   3.303  0.00  0.00    +0.261 C 
BRANCH  11  12
ATOM     12  C   LIG    1       27.069 -16.736   3.300  0.00  0.00    +0.166 C 
BRANCH  12  13
ATOM     13  O   LIG    1       27.957 -17.378   4.224  0.00  0.00    -0.387 OA
ATOM     14  H   LIG    1       27.711 -18.323   4.207  0.00  0.00    +0.210 HD
ENDBRANCH  12  13
BRANCH  12  15
ATOM     15  C   LIG    1       26.972 -15.214   3.620  0.00  0.00    +0.115 C 
BRANCH  15  16
ATOM     16  N   LIG    1       26.286 -14.413   2.582  0.00  0.00    -0.311 NA
ATOM     17  H   LIG    1       25.761 -15.069   1.995  0.00  0.00    +0.122 HD
BRANCH  16  18
ATOM     18  C   LIG    1       25.365 -13.398   3.133  0.00  0.00    +0.048 C 
ATOM     19  C   LIG    1       24.269 -14.062   3.979  0.00  0.00    +0.024 C 
ATOM     20  C   LIG    1       24.694 -12.564   2.036  0.00  0.00    +0.024 C 
ENDBRANCH  16  18
ENDBRANCH  15  16
ENDBRANCH  12  15
ENDBRANCH  11  12
ENDBRANCH   1  11
TORSDOF 9
ENDMDL
MODEL 2
REMARK VINA RESULT:      -5.9      0.808      2.780
REMARK  Name = *****
REMARK                            x       y       z     vdW  Elec       q    Type
REMARK                         _______ _______ _______ _____ _____    ______ ____
ROOT
ATOM      1  O   LIG    1       25.780 -19.049   3.402  0.00  0.00    -0.489 OA
ENDROOT
BRANCH   1   3
ATOM      2  C   LIG    1       24.282 -20.113   4.934  0.00  0.00    -0.002 A 
ATOM      3  C   LIG    1       25.599 -19.770   4.568  0.00  0.00    +0.124 A 
ATOM      4  C   LIG    1       26.651 -20.091   5.437  0.00  0.00    +0.046 A 
ATOM      5  C   LIG    1       26.408 -20.719   6.662  0.00  0.00    +0.004 A 
ATOM      6  C   LIG    1       25.105 -20.987   7.060  0.00  0.00    +0.001 A 
ATOM      7  C   LIG    1       24.048 -20.682   6.205  0.00  0.00    +0.007 A 
BRANCH   2   8
ATOM      8  C   LIG    1       23.112 -19.894   4.000  0.00  0.00    +0.065 C 
BRANCH   8  10
ATOM      9  C   LIG    1       22.230 -17.561   4.595  0.00  0.00    +0.004 C 
ATOM     10  C   LIG    1       22.083 -18.872   4.448  0.00  0.00    -0.030 C 
ENDBRANCH   8  10
ENDBRANCH   2   8
ENDBRANCH   1   3
BRANCH   1  11
ATOM     11  C   LIG    1       25.637 -17.623   3.554  0.00  0.00    +0.261 C 
BRANCH  11  12
ATOM     12  C   LIG    1       26.983 -16.898   3.347  0.00  0.00    +0.166 C 
BRANCH  12  13
ATOM     13  O   LIG    1       28.014 -17.486   4.150  0.00  0.00    -0.387 OA
ATOM     14  H   LIG    1       27.613 -17.621   5.030  0.00  0.00    +0.210 HD
ENDBRANCH  12  13
BRANCH  12  15
ATOM     15  C   LIG    1       26.871 -15.374   3.651  0.00  0.00    +0.115 C 
BRANCH  15  16
ATOM     16  N   LIG    1       26.236 -14.580   2.576  0.00  0.00    -0.311 NA
ATOM     17  H   LIG    1       25.738 -15.240   1.970  0.00  0.00    +0.122 HD
BRANCH  16  18
ATOM     18  C   LIG    1       25.293 -13.559   3.074  0.00  0.00    +0.048 C 
ATOM     19  C   LIG    1       24.199 -14.205   3.936  0.00  0.00    +0.024 C 
ATOM     20  C   LIG    1       24.620 -12.783   1.936  0.00  0.00    +0.024 C 
ENDBRANCH  16  18
ENDBRANCH  15  16
ENDBRANCH  12  15
ENDBRANCH  11  12
ENDBRANCH   1  11
TORSDOF 9
ENDMDL
MODEL 3
REMARK VINA RESULT:      -5.8      1.319      3.214
REMARK  Name = *****
REMARK                            x       y       z     vdW  Elec       q    Type
REMARK                         _______ _______ _______ _____ _____    ______ ____
ROOT
ATOM      1  O   LIG    1       25.581 -19.232   3.445  0.00  0.00    -0.489 OA
ENDROOT
BRANCH   1   3
ATOM      2  C   LIG    1       24.767 -20.726   5.127  0.00  0.00    -0.002 A 
ATOM      3  C   LIG    1       25.827 -19.971   4.587  0.00  0.00    +0.124 A 
ATOM      4  C   LIG    1       27.049 -19.928   5.274  0.00  0.00    +0.046 A 
ATOM      5  C   LIG    1       27.216 -20.600   6.489  0.00  0.00    +0.004 A 
ATOM      6  C   LIG    1       26.150 -21.279   7.062  0.00  0.00    +0.001 A 
ATOM      7  C   LIG    1       24.931 -21.338   6.389  0.00  0.00    +0.007 A 
BRANCH   2   8
ATOM      8  C   LIG    1       23.458 -20.903   4.388  0.00  0.00    +0.065 C 
BRANCH   8  10
ATOM      9  C   LIG    1       22.113 -18.726   4.551  0.00  0.00    +0.004 C 
ATOM     10  C   LIG    1       22.316 -20.008   4.831  0.00  0.00    -0.030 C 
ENDBRANCH   8  10
ENDBRANCH   2   8
ENDBRANCH   1   3
BRANCH   1  11
ATOM     11  C   LIG    1       25.219 -17.859   3.689  0.00  0.00    +0.261 C 
BRANCH  11  12
ATOM     12  C   LIG    1       26.287 -16.890   3.139  0.00  0.00    +0.166 C 
BRANCH  12  13
ATOM     13  O   LIG    1       27.554 -17.107   3.772  0.00  0.00    -0.387 OA
ATOM     14  H   LIG    1       28.212 -17.077   3.052  0.00  0.00    +0.210 HD
ENDBRANCH  12  13
BRANCH  12  15
ATOM     15  C   LIG    1       25.855 -15.402   3.301  0.00  0.00    +0.115 C 
BRANCH  15  16
ATOM     16  N   LIG    1       26.814 -14.423   2.743  0.00  0.00    -0.311 NA
ATOM     17  H   LIG    1       26.371 -14.005   1.919  0.00  0.00    +0.122 HD
BRANCH  16  18
ATOM     18  C   LIG    1       27.192 -13.358   3.694  0.00  0.00    +0.048 C 
ATOM     19  C   LIG    1       28.716 -13.186   3.738  0.00  0.00    +0.024 C 
ATOM     20  C   LIG    1       26.694 -13.645   5.116  0.00  0.00    +0.024 C 
ENDBRANCH  16  18
ENDBRANCH  15  16
ENDBRANCH  12  15
ENDBRANCH  11  12
ENDBRANCH   1  11
TORSDOF 9
ENDMDL
MODEL 4
REMARK VINA RESULT:      -5.7      1.091      1.434
REMARK  Name = *****
REMARK                            x       y       z     vdW  Elec       q    Type
REMARK                         _______ _______ _______ _____ _____    ______ ____
ROOT
ATOM      1  O   LIG    1       25.758 -19.397   4.308  0.00  0.00    -0.489 OA
ENDROOT
BRANCH   1   3
ATOM      2  C   LIG    1       25.103 -20.515   6.319  0.00  0.00    -0.002 A 
ATOM      3  C   LIG    1       24.769 -20.028   5.040  0.00  0.00    +0.124 A 
ATOM      4  C   LIG    1       23.487 -20.279   4.531  0.00  0.00    +0.046 A 
ATOM      5  C   LIG    1       22.555 -21.023   5.261  0.00  0.00    +0.004 A 
ATOM      6  C   LIG    1       22.908 -21.571   6.487  0.00  0.00    +0.001 A 
ATOM      7  C   LIG    1       24.175 -21.324   7.011  0.00  0.00    +0.007 A 
BRANCH   2   8
ATOM      8  C   LIG    1       26.428 -20.192   6.975  0.00  0.00    +0.065 C 
BRANCH   8  10
ATOM      9  C   LIG    1       28.849 -20.993   6.708  0.00  0.00    +0.004 C 
ATOM     10  C   LIG    1       27.539 -21.204   6.769  0.00  0.00    -0.030 C 
ENDBRANCH   8  10
ENDBRANCH   2   8
ENDBRANCH   1   3
BRANCH   1  11
ATOM     11  C   LIG    1       25.295 -18.290   3.510  0.00  0.00    +0.261 C 
BRANCH  11  12
ATOM     12  C   LIG    1       26.430 -17.282   3.234  0.00  0.00    +0.166 C 
BRANCH  12  13
ATOM     13  O   LIG    1       27.562 -17.538   4.074  0.00  0.00    -0.387 OA
ATOM     14  H   LIG    1       28.181 -18.057   3.526  0.00  0.00    +0.210 HD
ENDBRANCH  12  13
BRANCH  12  15
ATOM     15  C   LIG    1       25.951 -15.810   3.414  0.00  0.00    +0.115 C 
BRANCH  15  16
ATOM     16  N   LIG    1       26.625 -14.836   2.527  0.00  0.00    -0.311 NA
ATOM     17  H   LIG    1       26.128 -14.851   1.631  0.00  0.00    +0.122 HD
BRANCH  16  18
ATOM     18  C   LIG    1       26.636 -13.459   3.063  0.00  0.00    +0.048 C 
ATOM     19  C   LIG    1       27.215 -13.435   4.484  0.00  0.00    +0.024 C 
ATOM     20  C   LIG    1       25.235 -12.837   3.098  0.00  0.00    +0.024 C 
ENDBRANCH  16  18
ENDBRANCH  15  16
ENDBRANCH  12  15
ENDBRANCH  11  12
ENDBRANCH   1  11
TORSDOF 9
ENDMDL
MODEL 5
REMARK VINA RESULT:      -5.3      2.494      6.227
REMARK  Name = *****
REMARK                            x       y       z     vdW  Elec       q    Type
REMARK                         _______ _______ _______ _____ _____    ______ ____
ROOT
ATOM      1  O   LIG    1       26.223 -16.815   3.313  0.00  0.00    -0.489 OA
ENDROOT
BRANCH   1   3
ATOM      2  C   LIG    1       25.910 -14.445   3.384  0.00  0.00    -0.002 A 
ATOM      3  C   LIG    1       25.388 -15.741   3.561  0.00  0.00    +0.124 A 
ATOM      4  C   LIG    1       24.087 -15.887   4.063  0.00  0.00    +0.046 A 
ATOM      5  C   LIG    1       23.319 -14.772   4.409  0.00  0.00    +0.004 A 
ATOM      6  C   LIG    1       23.859 -13.497   4.310  0.00  0.00    +0.001 A 
ATOM      7  C   LIG    1       25.148 -13.333   3.806  0.00  0.00    +0.007 A 
BRANCH   2   8
ATOM      8  C   LIG    1       27.263 -14.209   2.749  0.00  0.00    +0.065 C 
BRANCH   8  10
ATOM      9  C   LIG    1       28.751 -12.587   4.064  0.00  0.00    +0.004 C 
ATOM     10  C   LIG    1       28.382 -13.808   3.691  0.00  0.00    -0.030 C 
ENDBRANCH   8  10
ENDBRANCH   2   8
ENDBRANCH   1   3
BRANCH   1  11
ATOM     11  C   LIG    1       25.540 -18.027   2.935  0.00  0.00    +0.261 C 
BRANCH  11  12
ATOM     12  C   LIG    1       25.505 -19.038   4.099  0.00  0.00    +0.166 C 
BRANCH  12  13
ATOM     13  O   LIG    1       26.828 -19.451   4.464  0.00  0.00    -0.387 OA
ATOM     14  H   LIG    1       27.220 -18.686   4.926  0.00  0.00    +0.210 HD
ENDBRANCH  12  13
BRANCH  12  15
ATOM     15  C   LIG    1       24.631 -20.282   3.757  0.00  0.00    +0.115 C 
BRANCH  15  16
ATOM     16  N   LIG    1       24.565 -21.297   4.832  0.00  0.00    -0.311 NA
ATOM     17  H   LIG    1       25.366 -21.133   5.450  0.00  0.00    +0.122 HD
BRANCH  16  18
ATOM     18  C   LIG    1       23.315 -21.242   5.618  0.00  0.00    +0.048 C 
ATOM     19  C   LIG    1       22.305 -20.288   4.966  0.00  0.00    +0.024 C 
ATOM     20  C   LIG    1       23.555 -20.784   7.062  0.00  0.00    +0.024 C 
ENDBRANCH  16  18
ENDBRANCH  15  16
ENDBRANCH  12  15
ENDBRANCH  11  12
ENDBRANCH   1  11
TORSDOF 9
ENDMDL
MODEL 6
REMARK VINA RESULT:      -5.3      2.372      6.567
REMARK  Name = *****
REMARK                            x       y       z     vdW  Elec       q    Type
REMARK                         _______ _______ _______ _____ _____    ______ ____
ROOT
ATOM      1  O   LIG    1       25.464 -16.636   3.056  0.00  0.00    -0.489 OA
ENDROOT
BRANCH   1   3
ATOM      2  C   LIG    1       25.169 -14.396   3.839  0.00  0.00    -0.002 A 
ATOM      3  C   LIG    1       26.025 -15.482   3.569  0.00  0.00    +0.124 A 
ATOM      4  C   LIG    1       27.406 -15.318   3.746  0.00  0.00    +0.046 A 
ATOM      5  C   LIG    1       27.940 -14.094   4.158  0.00  0.00    +0.004 A 
ATOM      6  C   LIG    1       27.107 -13.000   4.348  0.00  0.00    +0.001 A 
ATOM      7  C   LIG    1       25.730 -13.147   4.185  0.00  0.00    +0.007 A 
BRANCH   2   8
ATOM      8  C   LIG    1       23.663 -14.531   3.773  0.00  0.00    +0.065 C 
BRANCH   8  10
ATOM      9  C   LIG    1       22.168 -16.229   4.979  0.00  0.00    +0.004 C 
ATOM     10  C   LIG    1       23.000 -15.193   4.965  0.00  0.00    -0.030 C 
ENDBRANCH   8  10
ENDBRANCH   2   8
ENDBRANCH   1   3
BRANCH   1  11
ATOM     11  C   LIG    1       26.207 -17.838   3.340  0.00  0.00    +0.261 C 
BRANCH  11  12
ATOM     12  C   LIG    1       25.280 -19.069   3.410  0.00  0.00    +0.166 C 
BRANCH  12  13
ATOM     13  O   LIG    1       23.929 -18.682   3.686  0.00  0.00    -0.387 OA
ATOM     14  H   LIG    1       23.790 -18.879   4.632  0.00  0.00    +0.210 HD
ENDBRANCH  12  13
BRANCH  12  15
ATOM     15  C   LIG    1       25.769 -20.102   4.469  0.00  0.00    +0.115 C 
BRANCH  15  16
ATOM     16  N   LIG    1       24.867 -21.259   4.657  0.00  0.00    -0.311 NA
ATOM     17  H   LIG    1       25.377 -22.091   4.345  0.00  0.00    +0.122 HD
BRANCH  16  18
ATOM     18  C   LIG    1       24.427 -21.444   6.055  0.00  0.00    +0.048 C 
ATOM     19  C   LIG    1       23.032 -20.840   6.269  0.00  0.00    +0.024 C 
ATOM     20  C   LIG    1       25.394 -20.804   7.059  0.00  0.00    +0.024 C 
ENDBRANCH  16  18
ENDBRANCH  15  16
ENDBRANCH  12  15
ENDBRANCH  11  12
ENDBRANCH   1  11
TORSDOF 9
ENDMDL
MODEL 7
REMARK VINA RESULT:      -5.2      2.511      6.388
REMARK  Name = *****
REMARK                            x       y       z     vdW  Elec       q    Type
REMARK                         _______ _______ _______ _____ _____    ______ ____
ROOT
ATOM      1  O   LIG    1       25.177 -16.906   3.306  0.00  0.00    -0.489 OA
ENDROOT
BRANCH   1   3
ATOM      2  C   LIG    1       25.101 -14.557   3.749  0.00  0.00    -0.002 A 
ATOM      3  C   LIG    1       25.854 -15.739   3.611  0.00  0.00    +0.124 A 
ATOM      4  C   LIG    1       27.252 -15.670   3.699  0.00  0.00    +0.046 A 
ATOM      5  C   LIG    1       27.901 -14.447   3.895  0.00  0.00    +0.004 A 
ATOM      6  C   LIG    1       27.167 -13.270   3.953  0.00  0.00    +0.001 A 
ATOM      7  C   LIG    1       25.777 -13.322   3.875  0.00  0.00    +0.007 A 
BRANCH   2   8
ATOM      8  C   LIG    1       23.588 -14.572   3.771  0.00  0.00    +0.065 C 
BRANCH   8  10
ATOM      9  C   LIG    1       22.151 -16.332   4.959  0.00  0.00    +0.004 C 
ATOM     10  C   LIG    1       22.945 -15.267   4.956  0.00  0.00    -0.030 C 
ENDBRANCH   8  10
ENDBRANCH   2   8
ENDBRANCH   1   3
BRANCH   1  11
ATOM     11  C   LIG    1       26.017 -18.072   3.200  0.00  0.00    +0.261 C 
BRANCH  11  12
ATOM     12  C   LIG    1       25.535 -19.199   4.137  0.00  0.00    +0.166 C 
BRANCH  12  13
ATOM     13  O   LIG    1       26.616 -20.064   4.503  0.00  0.00    -0.387 OA
ATOM     14  H   LIG    1       26.557 -20.158   5.473  0.00  0.00    +0.210 HD
ENDBRANCH  12  13
BRANCH  12  15
ATOM     15  C   LIG    1       24.379 -20.026   3.498  0.00  0.00    +0.115 C 
BRANCH  15  16
ATOM     16  N   LIG    1       24.026 -21.257   4.240  0.00  0.00    -0.311 NA
ATOM     17  H   LIG    1       24.867 -21.558   4.740  0.00  0.00    +0.122 HD
BRANCH  16  18
ATOM     18  C   LIG    1       22.920 -21.069   5.201  0.00  0.00    +0.048 C 
ATOM     19  C   LIG    1       22.049 -19.871   4.799  0.00  0.00    +0.024 C 
ATOM     20  C   LIG    1       23.424 -20.845   6.632  0.00  0.00    +0.024 C 
ENDBRANCH  16  18
ENDBRANCH  15  16
ENDBRANCH  12  15
ENDBRANCH  11  12
ENDBRANCH   1  11
TORSDOF 9
ENDMDL
MODEL 8
REMARK VINA RESULT:      -4.8      2.262      6.360
REMARK  Name = *****
REMARK                            x       y       z     vdW  Elec       q    Type
REMARK                         _______ _______ _______ _____ _____    ______ ____
ROOT
ATOM      1  O   LIG    1       26.110 -16.440   2.966  0.00  0.00    -0.489 OA
ENDROOT
BRANCH   1   3
ATOM      2  C   LIG    1       26.456 -14.338   4.054  0.00  0.00    -0.002 A 
ATOM      3  C   LIG    1       25.569 -15.298   3.529  0.00  0.00    +0.124 A 
ATOM      4  C   LIG    1       24.189 -15.103   3.677  0.00  0.00    +0.046 A 
ATOM      5  C   LIG    1       23.688 -13.988   4.356  0.00  0.00    +0.004 A 
ATOM      6  C   LIG    1       24.560 -13.080   4.942  0.00  0.00    +0.001 A 
ATOM      7  C   LIG    1       25.935 -13.255   4.798  0.00  0.00    +0.007 A 
BRANCH   2   8
ATOM      8  C   LIG    1       27.951 -14.429   3.838  0.00  0.00    +0.065 C 
BRANCH   8  10
ATOM      9  C   LIG    1       29.044 -12.196   4.464  0.00  0.00    +0.004 C 
ATOM     10  C   LIG    1       28.670 -13.118   3.584  0.00  0.00    -0.030 C 
ENDBRANCH   8  10
ENDBRANCH   2   8
ENDBRANCH   1   3
BRANCH   1  11
ATOM     11  C   LIG    1       26.071 -17.601   3.819  0.00  0.00    +0.261 C 
BRANCH  11  12
ATOM     12  C   LIG    1       25.030 -18.627   3.323  0.00  0.00    +0.166 C 
BRANCH  12  13
ATOM     13  O   LIG    1       23.702 -18.229   3.682  0.00  0.00    -0.387 OA
ATOM     14  H   LIG    1       23.266 -17.989   2.842  0.00  0.00    +0.210 HD
ENDBRANCH  12  13
BRANCH  12  15
ATOM     15  C   LIG    1       25.325 -20.058   3.866  0.00  0.00    +0.115 C 
BRANCH  15  16
ATOM     16  N   LIG    1       26.566 -20.165   4.666  0.00  0.00    -0.311 NA
ATOM     17  H   LIG    1       26.886 -19.210   4.852  0.00  0.00    +0.122 HD
BRANCH  16  18
ATOM     18  C   LIG    1       26.384 -20.883   5.943  0.00  0.00    +0.048 C 
ATOM     19  C   LIG    1       24.922 -20.804   6.406  0.00  0.00    +0.024 C 
ATOM     20  C   LIG    1       27.277 -20.326   7.058  0.00  0.00    +0.024 C 
ENDBRANCH  16  18
ENDBRANCH  15  16
ENDBRANCH  12  15
ENDBRANCH  11  12
ENDBRANCH   1  11
TORSDOF 9
ENDMDL
MODEL 9
REMARK VINA RESULT:      -4.4      1.455      3.465
REMARK  Name = *****
REMARK                            x       y       z     vdW  Elec       q    Type
REMARK                         _______ _______ _______ _____ _____    ______ ____
ROOT
ATOM      1  O   LIG    1       27.284 -17.719   3.941  0.00  0.00    -0.489 OA
ENDROOT
BRANCH   1   3
ATOM      2  C   LIG    1       26.354 -19.687   4.933  0.00  0.00    -0.002 A 
ATOM      3  C   LIG    1       27.439 -18.800   4.789  0.00  0.00    +0.124 A 
ATOM      4  C   LIG    1       28.587 -18.997   5.570  0.00  0.00    +0.046 A 
ATOM      5  C   LIG    1       28.655 -20.039   6.500  0.00  0.00    +0.004 A 
ATOM      6  C   LIG    1       27.558 -20.866   6.700  0.00  0.00    +0.001 A 
ATOM      7  C   LIG    1       26.412 -20.689   5.927  0.00  0.00    +0.007 A 
BRANCH   2   8
ATOM      8  C   LIG    1       25.129 -19.599   4.049  0.00  0.00    +0.065 C 
BRANCH   8  10
ATOM      9  C   LIG    1       22.822 -19.766   5.157  0.00  0.00    +0.004 C 
ATOM     10  C   LIG    1       23.885 -20.298   4.563  0.00  0.00    -0.030 C 
ENDBRANCH   8  10
ENDBRANCH   2   8
ENDBRANCH   1   3
BRANCH   1  11
ATOM     11  C   LIG    1       27.893 -16.500   4.411  0.00  0.00    +0.261 C 
BRANCH  11  12
ATOM     12  C   LIG    1       27.450 -15.289   3.565  0.00  0.00    +0.166 C 
BRANCH  12  13
ATOM     13  O   LIG    1       27.925 -14.061   4.133  0.00  0.00    -0.387 OA
ATOM     14  H   LIG    1       28.819 -13.932   3.762  0.00  0.00    +0.210 HD
ENDBRANCH  12  13
BRANCH  12  15
ATOM     15  C   LIG    1       25.902 -15.237   3.396  0.00  0.00    +0.115 C 
BRANCH  15  16
ATOM     16  N   LIG    1       25.375 -13.916   2.986  0.00  0.00    -0.311 NA
ATOM     17  H   LIG    1       25.302 -13.926   1.965  0.00  0.00    +0.122 HD
BRANCH  16  18
ATOM     18  C   LIG    1       24.058 -13.598   3.574  0.00  0.00    +0.048 C 
ATOM     19  C   LIG    1       24.169 -12.417   4.548  0.00  0.00    +0.024 C 
ATOM     20  C   LIG    1       23.451 -14.790   4.323  0.00  0.00    +0.024 C 
ENDBRANCH  16  18
ENDBRANCH  15  16
ENDBRANCH  12  15
ENDBRANCH  11  12
ENDBRANCH   1  11
TORSDOF 9
ENDMDL
