MODEL 1
REMARK VINA RESULT:      -5.0      0.000      0.000
REMARK  Name = *****
REMARK                            x       y       z     vdW  Elec       q    Type
REMARK                         _______ _______ _______ _____ _____    ______ ____
ROOT
ATOM      1  C   LIG    1       25.662 -19.471   4.249  0.00  0.00    +0.095 C 
ENDROOT
BRANCH   1   2
ATOM      2  C   LIG    1       24.322 -19.276   5.101  0.00  0.00    +0.025 C 
ATOM      3  C   LIG    1       23.007 -19.157   4.281  0.00  0.00    +0.006 C 
ATOM      4  C   LIG    1       22.398 -20.488   3.860  0.00  0.00    +0.000 C 
ATOM      5  C   LIG    1       22.062 -21.311   5.091  0.00  0.00    +0.000 C 
ATOM      6  C   LIG    1       23.316 -21.571   5.916  0.00  0.00    +0.000 C 
ATOM      7  C   LIG    1       24.103 -20.296   6.253  0.00  0.00    +0.006 C 
ENDBRANCH   1   2
BRANCH   1   8
ATOM      8  C   LIG    1       26.903 -19.695   5.150  0.00  0.00    -0.016 A 
ATOM      9  C   LIG    1       26.921 -20.694   6.138  0.00  0.00    +0.006 A 
ATOM     10  C   LIG    1       28.018 -20.866   6.996  0.00  0.00    +0.000 A 
ATOM     11  C   LIG    1       29.129 -20.028   6.886  0.00  0.00    +0.000 A 
ATOM     12  C   LIG    1       29.133 -19.028   5.930  0.00  0.00    +0.000 A 
ATOM     13  C   LIG    1       28.036 -18.853   5.074  0.00  0.00    +0.006 A 
ENDBRANCH   1   8
BRANCH   1  14
ATOM     14  O   LIG    1       25.465 -20.590   3.378  0.00  0.00    -0.384 OA
ATOM     15  H   LIG    1       24.505 -20.711   3.283  0.00  0.00    +0.211 HD
ENDBRANCH   1  14
BRANCH   1  16
ATOM     16  C   LIG    1       25.898 -18.229   3.335  0.00  0.00    +0.055 C 
BRANCH  16  17
ATOM     17  C   LIG    1       25.283 -16.887   3.782  0.00  0.00    +0.087 C 
BRANCH  17  18
ATOM     18  N   LIG    1       25.879 -15.732   3.068  0.00  0.00    -0.302 NA
ATOM     19  C   LIG    1       24.998 -14.554   3.076  0.00  0.00    +0.084 C 
ATOM     20  C   LIG    1       24.961 -13.796   4.406  0.00  0.00    +0.015 C 
ATOM     21  C   LIG    1       26.354 -13.441   4.913  0.00  0.00    +0.002 C 
ATOM     22  C   LIG    1       27.309 -14.628   4.839  0.00  0.00    +0.015 C 
ATOM     23  C   LIG    1       27.233 -15.345   3.490  0.00  0.00    +0.084 C 
ENDBRANCH  17  18
ENDBRANCH  16  17
ENDBRANCH   1  16
TORSDOF 6
ENDMDL
MODEL 2
REMARK VINA RESULT:      -4.8      1.114      1.590
REMARK  Name = *****
REMARK                            x       y       z     vdW  Elec       q    Type
REMARK                         _______ _______ _______ _____ _____    ______ ____
ROOT
ATOM      1  C   LIG    1       25.354 -18.997   3.539  0.00  0.00    +0.095 C 
ENDROOT
BRANCH   1   2
ATOM      2  C   LIG    1       23.927 -19.687   3.317  0.00  0.00    +0.025 C 
ATOM      3  C   LIG    1       23.858 -21.212   3.607  0.00  0.00    +0.006 C 
ATOM      4  C   LIG    1       23.666 -21.572   5.075  0.00  0.00    +0.000 C 
ATOM      5  C   LIG    1       22.363 -20.980   5.583  0.00  0.00    +0.000 C 
ATOM      6  C   LIG    1       22.374 -19.464   5.434  0.00  0.00    +0.000 C 
ATOM      7  C   LIG    1       22.727 -18.989   4.017  0.00  0.00    +0.006 C 
ENDBRANCH   1   2
BRANCH   1   8
ATOM      8  C   LIG    1       26.108 -19.587   4.758  0.00  0.00    -0.016 A 
ATOM      9  C   LIG    1       25.420 -20.054   5.890  0.00  0.00    +0.006 A 
ATOM     10  C   LIG    1       26.096 -20.536   7.021  0.00  0.00    +0.000 A 
ATOM     11  C   LIG    1       27.492 -20.554   7.045  0.00  0.00    +0.000 A 
ATOM     12  C   LIG    1       28.196 -20.089   5.948  0.00  0.00    +0.000 A 
ATOM     13  C   LIG    1       27.520 -19.604   4.819  0.00  0.00    +0.006 A 
ENDBRANCH   1   8
BRANCH   1  14
ATOM     14  O   LIG    1       26.116 -19.178   2.341  0.00  0.00    -0.384 OA
ATOM     15  H   LIG    1       25.893 -18.442   1.748  0.00  0.00    +0.211 HD
ENDBRANCH   1  14
BRANCH   1  16
ATOM     16  C   LIG    1       25.177 -17.459   3.728  0.00  0.00    +0.055 C 
BRANCH  16  17
ATOM     17  C   LIG    1       26.406 -16.563   3.472  0.00  0.00    +0.087 C 
BRANCH  17  18
ATOM     18  N   LIG    1       26.026 -15.218   2.976  0.00  0.00    -0.302 NA
ATOM     19  C   LIG    1       25.167 -14.493   3.924  0.00  0.00    +0.084 C 
ATOM     20  C   LIG    1       25.904 -13.910   5.133  0.00  0.00    +0.015 C 
ATOM     21  C   LIG    1       27.108 -13.066   4.729  0.00  0.00    +0.002 C 
ATOM     22  C   LIG    1       27.971 -13.765   3.685  0.00  0.00    +0.015 C 
ATOM     23  C   LIG    1       27.137 -14.355   2.547  0.00  0.00    +0.084 C 
ENDBRANCH  17  18
ENDBRANCH  16  17
ENDBRANCH   1  16
TORSDOF 6
ENDMDL
MODEL 3
REMARK VINA RESULT:      -4.8      1.269      2.026
REMARK  Name = *****
REMARK                            x       y       z     vdW  Elec       q    Type
REMARK                         _______ _______ _______ _____ _____    ______ ____
ROOT
ATOM      1  C   LIG    1       25.358 -18.784   3.626  0.00  0.00    +0.095 C 
ENDROOT
BRANCH   1   2
ATOM      2  C   LIG    1       23.978 -19.539   3.337  0.00  0.00    +0.025 C 
ATOM      3  C   LIG    1       24.000 -21.083   3.503  0.00  0.00    +0.006 C 
ATOM      4  C   LIG    1       23.824 -21.571   4.935  0.00  0.00    +0.000 C 
ATOM      5  C   LIG    1       22.485 -21.102   5.477  0.00  0.00    +0.000 C 
ATOM      6  C   LIG    1       22.404 -19.581   5.450  0.00  0.00    +0.000 C 
ATOM      7  C   LIG    1       22.734 -18.973   4.080  0.00  0.00    +0.006 C 
ENDBRANCH   1   2
BRANCH   1   8
ATOM      8  C   LIG    1       26.154 -19.439   4.785  0.00  0.00    -0.016 A 
ATOM      9  C   LIG    1       25.504 -19.976   5.908  0.00  0.00    +0.006 A 
ATOM     10  C   LIG    1       26.218 -20.519   6.987  0.00  0.00    +0.000 A 
ATOM     11  C   LIG    1       27.615 -20.530   6.965  0.00  0.00    +0.000 A 
ATOM     12  C   LIG    1       28.281 -19.996   5.877  0.00  0.00    +0.000 A 
ATOM     13  C   LIG    1       27.568 -19.450   4.799  0.00  0.00    +0.006 A 
ENDBRANCH   1   8
BRANCH   1  14
ATOM     14  O   LIG    1       26.126 -18.801   2.418  0.00  0.00    -0.384 OA
ATOM     15  H   LIG    1       25.496 -18.728   1.681  0.00  0.00    +0.211 HD
ENDBRANCH   1  14
BRANCH   1  16
ATOM     16  C   LIG    1       25.086 -17.285   3.963  0.00  0.00    +0.055 C 
BRANCH  16  17
ATOM     17  C   LIG    1       25.935 -16.224   3.234  0.00  0.00    +0.087 C 
BRANCH  17  18
ATOM     18  N   LIG    1       26.029 -14.958   4.000  0.00  0.00    -0.302 NA
ATOM     19  C   LIG    1       26.844 -13.946   3.310  0.00  0.00    +0.084 C 
ATOM     20  C   LIG    1       26.145 -13.259   2.134  0.00  0.00    +0.015 C 
ATOM     21  C   LIG    1       24.781 -12.695   2.517  0.00  0.00    +0.002 C 
ATOM     22  C   LIG    1       23.947 -13.701   3.304  0.00  0.00    +0.015 C 
ATOM     23  C   LIG    1       24.751 -14.367   4.422  0.00  0.00    +0.084 C 
ENDBRANCH  17  18
ENDBRANCH  16  17
ENDBRANCH   1  16
TORSDOF 6
ENDMDL
MODEL 4
REMARK VINA RESULT:      -3.6      2.420      7.300
REMARK  Name = *****
REMARK                            x       y       z     vdW  Elec       q    Type
REMARK                         _______ _______ _______ _____ _____    ______ ____
ROOT
ATOM      1  C   LIG    1       26.035 -15.011   3.313  0.00  0.00    +0.095 C 
ENDROOT
BRANCH   1   2
ATOM      2  C   LIG    1       27.277 -14.902   4.317  0.00  0.00    +0.025 C 
ATOM      3  C   LIG    1       28.622 -14.450   3.686  0.00  0.00    +0.006 C 
ATOM      4  C   LIG    1       28.775 -12.942   3.528  0.00  0.00    +0.000 C 
ATOM      5  C   LIG    1       28.694 -12.273   4.889  0.00  0.00    +0.000 C 
ATOM      6  C   LIG    1       27.357 -12.576   5.552  0.00  0.00    +0.000 C 
ATOM      7  C   LIG    1       27.025 -14.074   5.608  0.00  0.00    +0.006 C 
ENDBRANCH   1   2
BRANCH   1   8
ATOM      8  C   LIG    1       25.162 -13.730   3.318  0.00  0.00    -0.016 A 
ATOM      9  C   LIG    1       24.311 -13.427   4.393  0.00  0.00    +0.006 A 
ATOM     10  C   LIG    1       23.475 -12.300   4.380  0.00  0.00    +0.000 A 
ATOM     11  C   LIG    1       23.470 -11.447   3.274  0.00  0.00    +0.000 A 
ATOM     12  C   LIG    1       24.289 -11.728   2.196  0.00  0.00    +0.000 A 
ATOM     13  C   LIG    1       25.123 -12.856   2.207  0.00  0.00    +0.006 A 
ENDBRANCH   1   8
BRANCH   1  14
ATOM     14  O   LIG    1       26.555 -15.260   2.003  0.00  0.00    -0.384 OA
ATOM     15  H   LIG    1       27.445 -14.870   1.971  0.00  0.00    +0.211 HD
ENDBRANCH   1  14
BRANCH   1  16
ATOM     16  C   LIG    1       25.155 -16.244   3.687  0.00  0.00    +0.055 C 
BRANCH  16  17
ATOM     17  C   LIG    1       25.833 -17.629   3.693  0.00  0.00    +0.087 C 
BRANCH  17  18
ATOM     18  N   LIG    1       24.949 -18.688   3.149  0.00  0.00    -0.302 NA
ATOM     19  C   LIG    1       25.357 -20.034   3.581  0.00  0.00    +0.084 C 
ATOM     20  C   LIG    1       24.987 -20.378   5.026  0.00  0.00    +0.015 C 
ATOM     21  C   LIG    1       23.512 -20.130   5.324  0.00  0.00    +0.002 C 
ATOM     22  C   LIG    1       23.046 -18.771   4.813  0.00  0.00    +0.015 C 
ATOM     23  C   LIG    1       23.509 -18.504   3.380  0.00  0.00    +0.084 C 
ENDBRANCH  17  18
ENDBRANCH  16  17
ENDBRANCH   1  16
TORSDOF 6
ENDMDL
MODEL 5
REMARK VINA RESULT:      -3.2      2.443      6.531
REMARK  Name = *****
REMARK                            x       y       z     vdW  Elec       q    Type
REMARK                         _______ _______ _______ _____ _____    ______ ____
ROOT
ATOM      1  C   LIG    1       25.402 -15.205   3.810  0.00  0.00    +0.095 C 
ENDROOT
BRANCH   1   2
ATOM      2  C   LIG    1       24.292 -14.463   2.929  0.00  0.00    +0.025 C 
ATOM      3  C   LIG    1       23.188 -13.709   3.721  0.00  0.00    +0.006 C 
ATOM      4  C   LIG    1       23.580 -12.311   4.181  0.00  0.00    +0.000 C 
ATOM      5  C   LIG    1       23.908 -11.447   2.976  0.00  0.00    +0.000 C 
ATOM      6  C   LIG    1       25.057 -12.055   2.183  0.00  0.00    +0.000 C 
ATOM      7  C   LIG    1       24.835 -13.528   1.812  0.00  0.00    +0.006 C 
ENDBRANCH   1   2
BRANCH   1   8
ATOM      8  C   LIG    1       26.644 -14.311   4.063  0.00  0.00    -0.016 A 
ATOM      9  C   LIG    1       26.781 -13.563   5.244  0.00  0.00    +0.006 A 
ATOM     10  C   LIG    1       27.873 -12.708   5.456  0.00  0.00    +0.000 A 
ATOM     11  C   LIG    1       28.858 -12.577   4.475  0.00  0.00    +0.000 A 
ATOM     12  C   LIG    1       28.742 -13.293   3.297  0.00  0.00    +0.000 A 
ATOM     13  C   LIG    1       27.649 -14.145   3.083  0.00  0.00    +0.006 A 
ENDBRANCH   1   8
BRANCH   1  14
ATOM     14  O   LIG    1       24.795 -15.582   5.050  0.00  0.00    -0.384 OA
ATOM     15  H   LIG    1       24.080 -16.206   4.838  0.00  0.00    +0.211 HD
ENDBRANCH   1  14
BRANCH   1  16
ATOM     16  C   LIG    1       25.845 -16.526   3.108  0.00  0.00    +0.055 C 
BRANCH  16  17
ATOM     17  C   LIG    1       25.812 -17.822   3.942  0.00  0.00    +0.087 C 
BRANCH  17  18
ATOM     18  N   LIG    1       24.919 -18.848   3.349  0.00  0.00    -0.302 NA
ATOM     19  C   LIG    1       25.182 -20.193   3.881  0.00  0.00    +0.084 C 
ATOM     20  C   LIG    1       24.634 -20.439   5.291  0.00  0.00    +0.015 C 
ATOM     21  C   LIG    1       23.157 -20.080   5.411  0.00  0.00    +0.002 C 
ATOM     22  C   LIG    1       22.847 -18.722   4.794  0.00  0.00    +0.015 C 
ATOM     23  C   LIG    1       23.479 -18.559   3.410  0.00  0.00    +0.084 C 
ENDBRANCH  17  18
ENDBRANCH  16  17
ENDBRANCH   1  16
TORSDOF 6
ENDMDL
