MODEL 1
REMARK VINA RESULT:      94.2      0.000      0.000
REMARK  Name = *****
REMARK                            x       y       z     vdW  Elec       q    Type
REMARK                         _______ _______ _______ _____ _____    ______ ____
ROOT
ATOM      1  C   LIG    1       23.819 -15.871   3.555  0.00  0.00    +0.221 C 
ATOM      2  C   LIG    1       25.446 -15.924   3.548  0.00  0.00    +0.168 C 
ATOM      3  C   LIG    1       26.622 -16.721   4.211  0.00  0.00    +0.136 C 
ATOM      4  N   LIG    1       26.622 -16.362   5.602  0.00  0.00    -0.260 N 
ATOM      5  C   LIG    1       25.818 -15.192   5.677  0.00  0.00    +0.404 C 
ATOM      6  O   LIG    1       25.442 -14.653   6.635  0.00  0.00    -0.226 OA
ATOM      7  C   LIG    1       26.927 -18.143   3.701  0.00  0.00    +0.077 C 
ATOM      8  C   LIG    1       27.773 -18.139   2.366  0.00  0.00    +0.017 C 
ATOM      9  C   LIG    1       27.675 -18.927   4.767  0.00  0.00    +0.141 C 
ATOM     10  O   LIG    1       28.894 -18.722   4.881  0.00  0.00    -0.297 OA
ATOM     11  C   LIG    1       26.910 -19.836   5.799  0.00  0.00    +0.055 C 
ATOM     12  C   LIG    1       27.982 -20.853   6.268  0.00  0.00    +0.015 C 
ATOM     13  C   LIG    1       25.669 -20.640   5.240  0.00  0.00    +0.048 C 
ATOM     14  C   LIG    1       24.187 -20.525   5.849  0.00  0.00    +0.094 C 
ATOM     15  C   LIG    1       24.118 -21.532   7.037  0.00  0.00    +0.044 C 
ATOM     16  C   LIG    1       23.007 -21.030   4.731  0.00  0.00    +0.163 C 
ATOM     17  C   LIG    1       21.575 -20.380   4.533  0.00  0.00    +0.085 C 
ATOM     18  C   LIG    1       20.460 -21.455   4.484  0.00  0.00    +0.018 C 
ATOM     19  C   LIG    1       20.854 -19.214   5.276  0.00  0.00    +0.152 C 
ATOM     20  O   LIG    1       20.269 -19.526   6.328  0.00  0.00    -0.296 OA
ATOM     21  C   LIG    1       20.674 -17.749   4.733  0.00  0.00    +0.161 C 
ATOM     22  C   LIG    1       19.503 -17.115   5.528  0.00  0.00    +0.027 C 
ATOM     23  C   LIG    1       21.797 -16.649   4.688  0.00  0.00    +0.318 C 
ATOM     24  O   LIG    1       21.491 -15.468   4.862  0.00  0.00    -0.250 OA
ATOM     25  C   LIG    1       25.933 -15.818   2.109  0.00  0.00    +0.062 C 
ATOM     26  O   LIG    1       25.654 -14.738   4.358  0.00  0.00    -0.438 OA
ATOM     27  O   LIG    1       23.058 -16.986   4.199  0.00  0.00    -0.457 OA
ENDROOT
BRANCH   1  29
ATOM     28  C   LIG    1       21.638 -15.034   1.954  0.00  0.00    +0.007 C 
ATOM     29  C   LIG    1       23.119 -15.380   2.176  0.00  0.00    +0.045 C 
ENDBRANCH   1  29
BRANCH  14  30
ATOM     30  O   LIG    1       24.136 -19.206   6.403  0.00  0.00    -0.374 OA
ATOM     31  C   LIG    1       25.366 -18.602   6.717  0.00  0.00    +0.195 C 
ENDBRANCH  14  30
BRANCH   4  32
ATOM     32  C   LIG    1       27.863 -16.275   6.458  0.00  0.00    +0.112 C 
BRANCH  32  33
ATOM     33  C   LIG    1       29.245 -16.359   5.690  0.00  0.00    +0.021 C 
BRANCH  33  34
ATOM     34  C   LIG    1       29.274 -15.740   4.264  0.00  0.00    +0.023 C 
BRANCH  34  35
ATOM     35  C   LIG    1       29.150 -14.175   4.100  0.00  0.00    +0.123 C 
BRANCH  35  36
ATOM     36  N   LIG    1       28.096 -13.356   4.711  0.00  0.00    -0.336 N 
ATOM     37  C   LIG    1       26.759 -13.674   4.915  0.00  0.00    +0.115 A 
ATOM     38  C   LIG    1       26.103 -12.479   5.201  0.00  0.00    +0.090 A 
ATOM     39  N   LIG    1       27.015 -11.450   5.175  0.00  0.00    -0.236 NA
ATOM     40  C   LIG    1       28.134 -11.976   4.734  0.00  0.00    +0.200 A 
BRANCH  38  41
ATOM     41  C   LIG    1       24.672 -12.179   5.362  0.00  0.00    +0.020 A 
ATOM     42  C   LIG    1       23.844 -12.149   4.229  0.00  0.00    +0.120 A 
ATOM     43  N   LIG    1       22.518 -11.824   4.213  0.00  0.00    -0.263 NA
ATOM     44  C   LIG    1       21.979 -11.455   5.387  0.00  0.00    +0.111 A 
ATOM     45  C   LIG    1       22.694 -11.454   6.575  0.00  0.00    +0.020 A 
ATOM     46  C   LIG    1       24.047 -11.846   6.565  0.00  0.00    +0.013 A 
ENDBRANCH  38  41
ENDBRANCH  35  36
ENDBRANCH  34  35
ENDBRANCH  33  34
ENDBRANCH  32  33
ENDBRANCH   4  32
BRANCH  16  47
ATOM     47  O   LIG    1       23.621 -21.131   3.376  0.00  0.00    -0.342 OA
BRANCH  47  48
ATOM     48  C   LIG    1       23.495 -20.041   2.405  0.00  0.00    +0.281 C 
ATOM     49  C   LIG    1       22.976 -18.652   2.932  0.00  0.00    +0.187 C 
ATOM     50  C   LIG    1       23.908 -18.034   4.004  0.00  0.00    +0.092 C 
ATOM     51  C   LIG    1       25.270 -18.719   3.938  0.00  0.00    +0.053 C 
ATOM     52  C   LIG    1       25.601 -18.785   2.469  0.00  0.00    +0.120 C 
ATOM     53  C   LIG    1       27.058 -19.128   2.322  0.00  0.00    +0.038 C 
ATOM     54  O   LIG    1       24.812 -19.799   1.815  0.00  0.00    -0.346 OA
BRANCH  50  55
ATOM     55  N   LIG    1       23.432 -17.901   5.373  0.00  0.00    -0.303 NA
ATOM     56  C   LIG    1       22.673 -19.001   5.852  0.00  0.00    +0.105 C 
ATOM     57  C   LIG    1       22.895 -16.618   5.795  0.00  0.00    +0.105 C 
ENDBRANCH  50  55
BRANCH  49  58
ATOM     58  O   LIG    1       22.821 -17.751   1.815  0.00  0.00    -0.385 OA
ATOM     59  H   LIG    1       22.156 -17.084   2.054  0.00  0.00    +0.210 HD
ENDBRANCH  49  58
ENDBRANCH  47  48
ENDBRANCH  16  47
TORSDOF 12
ENDMDL
MODEL 2
REMARK VINA RESULT:      95.6      1.882      4.538
REMARK  Name = *****
REMARK                            x       y       z     vdW  Elec       q    Type
REMARK                         _______ _______ _______ _____ _____    ______ ____
ROOT
ATOM      1  C   LIG    1       23.785 -12.654   3.952  0.00  0.00    +0.221 C 
ATOM      2  C   LIG    1       25.362 -13.043   3.844  0.00  0.00    +0.168 C 
ATOM      3  C   LIG    1       26.365 -14.137   4.352  0.00  0.00    +0.136 C 
ATOM      4  N   LIG    1       26.493 -13.942   5.770  0.00  0.00    -0.260 N 
ATOM      5  C   LIG    1       25.960 -12.647   6.010  0.00  0.00    +0.404 C 
ATOM      6  O   LIG    1       25.743 -12.152   7.039  0.00  0.00    -0.226 OA
ATOM      7  C   LIG    1       26.341 -15.526   3.683  0.00  0.00    +0.077 C 
ATOM      8  C   LIG    1       27.119 -15.548   2.308  0.00  0.00    +0.017 C 
ATOM      9  C   LIG    1       26.944 -16.562   4.619  0.00  0.00    +0.141 C 
ATOM     10  O   LIG    1       28.182 -16.628   4.680  0.00  0.00    -0.297 OA
ATOM     11  C   LIG    1       26.041 -17.400   5.597  0.00  0.00    +0.055 C 
ATOM     12  C   LIG    1       26.888 -18.664   5.896  0.00  0.00    +0.015 C 
ATOM     13  C   LIG    1       24.637 -17.862   5.034  0.00  0.00    +0.048 C 
ATOM     14  C   LIG    1       23.238 -17.510   5.739  0.00  0.00    +0.094 C 
ATOM     15  C   LIG    1       22.998 -18.606   6.821  0.00  0.00    +0.044 C 
ATOM     16  C   LIG    1       21.937 -17.630   4.647  0.00  0.00    +0.163 C 
ATOM     17  C   LIG    1       20.670 -16.679   4.601  0.00  0.00    +0.085 C 
ATOM     18  C   LIG    1       19.350 -17.486   4.511  0.00  0.00    +0.018 C 
ATOM     19  C   LIG    1       20.241 -15.478   5.500  0.00  0.00    +0.152 C 
ATOM     20  O   LIG    1       19.642 -15.777   6.548  0.00  0.00    -0.296 OA
ATOM     21  C   LIG    1       20.357 -13.957   5.120  0.00  0.00    +0.161 C 
ATOM     22  C   LIG    1       19.379 -13.186   6.043  0.00  0.00    +0.027 C 
ATOM     23  C   LIG    1       21.687 -13.116   5.119  0.00  0.00    +0.318 C 
ATOM     24  O   LIG    1       21.647 -11.925   5.430  0.00  0.00    -0.250 OA
ATOM     25  C   LIG    1       25.808 -12.882   2.397  0.00  0.00    +0.062 C 
ATOM     26  O   LIG    1       25.848 -12.025   4.755  0.00  0.00    -0.438 OA
ATOM     27  O   LIG    1       22.829 -13.652   4.525  0.00  0.00    -0.457 OA
ENDROOT
BRANCH   1  29
ATOM     28  C   LIG    1       21.739 -12.030   2.097  0.00  0.00    +0.007 C 
ATOM     29  C   LIG    1       23.156 -11.879   2.674  0.00  0.00    +0.045 C 
ENDBRANCH   1  29
BRANCH  14  30
ATOM     30  O   LIG    1       23.489 -16.279   6.425  0.00  0.00    -0.374 OA
ATOM     31  C   LIG    1       24.701 -15.628   6.137  0.00  0.00    +0.195 C 
ENDBRANCH  14  30
BRANCH   4  32
ATOM     32  C   LIG    1       27.754 -14.212   6.555  0.00  0.00    +0.112 C 
BRANCH  32  33
ATOM     33  C   LIG    1       28.784 -13.013   6.649  0.00  0.00    +0.021 C 
BRANCH  33  34
ATOM     34  C   LIG    1       29.376 -12.512   5.302  0.00  0.00    +0.023 C 
BRANCH  34  35
ATOM     35  C   LIG    1       29.475 -13.511   4.084  0.00  0.00    +0.123 C 
BRANCH  35  36
ATOM     36  N   LIG    1       28.881 -14.853   4.059  0.00  0.00    -0.336 N 
ATOM     37  C   LIG    1       28.965 -15.857   5.016  0.00  0.00    +0.115 A 
ATOM     38  C   LIG    1       28.541 -17.032   4.400  0.00  0.00    +0.090 A 
ATOM     39  N   LIG    1       28.202 -16.758   3.097  0.00  0.00    -0.236 NA
ATOM     40  C   LIG    1       28.559 -15.512   2.889  0.00  0.00    +0.200 A 
BRANCH  38  41
ATOM     41  C   LIG    1       28.550 -18.426   4.872  0.00  0.00    +0.020 A 
ATOM     42  C   LIG    1       29.314 -18.763   6.001  0.00  0.00    +0.120 A 
ATOM     43  N   LIG    1       29.472 -20.018   6.514  0.00  0.00    -0.263 NA
ATOM     44  C   LIG    1       28.876 -21.019   5.845  0.00  0.00    +0.111 A 
ATOM     45  C   LIG    1       28.088 -20.807   4.723  0.00  0.00    +0.020 A 
ATOM     46  C   LIG    1       27.903 -19.494   4.250  0.00  0.00    +0.013 A 
ENDBRANCH  38  41
ENDBRANCH  35  36
ENDBRANCH  34  35
ENDBRANCH  33  34
ENDBRANCH  32  33
ENDBRANCH   4  32
BRANCH  16  47
ATOM     47  O   LIG    1       22.465 -17.706   3.255  0.00  0.00    -0.342 OA
BRANCH  47  48
ATOM     48  C   LIG    1       22.705 -18.997   2.606  0.00  0.00    +0.281 C 
ATOM     49  C   LIG    1       23.488 -20.091   3.424  0.00  0.00    +0.187 C 
ATOM     50  C   LIG    1       22.752 -20.504   4.724  0.00  0.00    +0.092 C 
ATOM     51  C   LIG    1       21.292 -20.068   4.633  0.00  0.00    +0.053 C 
ATOM     52  C   LIG    1       20.851 -20.472   3.250  0.00  0.00    +0.120 C 
ATOM     53  C   LIG    1       19.351 -20.396   3.185  0.00  0.00    +0.038 C 
ATOM     54  O   LIG    1       21.409 -19.584   2.259  0.00  0.00    -0.346 OA
BRANCH  50  55
ATOM     55  N   LIG    1       23.339 -20.172   6.013  0.00  0.00    -0.303 NA
ATOM     56  C   LIG    1       23.813 -21.284   6.759  0.00  0.00    +0.105 C 
ATOM     57  C   LIG    1       22.673 -19.180   6.841  0.00  0.00    +0.105 C 
ENDBRANCH  50  55
BRANCH  49  58
ATOM     58  O   LIG    1       23.713 -21.240   2.582  0.00  0.00    -0.385 OA
ATOM     59  H   LIG    1       24.637 -21.219   2.281  0.00  0.00    +0.210 HD
ENDBRANCH  49  58
ENDBRANCH  47  48
ENDBRANCH  16  47
TORSDOF 12
ENDMDL
