MODEL 1
REMARK VINA RESULT:      -8.6      0.000      0.000
REMARK  Name = *****
REMARK                            x       y       z     vdW  Elec       q    Type
REMARK                         _______ _______ _______ _____ _____    ______ ____
ROOT
ATOM      1  C   LIG    1       26.703 -20.917   6.747  0.00  0.00    -0.021 C 
ATOM      2  C   LIG    1       28.011 -20.354   6.932  0.00  0.00    +0.003 C 
ATOM      3  C   LIG    1       28.296 -19.585   5.807  0.00  0.00    +0.047 C 
ATOM      4  C   LIG    1       29.494 -18.878   5.650  0.00  0.00    +0.026 C 
ATOM      5  C   LIG    1       30.420 -18.938   6.697  0.00  0.00    +0.007 C 
ATOM      6  C   LIG    1       30.174 -19.686   7.855  0.00  0.00    -0.025 C 
ATOM      7  N   LIG    1       27.214 -19.675   4.962  0.00  0.00    -0.360 NA
ATOM      8  H   LIG    1       27.145 -19.212   4.070  0.00  0.00    +0.165 HD
ATOM      9  C   LIG    1       28.974 -20.419   7.962  0.00  0.00    +0.015 C 
ATOM     10  C   LIG    1       26.247 -20.464   5.524  0.00  0.00    +0.087 C 
ENDROOT
BRANCH   1  11
ATOM     11  C   LIG    1       25.958 -21.837   7.668  0.00  0.00    +0.052 C 
BRANCH  11  12
ATOM     12  C   LIG    1       25.701 -23.233   7.063  0.00  0.00    +0.088 C 
BRANCH  12  14
ATOM     13  C   LIG    1       23.947 -24.783   6.454  0.00  0.00    +0.104 C 
ATOM     14  N   LIG    1       24.378 -23.382   6.412  0.00  0.00    -0.308 NA
ATOM     15  C   LIG    1       23.353 -22.533   7.022  0.00  0.00    +0.104 C 
ENDBRANCH  12  14
ENDBRANCH  11  12
ENDBRANCH   1  11
BRANCH   6  16
ATOM     16  C   LIG    1       31.170 -19.697   8.991  0.00  0.00    +0.180 C 
BRANCH  16  17
ATOM     17  N   LIG    1       31.138 -18.455   9.743  0.00  0.00    -0.248 NA
ATOM     18  N   LIG    1       32.274 -17.870  10.185  0.00  0.00    -0.158 NA
ATOM     19  C   LIG    1       31.788 -16.788  10.797  0.00  0.00    +0.244 C 
ATOM     20  N   LIG    1       30.426 -16.682  10.804  0.00  0.00    -0.223 NA
ATOM     21  C   LIG    1       30.045 -17.748  10.140  0.00  0.00    +0.219 C 
ENDBRANCH  16  17
ENDBRANCH   6  16
TORSDOF 5
ENDMDL
MODEL 2
REMARK VINA RESULT:      -8.2      1.103      7.276
REMARK  Name = *****
REMARK                            x       y       z     vdW  Elec       q    Type
REMARK                         _______ _______ _______ _____ _____    ______ ____
ROOT
ATOM      1  C   LIG    1       29.609 -19.425   7.306  0.00  0.00    -0.021 C 
ATOM      2  C   LIG    1       28.302 -19.956   7.044  0.00  0.00    +0.003 C 
ATOM      3  C   LIG    1       27.948 -19.572   5.753  0.00  0.00    +0.047 C 
ATOM      4  C   LIG    1       26.732 -19.926   5.159  0.00  0.00    +0.026 C 
ATOM      5  C   LIG    1       25.859 -20.727   5.903  0.00  0.00    +0.007 C 
ATOM      6  C   LIG    1       26.174 -21.150   7.200  0.00  0.00    -0.025 C 
ATOM      7  N   LIG    1       28.989 -18.830   5.245  0.00  0.00    -0.360 NA
ATOM      8  H   LIG    1       29.006 -18.425   4.323  0.00  0.00    +0.165 HD
ATOM      9  C   LIG    1       27.392 -20.742   7.783  0.00  0.00    +0.015 C 
ATOM     10  C   LIG    1       29.997 -18.746   6.167  0.00  0.00    +0.087 C 
ENDROOT
BRANCH   1  11
ATOM     11  C   LIG    1       30.416 -19.543   8.566  0.00  0.00    +0.052 C 
BRANCH  11  12
ATOM     12  C   LIG    1       31.599 -18.556   8.630  0.00  0.00    +0.088 C 
BRANCH  12  14
ATOM     13  C   LIG    1       32.669 -16.802   9.908  0.00  0.00    +0.104 C 
ATOM     14  N   LIG    1       31.895 -18.046   9.990  0.00  0.00    -0.308 NA
ATOM     15  C   LIG    1       30.684 -17.819  10.781  0.00  0.00    +0.104 C 
ENDBRANCH  12  14
ENDBRANCH  11  12
ENDBRANCH   1  11
BRANCH   6  16
ATOM     16  C   LIG    1       25.236 -22.054   7.965  0.00  0.00    +0.180 C 
BRANCH  16  17
ATOM     17  N   LIG    1       24.990 -23.297   7.255  0.00  0.00    -0.248 NA
ATOM     18  N   LIG    1       25.999 -24.138   6.938  0.00  0.00    -0.158 NA
ATOM     19  C   LIG    1       25.338 -25.118   6.320  0.00  0.00    +0.244 C 
ATOM     20  N   LIG    1       23.991 -24.924   6.191  0.00  0.00    -0.223 NA
ATOM     21  C   LIG    1       23.804 -23.768   6.783  0.00  0.00    +0.219 C 
ENDBRANCH  16  17
ENDBRANCH   6  16
TORSDOF 5
ENDMDL
MODEL 3
REMARK VINA RESULT:      -8.2      2.562      5.178
REMARK  Name = *****
REMARK                            x       y       z     vdW  Elec       q    Type
REMARK                         _______ _______ _______ _____ _____    ______ ____
ROOT
ATOM      1  C   LIG    1       24.952 -24.888   6.606  0.00  0.00    -0.021 C 
ATOM      2  C   LIG    1       24.940 -23.519   7.037  0.00  0.00    +0.003 C 
ATOM      3  C   LIG    1       23.647 -23.036   6.855  0.00  0.00    +0.047 C 
ATOM      4  C   LIG    1       23.268 -21.730   7.182  0.00  0.00    +0.026 C 
ATOM      5  C   LIG    1       24.242 -20.896   7.743  0.00  0.00    +0.007 C 
ATOM      6  C   LIG    1       25.553 -21.338   7.958  0.00  0.00    -0.025 C 
ATOM      7  N   LIG    1       22.896 -24.061   6.329  0.00  0.00    -0.360 NA
ATOM      8  H   LIG    1       21.918 -23.994   6.099  0.00  0.00    +0.165 HD
ATOM      9  C   LIG    1       25.911 -22.649   7.579  0.00  0.00    +0.015 C 
ATOM     10  C   LIG    1       23.669 -25.182   6.185  0.00  0.00    +0.087 C 
ENDROOT
BRANCH   1  11
ATOM     11  C   LIG    1       26.115 -25.835   6.579  0.00  0.00    +0.052 C 
BRANCH  11  12
ATOM     12  C   LIG    1       26.047 -26.856   5.425  0.00  0.00    +0.088 C 
BRANCH  12  14
ATOM     13  C   LIG    1       25.453 -28.275   7.293  0.00  0.00    +0.104 C 
ATOM     14  N   LIG    1       25.625 -28.216   5.837  0.00  0.00    -0.308 NA
ATOM     15  C   LIG    1       24.389 -28.644   5.179  0.00  0.00    +0.104 C 
ENDBRANCH  12  14
ENDBRANCH  11  12
ENDBRANCH   1  11
BRANCH   6  16
ATOM     16  C   LIG    1       26.575 -20.434   8.608  0.00  0.00    +0.180 C 
BRANCH  16  17
ATOM     17  N   LIG    1       27.800 -20.365   7.831  0.00  0.00    -0.248 NA
ATOM     18  N   LIG    1       29.007 -20.581   8.399  0.00  0.00    -0.158 NA
ATOM     19  C   LIG    1       29.819 -20.428   7.352  0.00  0.00    +0.244 C 
ATOM     20  N   LIG    1       29.204 -20.088   6.179  0.00  0.00    -0.223 NA
ATOM     21  C   LIG    1       27.936 -20.050   6.514  0.00  0.00    +0.219 C 
ENDBRANCH  16  17
ENDBRANCH   6  16
TORSDOF 5
ENDMDL
MODEL 4
REMARK VINA RESULT:      -8.1      2.735      8.620
REMARK  Name = *****
REMARK                            x       y       z     vdW  Elec       q    Type
REMARK                         _______ _______ _______ _____ _____    ______ ____
ROOT
ATOM      1  C   LIG    1       26.162 -21.824   7.572  0.00  0.00    -0.021 C 
ATOM      2  C   LIG    1       25.576 -23.043   7.092  0.00  0.00    +0.003 C 
ATOM      3  C   LIG    1       24.194 -22.898   7.167  0.00  0.00    +0.047 C 
ATOM      4  C   LIG    1       23.299 -23.898   6.768  0.00  0.00    +0.026 C 
ATOM      5  C   LIG    1       23.841 -25.078   6.246  0.00  0.00    +0.007 C 
ATOM      6  C   LIG    1       25.225 -25.267   6.138  0.00  0.00    -0.025 C 
ATOM      7  N   LIG    1       23.938 -21.647   7.677  0.00  0.00    -0.360 NA
ATOM      8  H   LIG    1       23.017 -21.271   7.836  0.00  0.00    +0.165 HD
ATOM      9  C   LIG    1       26.097 -24.254   6.587  0.00  0.00    +0.015 C 
ATOM     10  C   LIG    1       25.115 -20.989   7.913  0.00  0.00    +0.087 C 
ENDROOT
BRANCH   1  11
ATOM     11  C   LIG    1       27.619 -21.495   7.712  0.00  0.00    +0.052 C 
BRANCH  11  12
ATOM     12  C   LIG    1       28.118 -20.471   6.672  0.00  0.00    +0.088 C 
BRANCH  12  14
ATOM     13  C   LIG    1       29.869 -18.839   6.315  0.00  0.00    +0.104 C 
ATOM     14  N   LIG    1       29.578 -20.222   6.712  0.00  0.00    -0.308 NA
ATOM     15  C   LIG    1       30.157 -20.485   8.031  0.00  0.00    +0.104 C 
ENDBRANCH  12  14
ENDBRANCH  11  12
ENDBRANCH   1  11
BRANCH   6  16
ATOM     16  C   LIG    1       25.785 -26.531   5.528  0.00  0.00    +0.180 C 
BRANCH  16  17
ATOM     17  N   LIG    1       25.113 -27.714   6.035  0.00  0.00    -0.248 NA
ATOM     18  N   LIG    1       25.336 -28.167   7.289  0.00  0.00    -0.158 NA
ATOM     19  C   LIG    1       24.533 -29.232   7.328  0.00  0.00    +0.244 C 
ATOM     20  N   LIG    1       23.859 -29.499   6.170  0.00  0.00    -0.223 NA
ATOM     21  C   LIG    1       24.248 -28.531   5.374  0.00  0.00    +0.219 C 
ENDBRANCH  16  17
ENDBRANCH   6  16
TORSDOF 5
ENDMDL
MODEL 5
REMARK VINA RESULT:      -8.0      2.174      4.109
REMARK  Name = *****
REMARK                            x       y       z     vdW  Elec       q    Type
REMARK                         _______ _______ _______ _____ _____    ______ ____
ROOT
ATOM      1  C   LIG    1       24.475 -23.654   6.378  0.00  0.00    -0.021 C 
ATOM      2  C   LIG    1       25.375 -22.712   6.979  0.00  0.00    +0.003 C 
ATOM      3  C   LIG    1       24.602 -21.746   7.618  0.00  0.00    +0.047 C 
ATOM      4  C   LIG    1       25.154 -20.670   8.321  0.00  0.00    +0.026 C 
ATOM      5  C   LIG    1       26.549 -20.597   8.398  0.00  0.00    +0.007 C 
ATOM      6  C   LIG    1       27.370 -21.551   7.784  0.00  0.00    -0.025 C 
ATOM      7  N   LIG    1       23.282 -22.076   7.414  0.00  0.00    -0.360 NA
ATOM      8  H   LIG    1       22.500 -21.550   7.769  0.00  0.00    +0.165 HD
ATOM      9  C   LIG    1       26.781 -22.600   7.049  0.00  0.00    +0.015 C 
ATOM     10  C   LIG    1       23.196 -23.227   6.679  0.00  0.00    +0.087 C 
ENDROOT
BRANCH   1  11
ATOM     11  C   LIG    1       24.818 -24.863   5.558  0.00  0.00    +0.052 C 
BRANCH  11  12
ATOM     12  C   LIG    1       24.239 -26.174   6.128  0.00  0.00    +0.088 C 
BRANCH  12  14
ATOM     13  C   LIG    1       24.355 -28.518   5.540  0.00  0.00    +0.104 C 
ATOM     14  N   LIG    1       25.128 -27.350   5.977  0.00  0.00    -0.308 NA
ATOM     15  C   LIG    1       26.225 -27.109   5.038  0.00  0.00    +0.104 C 
ENDBRANCH  12  14
ENDBRANCH  11  12
ENDBRANCH   1  11
BRANCH   6  16
ATOM     16  C   LIG    1       28.874 -21.476   7.920  0.00  0.00    +0.180 C 
BRANCH  16  17
ATOM     17  N   LIG    1       29.374 -20.147   7.617  0.00  0.00    -0.248 NA
ATOM     18  N   LIG    1       29.801 -19.315   8.592  0.00  0.00    -0.158 NA
ATOM     19  C   LIG    1       30.165 -18.245   7.882  0.00  0.00    +0.244 C 
ATOM     20  N   LIG    1       29.952 -18.337   6.536  0.00  0.00    -0.223 NA
ATOM     21  C   LIG    1       29.448 -19.541   6.400  0.00  0.00    +0.219 C 
ENDBRANCH  16  17
ENDBRANCH   6  16
TORSDOF 5
ENDMDL
MODEL 6
REMARK VINA RESULT:      -7.8      2.429      8.195
REMARK  Name = *****
REMARK                            x       y       z     vdW  Elec       q    Type
REMARK                         _______ _______ _______ _____ _____    ______ ____
ROOT
ATOM      1  C   LIG    1       26.812 -21.512   7.801  0.00  0.00    -0.021 C 
ATOM      2  C   LIG    1       25.898 -22.493   7.290  0.00  0.00    +0.003 C 
ATOM      3  C   LIG    1       24.610 -22.066   7.603  0.00  0.00    +0.047 C 
ATOM      4  C   LIG    1       23.461 -22.781   7.246  0.00  0.00    +0.026 C 
ATOM      5  C   LIG    1       23.637 -23.962   6.517  0.00  0.00    +0.007 C 
ATOM      6  C   LIG    1       24.911 -24.428   6.166  0.00  0.00    -0.025 C 
ATOM      7  N   LIG    1       24.726 -20.876   8.282  0.00  0.00    -0.360 NA
ATOM      8  H   LIG    1       23.948 -20.337   8.628  0.00  0.00    +0.165 HD
ATOM      9  C   LIG    1       26.048 -23.703   6.577  0.00  0.00    +0.015 C 
ATOM     10  C   LIG    1       26.045 -20.529   8.396  0.00  0.00    +0.087 C 
ENDROOT
BRANCH   1  11
ATOM     11  C   LIG    1       28.311 -21.529   7.739  0.00  0.00    +0.052 C 
BRANCH  11  12
ATOM     12  C   LIG    1       28.938 -20.119   7.720  0.00  0.00    +0.088 C 
BRANCH  12  14
ATOM     13  C   LIG    1       30.762 -21.315   8.767  0.00  0.00    +0.104 C 
ATOM     14  N   LIG    1       30.177 -19.992   8.523  0.00  0.00    -0.308 NA
ATOM     15  C   LIG    1       31.171 -19.125   7.889  0.00  0.00    +0.104 C 
ENDBRANCH  12  14
ENDBRANCH  11  12
ENDBRANCH   1  11
BRANCH   6  16
ATOM     16  C   LIG    1       25.072 -25.682   5.338  0.00  0.00    +0.180 C 
BRANCH  16  17
ATOM     17  N   LIG    1       25.073 -26.874   6.167  0.00  0.00    -0.248 NA
ATOM     18  N   LIG    1       25.969 -27.039   7.165  0.00  0.00    -0.158 NA
ATOM     19  C   LIG    1       25.608 -28.230   7.646  0.00  0.00    +0.244 C 
ATOM     20  N   LIG    1       24.577 -28.838   6.988  0.00  0.00    -0.223 NA
ATOM     21  C   LIG    1       24.266 -27.965   6.059  0.00  0.00    +0.219 C 
ENDBRANCH  16  17
ENDBRANCH   6  16
TORSDOF 5
ENDMDL
MODEL 7
REMARK VINA RESULT:      -7.7      2.178      3.789
REMARK  Name = *****
REMARK                            x       y       z     vdW  Elec       q    Type
REMARK                         _______ _______ _______ _____ _____    ______ ____
ROOT
ATOM      1  C   LIG    1       24.589 -21.528   5.820  0.00  0.00    -0.021 C 
ATOM      2  C   LIG    1       25.777 -20.996   6.423  0.00  0.00    +0.003 C 
ATOM      3  C   LIG    1       25.518 -20.829   7.780  0.00  0.00    +0.047 C 
ATOM      4  C   LIG    1       26.465 -20.334   8.683  0.00  0.00    +0.026 C 
ATOM      5  C   LIG    1       27.734 -20.026   8.182  0.00  0.00    +0.007 C 
ATOM      6  C   LIG    1       28.050 -20.189   6.827  0.00  0.00    -0.025 C 
ATOM      7  N   LIG    1       24.222 -21.235   8.004  0.00  0.00    -0.360 NA
ATOM      8  H   LIG    1       23.767 -21.226   8.902  0.00  0.00    +0.165 HD
ATOM      9  C   LIG    1       27.058 -20.652   5.938  0.00  0.00    +0.015 C 
ATOM     10  C   LIG    1       23.659 -21.667   6.833  0.00  0.00    +0.087 C 
ENDROOT
BRANCH   1  11
ATOM     11  C   LIG    1       24.357 -21.858   4.375  0.00  0.00    +0.052 C 
BRANCH  11  12
ATOM     12  C   LIG    1       23.939 -20.639   3.528  0.00  0.00    +0.088 C 
BRANCH  12  14
ATOM     13  C   LIG    1       24.754 -18.364   3.654  0.00  0.00    +0.104 C 
ATOM     14  N   LIG    1       23.882 -19.363   4.281  0.00  0.00    -0.308 NA
ATOM     15  C   LIG    1       22.521 -18.832   4.384  0.00  0.00    +0.104 C 
ENDBRANCH  12  14
ENDBRANCH  11  12
ENDBRANCH   1  11
BRANCH   6  16
ATOM     16  C   LIG    1       29.442 -19.894   6.319  0.00  0.00    +0.180 C 
BRANCH  16  17
ATOM     17  N   LIG    1       30.353 -19.580   7.405  0.00  0.00    -0.248 NA
ATOM     18  N   LIG    1       30.725 -18.308   7.668  0.00  0.00    -0.158 NA
ATOM     19  C   LIG    1       31.534 -18.483   8.714  0.00  0.00    +0.244 C 
ATOM     20  N   LIG    1       31.727 -19.781   9.094  0.00  0.00    -0.223 NA
ATOM     21  C   LIG    1       30.977 -20.448   8.248  0.00  0.00    +0.219 C 
ENDBRANCH  16  17
ENDBRANCH   6  16
TORSDOF 5
ENDMDL
MODEL 8
REMARK VINA RESULT:      -7.6      1.703      7.429
REMARK  Name = *****
REMARK                            x       y       z     vdW  Elec       q    Type
REMARK                         _______ _______ _______ _____ _____    ______ ____
ROOT
ATOM      1  C   LIG    1       28.131 -20.052   6.428  0.00  0.00    -0.021 C 
ATOM      2  C   LIG    1       26.842 -20.652   6.235  0.00  0.00    +0.003 C 
ATOM      3  C   LIG    1       26.275 -20.068   5.105  0.00  0.00    +0.047 C 
ATOM      4  C   LIG    1       25.014 -20.423   4.614  0.00  0.00    +0.026 C 
ATOM      5  C   LIG    1       24.320 -21.434   5.288  0.00  0.00    +0.007 C 
ATOM      6  C   LIG    1       24.852 -22.062   6.421  0.00  0.00    -0.025 C 
ATOM      7  N   LIG    1       27.173 -19.143   4.626  0.00  0.00    -0.360 NA
ATOM      8  H   LIG    1       27.026 -18.571   3.810  0.00  0.00    +0.165 HD
ATOM      9  C   LIG    1       26.109 -21.651   6.912  0.00  0.00    +0.015 C 
ATOM     10  C   LIG    1       28.297 -19.134   5.408  0.00  0.00    +0.087 C 
ENDROOT
BRANCH   1  11
ATOM     11  C   LIG    1       29.120 -20.325   7.522  0.00  0.00    +0.052 C 
BRANCH  11  12
ATOM     12  C   LIG    1       30.530 -19.775   7.224  0.00  0.00    +0.088 C 
BRANCH  12  14
ATOM     13  C   LIG    1       31.552 -18.904   9.237  0.00  0.00    +0.104 C 
ATOM     14  N   LIG    1       31.523 -20.029   8.295  0.00  0.00    -0.308 NA
ATOM     15  C   LIG    1       31.259 -21.272   9.023  0.00  0.00    +0.104 C 
ENDBRANCH  12  14
ENDBRANCH  11  12
ENDBRANCH   1  11
BRANCH   6  16
ATOM     16  C   LIG    1       24.104 -23.183   7.103  0.00  0.00    +0.180 C 
BRANCH  16  17
ATOM     17  N   LIG    1       24.537 -24.484   6.625  0.00  0.00    -0.248 NA
ATOM     18  N   LIG    1       23.647 -25.423   6.233  0.00  0.00    -0.158 NA
ATOM     19  C   LIG    1       24.459 -26.421   5.879  0.00  0.00    +0.244 C 
ATOM     20  N   LIG    1       25.792 -26.184   6.065  0.00  0.00    -0.223 NA
ATOM     21  C   LIG    1       25.809 -24.961   6.542  0.00  0.00    +0.219 C 
ENDBRANCH  16  17
ENDBRANCH   6  16
TORSDOF 5
ENDMDL
MODEL 9
REMARK VINA RESULT:      -7.3      2.498      4.424
REMARK  Name = *****
REMARK                            x       y       z     vdW  Elec       q    Type
REMARK                         _______ _______ _______ _____ _____    ______ ____
ROOT
ATOM      1  C   LIG    1       25.503 -24.743   6.211  0.00  0.00    -0.021 C 
ATOM      2  C   LIG    1       25.728 -23.347   6.453  0.00  0.00    +0.003 C 
ATOM      3  C   LIG    1       25.111 -22.641   5.425  0.00  0.00    +0.047 C 
ATOM      4  C   LIG    1       25.121 -21.244   5.346  0.00  0.00    +0.026 C 
ATOM      5  C   LIG    1       25.763 -20.544   6.373  0.00  0.00    +0.007 C 
ATOM      6  C   LIG    1       26.387 -21.208   7.437  0.00  0.00    -0.025 C 
ATOM      7  N   LIG    1       24.534 -23.562   4.581  0.00  0.00    -0.360 NA
ATOM      8  H   LIG    1       24.015 -23.331   3.750  0.00  0.00    +0.165 HD
ATOM      9  C   LIG    1       26.392 -22.618   7.463  0.00  0.00    +0.015 C 
ATOM     10  C   LIG    1       24.756 -24.829   5.052  0.00  0.00    +0.087 C 
ENDROOT
BRANCH   1  11
ATOM     11  C   LIG    1       25.987 -25.909   7.022  0.00  0.00    +0.052 C 
BRANCH  11  12
ATOM     12  C   LIG    1       25.880 -27.257   6.279  0.00  0.00    +0.088 C 
BRANCH  12  14
ATOM     13  C   LIG    1       24.115 -28.749   5.564  0.00  0.00    +0.104 C 
ATOM     14  N   LIG    1       24.751 -28.110   6.722  0.00  0.00    -0.308 NA
ATOM     15  C   LIG    1       25.164 -29.134   7.683  0.00  0.00    +0.104 C 
ENDBRANCH  12  14
ENDBRANCH  11  12
ENDBRANCH   1  11
BRANCH   6  16
ATOM     16  C   LIG    1       27.033 -20.428   8.559  0.00  0.00    +0.180 C 
BRANCH  16  17
ATOM     17  N   LIG    1       28.422 -20.120   8.267  0.00  0.00    -0.248 NA
ATOM     18  N   LIG    1       29.043 -19.061   8.832  0.00  0.00    -0.158 NA
ATOM     19  C   LIG    1       30.264 -19.162   8.304  0.00  0.00    +0.244 C 
ATOM     20  N   LIG    1       30.433 -20.185   7.415  0.00  0.00    -0.223 NA
ATOM     21  C   LIG    1       29.257 -20.766   7.408  0.00  0.00    +0.219 C 
ENDBRANCH  16  17
ENDBRANCH   6  16
TORSDOF 5
ENDMDL
