MODEL 1
REMARK VINA RESULT:     -10.2      0.000      0.000
REMARK  Name = *****
REMARK                            x       y       z     vdW  Elec       q    Type
REMARK                         _______ _______ _______ _____ _____    ______ ____
ROOT
ATOM      1  C   LIG    1       24.214 -31.379  10.497  0.00  0.00    +0.033 A 
ATOM      2  C   LIG    1       24.306 -31.530   9.104  0.00  0.00    +0.070 A 
ATOM      3  C   LIG    1       24.746 -30.511   8.236  0.00  0.00    +0.142 A 
ATOM      4  C   LIG    1       25.286 -29.338   8.773  0.00  0.00    +0.081 A 
ATOM      5  C   LIG    1       25.288 -29.193  10.168  0.00  0.00    +0.018 A 
ATOM      6  C   LIG    1       24.761 -30.194  11.010  0.00  0.00    +0.024 A 
ENDROOT
BRANCH   1  10
ATOM      7  N   LIG    1       22.052 -33.601  13.584  0.00  0.00    -0.295 NA
ATOM      8  C   LIG    1       21.437 -33.341  12.273  0.00  0.00    +0.103 C 
ATOM      9  C   LIG    1       22.111 -32.327  11.316  0.00  0.00    +0.120 C 
ATOM     10  N   LIG    1       23.604 -32.387  11.285  0.00  0.00    -0.327 N 
ATOM     11  C   LIG    1       24.233 -32.704  12.584  0.00  0.00    +0.120 C 
ATOM     12  C   LIG    1       23.495 -33.820  13.363  0.00  0.00    +0.103 C 
BRANCH   7  13
ATOM     13  C   LIG    1       21.760 -32.625  14.658  0.00  0.00    +0.115 C 
BRANCH  13  18
ATOM     14  C   LIG    1       16.865 -30.749  15.119  0.00  0.00    +0.011 C 
ATOM     15  C   LIG    1       17.559 -31.249  13.836  0.00  0.00    -0.031 C 
ATOM     16  C   LIG    1       18.752 -30.326  13.452  0.00  0.00    +0.042 C 
ATOM     17  C   LIG    1       20.173 -30.677  13.955  0.00  0.00    -0.039 C 
ATOM     18  C   LIG    1       20.418 -31.910  14.481  0.00  0.00    -0.052 C 
ATOM     19  C   LIG    1       19.244 -32.730  14.989  0.00  0.00    +0.033 C 
ATOM     20  C   LIG    1       18.056 -32.685  14.043  0.00  0.00    +0.011 C 
ATOM     21  C   LIG    1       16.503 -31.251  12.705  0.00  0.00    +0.011 C 
BRANCH  17  22
ATOM     22  C   LIG    1       21.188 -29.583  13.753  0.00  0.00    -0.022 A 
ATOM     23  C   LIG    1       22.390 -29.542  14.487  0.00  0.00    +0.009 A 
ATOM     24  C   LIG    1       23.230 -28.412  14.466  0.00  0.00    +0.020 A 
ATOM     25  C   LIG    1       22.897 -27.310  13.687  0.00  0.00    +0.041 A 
ATOM     26 CL   LIG    1       23.908 -25.919  13.673  0.00  0.00    -0.084 Cl
ATOM     27  C   LIG    1       21.738 -27.333  12.923  0.00  0.00    +0.020 A 
ATOM     28  C   LIG    1       20.892 -28.452  12.968  0.00  0.00    +0.009 A 
ENDBRANCH  17  22
ENDBRANCH  13  18
ENDBRANCH   7  13
ENDBRANCH   1  10
BRANCH   4  29
ATOM     29  C   LIG    1       25.919 -28.266   7.961  0.00  0.00    +0.267 C 
ATOM     30  N   LIG    1       25.235 -27.924   6.769  0.00  0.00    -0.181 N 
ATOM     31  H   LIG    1       24.318 -28.303   6.583  0.00  0.00    +0.177 HD
ATOM     32  O   LIG    1       27.003 -27.790   8.288  0.00  0.00    -0.269 OA
BRANCH  30  33
ATOM     33  S   LIG    1       25.689 -26.755   5.675  0.00  0.00    +0.075 S 
ATOM     34  O   LIG    1       24.987 -26.900   4.399  0.00  0.00    -0.150 OA
ATOM     35  O   LIG    1       27.120 -26.713   5.747  0.00  0.00    -0.150 OA
BRANCH  33  36
ATOM     36  C   LIG    1       25.064 -25.283   6.459  0.00  0.00    +0.115 A 
ATOM     37  C   LIG    1       25.953 -24.359   6.998  0.00  0.00    +0.115 A 
ATOM     38  C   LIG    1       25.451 -23.125   7.442  0.00  0.00    +0.296 A 
ATOM     39  C   LIG    1       24.079 -22.784   7.397  0.00  0.00    +0.105 A 
ATOM     40  C   LIG    1       23.217 -23.775   6.899  0.00  0.00    +0.032 A 
ATOM     41  C   LIG    1       23.697 -25.016   6.441  0.00  0.00    +0.031 A 
BRANCH  38  42
ATOM     42  N   LIG    1       26.421 -22.209   8.017  0.00  0.00    +0.082 N 
ATOM     43  O   LIG    1       26.208 -21.836   9.181  0.00  0.00    -0.576 OA
ATOM     44  O   LIG    1       27.426 -21.940   7.347  0.00  0.00    +0.042 OA
ENDBRANCH  38  42
BRANCH  39  45
ATOM     45  N   LIG    1       23.631 -21.482   7.688  0.00  0.00    -0.338 N 
ATOM     46  H   LIG    1       24.012 -21.204   8.596  0.00  0.00    +0.146 HD
BRANCH  45  47
ATOM     47  C   LIG    1       23.731 -20.410   6.684  0.00  0.00    +0.105 C 
BRANCH  47  48
ATOM     48  C   LIG    1       23.197 -20.865   5.299  0.00  0.00    +0.010 C 
ATOM     49  C   LIG    1       22.093 -19.957   4.732  0.00  0.00    +0.033 C 
ATOM     50  C   LIG    1       22.651 -18.605   4.311  0.00  0.00    +0.160 C 
ATOM     51  O   LIG    1       23.654 -18.774   3.311  0.00  0.00    -0.380 OA
ATOM     52  C   LIG    1       24.762 -19.551   3.762  0.00  0.00    +0.160 C 
ATOM     53  C   LIG    1       24.318 -20.933   4.240  0.00  0.00    +0.033 C 
ENDBRANCH  47  48
ENDBRANCH  45  47
ENDBRANCH  39  45
ENDBRANCH  33  36
ENDBRANCH  30  33
ENDBRANCH   4  29
BRANCH   3  54
ATOM     54  O   LIG    1       24.650 -30.651   6.861  0.00  0.00    -0.454 OA
BRANCH  54  55
ATOM     55  C   LIG    1       25.501 -31.531   6.220  0.00  0.00    +0.147 A 
ATOM     56  C   LIG    1       25.506 -31.520   4.824  0.00  0.00    +0.059 A 
ATOM     57  C   LIG    1       26.387 -32.406   4.176  0.00  0.00    +0.022 A 
ATOM     58  C   LIG    1       27.266 -33.133   4.973  0.00  0.00    +0.138 A 
ATOM     59  N   LIG    1       28.118 -33.817   4.154  0.00  0.00    -0.346 N 
ATOM     60  H   LIG    1       28.899 -34.362   4.490  0.00  0.00    +0.167 HD
ATOM     61  C   LIG    1       27.677 -33.722   2.860  0.00  0.00    +0.085 A 
ATOM     62  N   LIG    1       27.299 -33.196   6.313  0.00  0.00    -0.234 NA
ATOM     63  C   LIG    1       26.624 -32.829   2.838  0.00  0.00    +0.029 A 
ATOM     64  C   LIG    1       26.333 -32.439   6.882  0.00  0.00    +0.159 A 
ENDBRANCH  54  55
ENDBRANCH   3  54
TORSDOF 13
ENDMDL
MODEL 2
REMARK VINA RESULT:      -9.3      4.106     11.367
REMARK  Name = *****
REMARK                            x       y       z     vdW  Elec       q    Type
REMARK                         _______ _______ _______ _____ _____    ______ ____
ROOT
ATOM      1  C   LIG    1       25.396 -28.443   7.496  0.00  0.00    +0.033 A 
ATOM      2  C   LIG    1       26.511 -28.599   8.334  0.00  0.00    +0.070 A 
ATOM      3  C   LIG    1       26.577 -29.545   9.376  0.00  0.00    +0.142 A 
ATOM      4  C   LIG    1       25.568 -30.506   9.497  0.00  0.00    +0.081 A 
ATOM      5  C   LIG    1       24.479 -30.430   8.615  0.00  0.00    +0.018 A 
ATOM      6  C   LIG    1       24.396 -29.418   7.637  0.00  0.00    +0.024 A 
ENDROOT
BRANCH   1  10
ATOM      7  N   LIG    1       25.091 -24.495   5.636  0.00  0.00    -0.295 NA
ATOM      8  C   LIG    1       26.391 -25.176   5.751  0.00  0.00    +0.103 C 
ATOM      9  C   LIG    1       26.503 -26.431   6.650  0.00  0.00    +0.120 C 
ATOM     10  N   LIG    1       25.335 -27.361   6.584  0.00  0.00    -0.327 N 
ATOM     11  C   LIG    1       24.028 -26.693   6.410  0.00  0.00    +0.120 C 
ATOM     12  C   LIG    1       24.067 -25.529   5.390  0.00  0.00    +0.103 C 
BRANCH   7  13
ATOM     13  C   LIG    1       24.736 -23.558   6.726  0.00  0.00    +0.115 C 
BRANCH  13  18
ATOM     14  C   LIG    1       22.578 -18.854   5.772  0.00  0.00    +0.011 C 
ATOM     15  C   LIG    1       23.227 -19.810   4.752  0.00  0.00    -0.031 C 
ATOM     16  C   LIG    1       24.751 -19.967   5.026  0.00  0.00    +0.042 C 
ATOM     17  C   LIG    1       25.244 -21.129   5.923  0.00  0.00    -0.039 C 
ATOM     18  C   LIG    1       24.396 -22.150   6.231  0.00  0.00    -0.052 C 
ATOM     19  C   LIG    1       22.901 -21.919   6.097  0.00  0.00    +0.033 C 
ATOM     20  C   LIG    1       22.542 -21.181   4.818  0.00  0.00    +0.011 C 
ATOM     21  C   LIG    1       23.000 -19.213   3.343  0.00  0.00    +0.011 C 
BRANCH  17  22
ATOM     22  C   LIG    1       26.689 -21.022   6.335  0.00  0.00    -0.022 A 
ATOM     23  C   LIG    1       27.192 -21.706   7.459  0.00  0.00    +0.009 A 
ATOM     24  C   LIG    1       28.473 -21.435   7.976  0.00  0.00    +0.020 A 
ATOM     25  C   LIG    1       29.289 -20.493   7.359  0.00  0.00    +0.041 A 
ATOM     26 CL   LIG    1       30.847 -20.143   7.998  0.00  0.00    -0.084 Cl
ATOM     27  C   LIG    1       28.838 -19.829   6.227  0.00  0.00    +0.020 A 
ATOM     28  C   LIG    1       27.550 -20.084   5.732  0.00  0.00    +0.009 A 
ENDBRANCH  17  22
ENDBRANCH  13  18
ENDBRANCH   7  13
ENDBRANCH   1  10
BRANCH   4  29
ATOM     29  C   LIG    1       25.609 -31.641  10.454  0.00  0.00    +0.267 C 
ATOM     30  N   LIG    1       24.822 -31.480  11.622  0.00  0.00    -0.181 N 
ATOM     31  H   LIG    1       24.187 -30.699  11.701  0.00  0.00    +0.177 HD
ATOM     32  O   LIG    1       26.349 -32.602  10.256  0.00  0.00    -0.269 OA
BRANCH  30  33
ATOM     33  S   LIG    1       24.656 -32.583  12.856  0.00  0.00    +0.075 S 
ATOM     34  O   LIG    1       25.831 -32.606  13.729  0.00  0.00    -0.150 OA
ATOM     35  O   LIG    1       24.160 -33.772  12.229  0.00  0.00    -0.150 OA
BRANCH  33  36
ATOM     36  C   LIG    1       23.318 -31.864  13.787  0.00  0.00    +0.115 A 
ATOM     37  C   LIG    1       22.950 -30.544  13.556  0.00  0.00    +0.115 A 
ATOM     38  C   LIG    1       21.781 -30.057  14.163  0.00  0.00    +0.296 A 
ATOM     39  C   LIG    1       20.972 -30.835  15.025  0.00  0.00    +0.105 A 
ATOM     40  C   LIG    1       21.422 -32.143  15.271  0.00  0.00    +0.032 A 
ATOM     41  C   LIG    1       22.585 -32.655  14.669  0.00  0.00    +0.031 A 
BRANCH  38  42
ATOM     42  N   LIG    1       21.457 -28.664  13.905  0.00  0.00    +0.082 N 
ATOM     43  O   LIG    1       21.088 -28.384  12.754  0.00  0.00    -0.576 OA
ATOM     44  O   LIG    1       21.481 -27.882  14.864  0.00  0.00    +0.042 OA
ENDBRANCH  38  42
BRANCH  39  45
ATOM     45  N   LIG    1       19.721 -30.377  15.478  0.00  0.00    -0.338 N 
ATOM     46  H   LIG    1       19.712 -29.355  15.425  0.00  0.00    +0.146 HD
BRANCH  45  47
ATOM     47  C   LIG    1       18.474 -30.977  14.980  0.00  0.00    +0.105 C 
BRANCH  47  48
ATOM     48  C   LIG    1       18.109 -30.458  13.562  0.00  0.00    +0.010 C 
ATOM     49  C   LIG    1       18.692 -31.310  12.422  0.00  0.00    +0.033 C 
ATOM     50  C   LIG    1       18.002 -32.665  12.337  0.00  0.00    +0.160 C 
ATOM     51  O   LIG    1       16.605 -32.494  12.105  0.00  0.00    -0.380 OA
ATOM     52  C   LIG    1       15.954 -31.770  13.145  0.00  0.00    +0.160 C 
ATOM     53  C   LIG    1       16.582 -30.391  13.345  0.00  0.00    +0.033 C 
ENDBRANCH  47  48
ENDBRANCH  45  47
ENDBRANCH  39  45
ENDBRANCH  33  36
ENDBRANCH  30  33
ENDBRANCH   4  29
BRANCH   3  54
ATOM     54  O   LIG    1       27.625 -29.539  10.284  0.00  0.00    -0.454 OA
BRANCH  54  55
ATOM     55  C   LIG    1       27.460 -28.877  11.485  0.00  0.00    +0.147 A 
ATOM     56  C   LIG    1       26.888 -27.603  11.445  0.00  0.00    +0.059 A 
ATOM     57  C   LIG    1       26.706 -26.941  12.673  0.00  0.00    +0.022 A 
ATOM     58  C   LIG    1       26.996 -27.650  13.834  0.00  0.00    +0.138 A 
ATOM     59  N   LIG    1       26.625 -26.888  14.904  0.00  0.00    -0.346 N 
ATOM     60  H   LIG    1       26.664 -27.211  15.860  0.00  0.00    +0.167 HD
ATOM     61  C   LIG    1       26.306 -25.627  14.474  0.00  0.00    +0.085 A 
ATOM     62  N   LIG    1       27.559 -28.865  13.935  0.00  0.00    -0.234 NA
ATOM     63  C   LIG    1       26.317 -25.638  13.093  0.00  0.00    +0.029 A 
ATOM     64  C   LIG    1       27.849 -29.394  12.725  0.00  0.00    +0.159 A 
ENDBRANCH  54  55
ENDBRANCH   3  54
TORSDOF 13
ENDMDL
MODEL 3
REMARK VINA RESULT:      -8.9      3.903     11.045
REMARK  Name = *****
REMARK                            x       y       z     vdW  Elec       q    Type
REMARK                         _______ _______ _______ _____ _____    ______ ____
ROOT
ATOM      1  C   LIG    1       24.960 -28.052   6.631  0.00  0.00    +0.033 A 
ATOM      2  C   LIG    1       25.085 -28.349   7.997  0.00  0.00    +0.070 A 
ATOM      3  C   LIG    1       24.558 -29.512   8.594  0.00  0.00    +0.142 A 
ATOM      4  C   LIG    1       24.027 -30.520   7.782  0.00  0.00    +0.081 A 
ATOM      5  C   LIG    1       23.966 -30.288   6.400  0.00  0.00    +0.018 A 
ATOM      6  C   LIG    1       24.423 -29.078   5.839  0.00  0.00    +0.024 A 
ENDROOT
BRANCH   1  10
ATOM      7  N   LIG    1       25.436 -23.774   5.843  0.00  0.00    -0.295 NA
ATOM      8  C   LIG    1       26.429 -24.508   6.646  0.00  0.00    +0.103 C 
ATOM      9  C   LIG    1       26.090 -25.939   7.131  0.00  0.00    +0.120 C 
ATOM     10  N   LIG    1       25.366 -26.788   6.136  0.00  0.00    -0.327 N 
ATOM     11  C   LIG    1       24.408 -26.053   5.284  0.00  0.00    +0.120 C 
ATOM     12  C   LIG    1       24.950 -24.689   4.792  0.00  0.00    +0.103 C 
BRANCH   7  13
ATOM     13  C   LIG    1       24.349 -23.101   6.589  0.00  0.00    +0.115 C 
BRANCH  13  18
ATOM     14  C   LIG    1       22.165 -18.457   5.421  0.00  0.00    +0.011 C 
ATOM     15  C   LIG    1       22.892 -19.418   4.459  0.00  0.00    -0.031 C 
ATOM     16  C   LIG    1       24.399 -19.540   4.827  0.00  0.00    +0.042 C 
ATOM     17  C   LIG    1       24.859 -20.676   5.772  0.00  0.00    -0.039 C 
ATOM     18  C   LIG    1       24.014 -21.708   6.049  0.00  0.00    -0.052 C 
ATOM     19  C   LIG    1       22.525 -21.509   5.822  0.00  0.00    +0.033 C 
ATOM     20  C   LIG    1       22.229 -20.800   4.510  0.00  0.00    +0.011 C 
ATOM     21  C   LIG    1       22.738 -18.850   3.028  0.00  0.00    +0.011 C 
BRANCH  17  22
ATOM     22  C   LIG    1       26.274 -20.533   6.267  0.00  0.00    -0.022 A 
ATOM     23  C   LIG    1       26.610 -20.728   7.622  0.00  0.00    +0.009 A 
ATOM     24  C   LIG    1       27.876 -20.379   8.127  0.00  0.00    +0.020 A 
ATOM     25  C   LIG    1       28.845 -19.854   7.278  0.00  0.00    +0.041 A 
ATOM     26 CL   LIG    1       30.388 -19.406   7.893  0.00  0.00    -0.084 Cl
ATOM     27  C   LIG    1       28.560 -19.685   5.930  0.00  0.00    +0.020 A 
ATOM     28  C   LIG    1       27.286 -20.010   5.439  0.00  0.00    +0.009 A 
ENDBRANCH  17  22
ENDBRANCH  13  18
ENDBRANCH   7  13
ENDBRANCH   1  10
BRANCH   4  29
ATOM     29  C   LIG    1       23.585 -31.847   8.285  0.00  0.00    +0.267 C 
ATOM     30  N   LIG    1       22.773 -31.816   9.445  0.00  0.00    -0.181 N 
ATOM     31  H   LIG    1       22.427 -30.937   9.799  0.00  0.00    +0.177 HD
ATOM     32  O   LIG    1       23.983 -32.882   7.756  0.00  0.00    -0.269 OA
BRANCH  30  33
ATOM     33  S   LIG    1       22.116 -33.133  10.221  0.00  0.00    +0.075 S 
ATOM     34  O   LIG    1       23.103 -33.824  11.054  0.00  0.00    -0.150 OA
ATOM     35  O   LIG    1       21.366 -33.824   9.214  0.00  0.00    -0.150 OA
BRANCH  33  36
ATOM     36  C   LIG    1       20.954 -32.348  11.319  0.00  0.00    +0.115 A 
ATOM     37  C   LIG    1       20.607 -32.968  12.514  0.00  0.00    +0.115 A 
ATOM     38  C   LIG    1       19.840 -32.250  13.444  0.00  0.00    +0.296 A 
ATOM     39  C   LIG    1       19.373 -30.934  13.215  0.00  0.00    +0.105 A 
ATOM     40  C   LIG    1       19.700 -30.377  11.968  0.00  0.00    +0.032 A 
ATOM     41  C   LIG    1       20.475 -31.073  11.023  0.00  0.00    +0.031 A 
BRANCH  38  42
ATOM     42  N   LIG    1       19.487 -32.956  14.665  0.00  0.00    +0.082 N 
ATOM     43  O   LIG    1       18.280 -33.003  14.949  0.00  0.00    -0.576 OA
ATOM     44  O   LIG    1       20.394 -33.532  15.278  0.00  0.00    +0.042 OA
ENDBRANCH  38  42
BRANCH  39  45
ATOM     45  N   LIG    1       18.755 -30.183  14.231  0.00  0.00    -0.338 N 
ATOM     46  H   LIG    1       19.267 -30.334  15.104  0.00  0.00    +0.146 HD
BRANCH  45  47
ATOM     47  C   LIG    1       18.413 -28.767  14.019  0.00  0.00    +0.105 C 
BRANCH  47  48
ATOM     48  C   LIG    1       19.349 -27.821  14.818  0.00  0.00    +0.010 C 
ATOM     49  C   LIG    1       20.844 -28.120  14.624  0.00  0.00    +0.033 C 
ATOM     50  C   LIG    1       21.307 -27.743  13.223  0.00  0.00    +0.160 C 
ATOM     51  O   LIG    1       21.090 -26.353  12.989  0.00  0.00    -0.380 OA
ATOM     52  C   LIG    1       19.717 -25.982  13.079  0.00  0.00    +0.160 C 
ATOM     53  C   LIG    1       19.129 -26.338  14.444  0.00  0.00    +0.033 C 
ENDBRANCH  47  48
ENDBRANCH  45  47
ENDBRANCH  39  45
ENDBRANCH  33  36
ENDBRANCH  30  33
ENDBRANCH   4  29
BRANCH   3  54
ATOM     54  O   LIG    1       24.554 -29.672   9.970  0.00  0.00    -0.454 OA
BRANCH  54  55
ATOM     55  C   LIG    1       25.744 -29.532  10.659  0.00  0.00    +0.147 A 
ATOM     56  C   LIG    1       25.685 -28.968  11.936  0.00  0.00    +0.059 A 
ATOM     57  C   LIG    1       26.897 -28.844  12.641  0.00  0.00    +0.022 A 
ATOM     58  C   LIG    1       28.034 -29.400  12.064  0.00  0.00    +0.138 A 
ATOM     59  N   LIG    1       29.061 -29.296  12.958  0.00  0.00    -0.346 N 
ATOM     60  H   LIG    1       29.976 -29.693  12.806  0.00  0.00    +0.167 HD
ATOM     61  C   LIG    1       28.672 -28.499  14.004  0.00  0.00    +0.085 A 
ATOM     62  N   LIG    1       28.155 -29.938  10.841  0.00  0.00    -0.234 NA
ATOM     63  C   LIG    1       27.327 -28.229  13.850  0.00  0.00    +0.029 A 
ATOM     64  C   LIG    1       26.993 -29.897  10.149  0.00  0.00    +0.159 A 
ENDBRANCH  54  55
ENDBRANCH   3  54
TORSDOF 13
ENDMDL
MODEL 4
REMARK VINA RESULT:      -8.8      3.666     10.612
REMARK  Name = *****
REMARK                            x       y       z     vdW  Elec       q    Type
REMARK                         _______ _______ _______ _____ _____    ______ ____
ROOT
ATOM      1  C   LIG    1       25.540 -28.276   7.520  0.00  0.00    +0.033 A 
ATOM      2  C   LIG    1       25.053 -29.549   7.181  0.00  0.00    +0.070 A 
ATOM      3  C   LIG    1       25.246 -30.695   7.978  0.00  0.00    +0.142 A 
ATOM      4  C   LIG    1       25.796 -30.558   9.257  0.00  0.00    +0.081 A 
ATOM      5  C   LIG    1       26.215 -29.281   9.659  0.00  0.00    +0.018 A 
ATOM      6  C   LIG    1       26.088 -28.165   8.806  0.00  0.00    +0.024 A 
ENDROOT
BRANCH   1  10
ATOM      7  N   LIG    1       25.056 -24.378   5.593  0.00  0.00    -0.295 NA
ATOM      8  C   LIG    1       26.394 -24.959   5.794  0.00  0.00    +0.103 C 
ATOM      9  C   LIG    1       26.544 -26.194   6.715  0.00  0.00    +0.120 C 
ATOM     10  N   LIG    1       25.454 -27.209   6.592  0.00  0.00    -0.327 N 
ATOM     11  C   LIG    1       24.114 -26.642   6.332  0.00  0.00    +0.120 C 
ATOM     12  C   LIG    1       24.128 -25.488   5.301  0.00  0.00    +0.103 C 
BRANCH   7  13
ATOM     13  C   LIG    1       24.568 -23.461   6.647  0.00  0.00    +0.115 C 
BRANCH  13  18
ATOM     14  C   LIG    1       22.535 -18.717   5.621  0.00  0.00    +0.011 C 
ATOM     15  C   LIG    1       23.176 -19.697   4.618  0.00  0.00    -0.031 C 
ATOM     16  C   LIG    1       24.692 -19.887   4.917  0.00  0.00    +0.042 C 
ATOM     17  C   LIG    1       25.144 -21.052   5.830  0.00  0.00    -0.039 C 
ATOM     18  C   LIG    1       24.269 -22.050   6.135  0.00  0.00    -0.052 C 
ATOM     19  C   LIG    1       22.781 -21.785   5.977  0.00  0.00    +0.033 C 
ATOM     20  C   LIG    1       22.458 -21.051   4.686  0.00  0.00    +0.011 C 
ATOM     21  C   LIG    1       22.984 -19.108   3.201  0.00  0.00    +0.011 C 
BRANCH  17  22
ATOM     22  C   LIG    1       26.585 -20.975   6.263  0.00  0.00    -0.022 A 
ATOM     23  C   LIG    1       27.060 -21.676   7.388  0.00  0.00    +0.009 A 
ATOM     24  C   LIG    1       28.339 -21.433   7.925  0.00  0.00    +0.020 A 
ATOM     25  C   LIG    1       29.181 -20.502   7.326  0.00  0.00    +0.041 A 
ATOM     26 CL   LIG    1       30.736 -20.186   7.989  0.00  0.00    -0.084 Cl
ATOM     27  C   LIG    1       28.758 -19.821   6.193  0.00  0.00    +0.020 A 
ATOM     28  C   LIG    1       27.472 -20.049   5.679  0.00  0.00    +0.009 A 
ENDBRANCH  17  22
ENDBRANCH  13  18
ENDBRANCH   7  13
ENDBRANCH   1  10
BRANCH   4  29
ATOM     29  C   LIG    1       25.904 -31.668  10.239  0.00  0.00    +0.267 C 
ATOM     30  N   LIG    1       25.093 -31.536  11.393  0.00  0.00    -0.181 N 
ATOM     31  H   LIG    1       24.405 -30.800  11.449  0.00  0.00    +0.177 HD
ATOM     32  O   LIG    1       26.710 -32.579  10.070  0.00  0.00    -0.269 OA
BRANCH  30  33
ATOM     33  S   LIG    1       24.987 -32.622  12.649  0.00  0.00    +0.075 S 
ATOM     34  O   LIG    1       26.198 -32.624  13.473  0.00  0.00    -0.150 OA
ATOM     35  O   LIG    1       24.476 -33.825  12.061  0.00  0.00    -0.150 OA
BRANCH  33  36
ATOM     36  C   LIG    1       23.684 -31.900  13.625  0.00  0.00    +0.115 A 
ATOM     37  C   LIG    1       23.312 -30.578  13.408  0.00  0.00    +0.115 A 
ATOM     38  C   LIG    1       22.166 -30.089  14.054  0.00  0.00    +0.296 A 
ATOM     39  C   LIG    1       21.384 -30.865  14.941  0.00  0.00    +0.105 A 
ATOM     40  C   LIG    1       21.837 -32.174  15.172  0.00  0.00    +0.032 A 
ATOM     41  C   LIG    1       22.978 -32.690  14.530  0.00  0.00    +0.031 A 
BRANCH  38  42
ATOM     42  N   LIG    1       21.838 -28.694  13.809  0.00  0.00    +0.082 N 
ATOM     43  O   LIG    1       21.317 -28.432  12.714  0.00  0.00    -0.576 OA
ATOM     44  O   LIG    1       22.014 -27.892  14.734  0.00  0.00    +0.042 OA
ENDBRANCH  38  42
BRANCH  39  45
ATOM     45  N   LIG    1       20.150 -30.403  15.436  0.00  0.00    -0.338 N 
ATOM     46  H   LIG    1       20.141 -29.381  15.380  0.00  0.00    +0.146 HD
BRANCH  45  47
ATOM     47  C   LIG    1       18.885 -31.002  14.984  0.00  0.00    +0.105 C 
BRANCH  47  48
ATOM     48  C   LIG    1       18.372 -30.348  13.673  0.00  0.00    +0.010 C 
ATOM     49  C   LIG    1       18.642 -31.189  12.414  0.00  0.00    +0.033 C 
ATOM     50  C   LIG    1       17.768 -32.436  12.385  0.00  0.00    +0.160 C 
ATOM     51  O   LIG    1       16.389 -32.073  12.399  0.00  0.00    -0.380 OA
ATOM     52  C   LIG    1       16.019 -31.343  13.566  0.00  0.00    +0.160 C 
ATOM     53  C   LIG    1       16.854 -30.072  13.718  0.00  0.00    +0.033 C 
ENDBRANCH  47  48
ENDBRANCH  45  47
ENDBRANCH  39  45
ENDBRANCH  33  36
ENDBRANCH  30  33
ENDBRANCH   4  29
BRANCH   3  54
ATOM     54  O   LIG    1       24.901 -31.955   7.514  0.00  0.00    -0.454 OA
BRANCH  54  55
ATOM     55  C   LIG    1       25.636 -32.509   6.484  0.00  0.00    +0.147 A 
ATOM     56  C   LIG    1       25.145 -32.352   5.186  0.00  0.00    +0.059 A 
ATOM     57  C   LIG    1       25.906 -32.903   4.139  0.00  0.00    +0.022 A 
ATOM     58  C   LIG    1       27.142 -33.453   4.464  0.00  0.00    +0.138 A 
ATOM     59  N   LIG    1       27.773 -33.801   3.305  0.00  0.00    -0.346 N 
ATOM     60  H   LIG    1       28.718 -34.154   3.268  0.00  0.00    +0.167 HD
ATOM     61  C   LIG    1       26.893 -33.691   2.259  0.00  0.00    +0.085 A 
ATOM     62  N   LIG    1       27.658 -33.645   5.688  0.00  0.00    -0.234 NA
ATOM     63  C   LIG    1       25.738 -33.107   2.741  0.00  0.00    +0.029 A 
ATOM     64  C   LIG    1       26.819 -33.231   6.665  0.00  0.00    +0.159 A 
ENDBRANCH  54  55
ENDBRANCH   3  54
TORSDOF 13
ENDMDL
MODEL 5
REMARK VINA RESULT:      -8.8      2.382      3.524
REMARK  Name = *****
REMARK                            x       y       z     vdW  Elec       q    Type
REMARK                         _______ _______ _______ _____ _____    ______ ____
ROOT
ATOM      1  C   LIG    1       26.133 -30.081  10.514  0.00  0.00    +0.033 A 
ATOM      2  C   LIG    1       25.664 -30.822   9.418  0.00  0.00    +0.070 A 
ATOM      3  C   LIG    1       25.350 -30.251   8.168  0.00  0.00    +0.142 A 
ATOM      4  C   LIG    1       25.673 -28.912   7.924  0.00  0.00    +0.081 A 
ATOM      5  C   LIG    1       26.224 -28.166   8.976  0.00  0.00    +0.018 A 
ATOM      6  C   LIG    1       26.448 -28.741  10.244  0.00  0.00    +0.024 A 
ENDROOT
BRANCH   1  10
ATOM      7  N   LIG    1       25.662 -31.297  14.691  0.00  0.00    -0.295 NA
ATOM      8  C   LIG    1       25.197 -32.165  13.596  0.00  0.00    +0.103 C 
ATOM      9  C   LIG    1       25.129 -31.588  12.160  0.00  0.00    +0.120 C 
ATOM     10  N   LIG    1       26.266 -30.694  11.785  0.00  0.00    -0.327 N 
ATOM     11  C   LIG    1       26.780 -29.859  12.890  0.00  0.00    +0.120 C 
ATOM     12  C   LIG    1       26.892 -30.622  14.232  0.00  0.00    +0.103 C 
BRANCH   7  13
ATOM     13  C   LIG    1       24.663 -30.373  15.273  0.00  0.00    +0.115 C 
BRANCH  13  18
ATOM     14  C   LIG    1       19.913 -30.223  13.010  0.00  0.00    +0.011 C 
ATOM     15  C   LIG    1       21.275 -30.425  12.316  0.00  0.00    -0.031 C 
ATOM     16  C   LIG    1       22.159 -29.150  12.440  0.00  0.00    +0.042 C 
ATOM     17  C   LIG    1       23.156 -29.032  13.618  0.00  0.00    -0.039 C 
ATOM     18  C   LIG    1       23.455 -30.132  14.363  0.00  0.00    -0.052 C 
ATOM     19  C   LIG    1       22.493 -31.308  14.341  0.00  0.00    +0.033 C 
ATOM     20  C   LIG    1       22.000 -31.625  12.938  0.00  0.00    +0.011 C 
ATOM     21  C   LIG    1       20.997 -30.736  10.826  0.00  0.00    +0.011 C 
BRANCH  17  22
ATOM     22  C   LIG    1       23.752 -27.659  13.787  0.00  0.00    -0.022 A 
ATOM     23  C   LIG    1       24.883 -27.246  13.055  0.00  0.00    +0.009 A 
ATOM     24  C   LIG    1       25.573 -26.060  13.369  0.00  0.00    +0.020 A 
ATOM     25  C   LIG    1       25.127 -25.247  14.406  0.00  0.00    +0.041 A 
ATOM     26 CL   LIG    1       25.979 -23.808  14.808  0.00  0.00    -0.084 Cl
ATOM     27  C   LIG    1       23.995 -25.606  15.123  0.00  0.00    +0.020 A 
ATOM     28  C   LIG    1       23.327 -26.804  14.822  0.00  0.00    +0.009 A 
ENDBRANCH  17  22
ENDBRANCH  13  18
ENDBRANCH   7  13
ENDBRANCH   1  10
BRANCH   4  29
ATOM     29  C   LIG    1       25.531 -28.250   6.601  0.00  0.00    +0.267 C 
ATOM     30  N   LIG    1       25.033 -26.924   6.637  0.00  0.00    -0.181 N 
ATOM     31  H   LIG    1       24.922 -26.447   7.520  0.00  0.00    +0.177 HD
ATOM     32  O   LIG    1       25.760 -28.867   5.564  0.00  0.00    -0.269 OA
BRANCH  30  33
ATOM     33  S   LIG    1       24.787 -25.930   5.326  0.00  0.00    +0.075 S 
ATOM     34  O   LIG    1       23.366 -25.804   4.995  0.00  0.00    -0.150 OA
ATOM     35  O   LIG    1       25.752 -26.350   4.353  0.00  0.00    -0.150 OA
BRANCH  33  36
ATOM     36  C   LIG    1       25.321 -24.359   5.974  0.00  0.00    +0.115 A 
ATOM     37  C   LIG    1       24.952 -23.185   5.328  0.00  0.00    +0.115 A 
ATOM     38  C   LIG    1       25.224 -21.960   5.955  0.00  0.00    +0.296 A 
ATOM     39  C   LIG    1       25.885 -21.855   7.202  0.00  0.00    +0.105 A 
ATOM     40  C   LIG    1       26.290 -23.068   7.783  0.00  0.00    +0.032 A 
ATOM     41  C   LIG    1       26.022 -24.309   7.178  0.00  0.00    +0.031 A 
BRANCH  38  42
ATOM     42  N   LIG    1       24.836 -20.765   5.224  0.00  0.00    +0.082 N 
ATOM     43  O   LIG    1       23.683 -20.348   5.414  0.00  0.00    -0.576 OA
ATOM     44  O   LIG    1       25.703 -20.202   4.542  0.00  0.00    +0.042 OA
ENDBRANCH  38  42
BRANCH  39  45
ATOM     45  N   LIG    1       25.989 -20.628   7.883  0.00  0.00    -0.338 N 
ATOM     46  H   LIG    1       25.504 -20.713   8.779  0.00  0.00    +0.146 HD
BRANCH  45  47
ATOM     47  C   LIG    1       27.285 -19.943   8.006  0.00  0.00    +0.105 C 
BRANCH  47  48
ATOM     48  C   LIG    1       28.324 -20.485   6.986  0.00  0.00    +0.010 C 
ATOM     49  C   LIG    1       28.932 -19.398   6.085  0.00  0.00    +0.033 C 
ATOM     50  C   LIG    1       29.863 -18.485   6.871  0.00  0.00    +0.160 C 
ATOM     51  O   LIG    1       30.926 -19.241   7.447  0.00  0.00    -0.380 OA
ATOM     52  C   LIG    1       30.469 -20.238   8.357  0.00  0.00    +0.160 C 
ATOM     53  C   LIG    1       29.497 -21.207   7.683  0.00  0.00    +0.033 C 
ENDBRANCH  47  48
ENDBRANCH  45  47
ENDBRANCH  39  45
ENDBRANCH  33  36
ENDBRANCH  30  33
ENDBRANCH   4  29
BRANCH   3  54
ATOM     54  O   LIG    1       24.725 -30.994   7.179  0.00  0.00    -0.454 OA
BRANCH  54  55
ATOM     55  C   LIG    1       25.499 -31.789   6.355  0.00  0.00    +0.147 A 
ATOM     56  C   LIG    1       25.166 -31.826   4.999  0.00  0.00    +0.059 A 
ATOM     57  C   LIG    1       25.968 -32.623   4.161  0.00  0.00    +0.022 A 
ATOM     58  C   LIG    1       27.095 -33.214   4.724  0.00  0.00    +0.138 A 
ATOM     59  N   LIG    1       27.801 -33.821   3.726  0.00  0.00    -0.346 N 
ATOM     60  H   LIG    1       28.701 -34.258   3.865  0.00  0.00    +0.167 HD
ATOM     61  C   LIG    1       27.054 -33.823   2.577  0.00  0.00    +0.085 A 
ATOM     62  N   LIG    1       27.456 -33.227   6.017  0.00  0.00    -0.234 NA
ATOM     63  C   LIG    1       25.926 -33.061   2.808  0.00  0.00    +0.029 A 
ATOM     64  C   LIG    1       26.570 -32.570   6.800  0.00  0.00    +0.159 A 
ENDBRANCH  54  55
ENDBRANCH   3  54
TORSDOF 13
ENDMDL
MODEL 6
REMARK VINA RESULT:      -8.5      2.732      4.642
REMARK  Name = *****
REMARK                            x       y       z     vdW  Elec       q    Type
REMARK                         _______ _______ _______ _____ _____    ______ ____
ROOT
ATOM      1  C   LIG    1       26.409 -29.973  10.590  0.00  0.00    +0.033 A 
ATOM      2  C   LIG    1       25.882 -30.777   9.567  0.00  0.00    +0.070 A 
ATOM      3  C   LIG    1       25.429 -30.271   8.332  0.00  0.00    +0.142 A 
ATOM      4  C   LIG    1       25.661 -28.928   8.014  0.00  0.00    +0.081 A 
ATOM      5  C   LIG    1       26.266 -28.117   8.985  0.00  0.00    +0.018 A 
ATOM      6  C   LIG    1       26.631 -28.631  10.247  0.00  0.00    +0.024 A 
ENDROOT
BRANCH   1  10
ATOM      7  N   LIG    1       26.410 -31.006  14.842  0.00  0.00    -0.295 NA
ATOM      8  C   LIG    1       25.831 -31.920  13.844  0.00  0.00    +0.103 C 
ATOM      9  C   LIG    1       25.601 -31.407  12.402  0.00  0.00    +0.120 C 
ATOM     10  N   LIG    1       26.684 -30.530  11.863  0.00  0.00    -0.327 N 
ATOM     11  C   LIG    1       27.314 -29.647  12.867  0.00  0.00    +0.120 C 
ATOM     12  C   LIG    1       27.578 -30.351  14.221  0.00  0.00    +0.103 C 
BRANCH   7  13
ATOM     13  C   LIG    1       25.477 -30.057  15.490  0.00  0.00    +0.115 C 
BRANCH  13  18
ATOM     14  C   LIG    1       26.660 -25.504  13.131  0.00  0.00    +0.011 C 
ATOM     15  C   LIG    1       25.688 -25.723  14.307  0.00  0.00    -0.031 C 
ATOM     16  C   LIG    1       24.463 -26.575  13.866  0.00  0.00    +0.042 C 
ATOM     17  C   LIG    1       24.502 -28.112  14.051  0.00  0.00    -0.039 C 
ATOM     18  C   LIG    1       25.464 -28.673  14.835  0.00  0.00    -0.052 C 
ATOM     19  C   LIG    1       26.723 -27.873  15.127  0.00  0.00    +0.033 C 
ATOM     20  C   LIG    1       26.421 -26.421  15.460  0.00  0.00    +0.011 C 
ATOM     21  C   LIG    1       25.220 -24.331  14.792  0.00  0.00    +0.011 C 
BRANCH  17  22
ATOM     22  C   LIG    1       23.391 -28.847  13.349  0.00  0.00    -0.022 A 
ATOM     23  C   LIG    1       22.438 -29.603  14.059  0.00  0.00    +0.009 A 
ATOM     24  C   LIG    1       21.542 -30.467  13.402  0.00  0.00    +0.020 A 
ATOM     25  C   LIG    1       21.563 -30.570  12.015  0.00  0.00    +0.041 A 
ATOM     26 CL   LIG    1       20.485 -31.640  11.207  0.00  0.00    -0.084 Cl
ATOM     27  C   LIG    1       22.465 -29.811  11.282  0.00  0.00    +0.020 A 
ATOM     28  C   LIG    1       23.373 -28.971  11.946  0.00  0.00    +0.009 A 
ENDBRANCH  17  22
ENDBRANCH  13  18
ENDBRANCH   7  13
ENDBRANCH   1  10
BRANCH   4  29
ATOM     29  C   LIG    1       25.369 -28.325   6.688  0.00  0.00    +0.267 C 
ATOM     30  N   LIG    1       25.149 -26.925   6.693  0.00  0.00    -0.181 N 
ATOM     31  H   LIG    1       25.320 -26.388   7.530  0.00  0.00    +0.177 HD
ATOM     32  O   LIG    1       25.252 -29.031   5.690  0.00  0.00    -0.269 OA
BRANCH  30  33
ATOM     33  S   LIG    1       24.822 -25.976   5.367  0.00  0.00    +0.075 S 
ATOM     34  O   LIG    1       23.386 -25.892   5.096  0.00  0.00    -0.150 OA
ATOM     35  O   LIG    1       25.753 -26.402   4.364  0.00  0.00    -0.150 OA
BRANCH  33  36
ATOM     36  C   LIG    1       25.346 -24.375   5.946  0.00  0.00    +0.115 A 
ATOM     37  C   LIG    1       24.953 -23.231   5.261  0.00  0.00    +0.115 A 
ATOM     38  C   LIG    1       25.218 -21.979   5.837  0.00  0.00    +0.296 A 
ATOM     39  C   LIG    1       25.896 -21.819   7.068  0.00  0.00    +0.105 A 
ATOM     40  C   LIG    1       26.325 -23.003   7.689  0.00  0.00    +0.032 A 
ATOM     41  C   LIG    1       26.063 -24.270   7.136  0.00  0.00    +0.031 A 
BRANCH  38  42
ATOM     42  N   LIG    1       24.806 -20.819   5.066  0.00  0.00    +0.082 N 
ATOM     43  O   LIG    1       23.808 -20.205   5.477  0.00  0.00    -0.576 OA
ATOM     44  O   LIG    1       25.523 -20.473   4.118  0.00  0.00    +0.042 OA
ENDBRANCH  38  42
BRANCH  39  45
ATOM     45  N   LIG    1       25.995 -20.565   7.700  0.00  0.00    -0.338 N 
ATOM     46  H   LIG    1       25.379 -20.564   8.516  0.00  0.00    +0.146 HD
BRANCH  45  47
ATOM     47  C   LIG    1       27.309 -19.968   7.985  0.00  0.00    +0.105 C 
BRANCH  47  48
ATOM     48  C   LIG    1       28.431 -20.599   7.117  0.00  0.00    +0.010 C 
ATOM     49  C   LIG    1       28.569 -19.961   5.725  0.00  0.00    +0.033 C 
ATOM     50  C   LIG    1       29.139 -18.551   5.816  0.00  0.00    +0.160 C 
ATOM     51  O   LIG    1       30.425 -18.577   6.431  0.00  0.00    -0.380 OA
ATOM     52  C   LIG    1       30.395 -19.093   7.760  0.00  0.00    +0.160 C 
ATOM     53  C   LIG    1       29.813 -20.505   7.800  0.00  0.00    +0.033 C 
ENDBRANCH  47  48
ENDBRANCH  45  47
ENDBRANCH  39  45
ENDBRANCH  33  36
ENDBRANCH  30  33
ENDBRANCH   4  29
BRANCH   3  54
ATOM     54  O   LIG    1       24.757 -31.079   7.429  0.00  0.00    -0.454 OA
BRANCH  54  55
ATOM     55  C   LIG    1       25.493 -31.855   6.555  0.00  0.00    +0.147 A 
ATOM     56  C   LIG    1       25.118 -31.840   5.209  0.00  0.00    +0.059 A 
ATOM     57  C   LIG    1       25.882 -32.618   4.320  0.00  0.00    +0.022 A 
ATOM     58  C   LIG    1       27.017 -33.243   4.826  0.00  0.00    +0.138 A 
ATOM     59  N   LIG    1       27.684 -33.824   3.786  0.00  0.00    -0.346 N 
ATOM     60  H   LIG    1       28.581 -34.278   3.882  0.00  0.00    +0.167 HD
ATOM     61  C   LIG    1       26.901 -33.776   2.662  0.00  0.00    +0.085 A 
ATOM     62  N   LIG    1       27.418 -33.306   6.105  0.00  0.00    -0.234 NA
ATOM     63  C   LIG    1       25.792 -33.008   2.954  0.00  0.00    +0.029 A 
ATOM     64  C   LIG    1       26.566 -32.665   6.938  0.00  0.00    +0.159 A 
ENDBRANCH  54  55
ENDBRANCH   3  54
TORSDOF 13
ENDMDL
MODEL 7
REMARK VINA RESULT:      -8.4      4.171     11.729
REMARK  Name = *****
REMARK                            x       y       z     vdW  Elec       q    Type
REMARK                         _______ _______ _______ _____ _____    ______ ____
ROOT
ATOM      1  C   LIG    1       24.988 -28.247   7.172  0.00  0.00    +0.033 A 
ATOM      2  C   LIG    1       25.699 -28.519   8.351  0.00  0.00    +0.070 A 
ATOM      3  C   LIG    1       25.377 -29.571   9.232  0.00  0.00    +0.142 A 
ATOM      4  C   LIG    1       24.414 -30.513   8.853  0.00  0.00    +0.081 A 
ATOM      5  C   LIG    1       23.745 -30.316   7.636  0.00  0.00    +0.018 A 
ATOM      6  C   LIG    1       24.027 -29.205   6.815  0.00  0.00    +0.024 A 
ENDROOT
BRANCH   1  10
ATOM      7  N   LIG    1       26.026 -24.189   5.909  0.00  0.00    -0.295 NA
ATOM      8  C   LIG    1       26.988 -25.294   5.760  0.00  0.00    +0.103 C 
ATOM      9  C   LIG    1       26.694 -26.642   6.462  0.00  0.00    +0.120 C 
ATOM     10  N   LIG    1       25.264 -27.073   6.427  0.00  0.00    -0.327 N 
ATOM     11  C   LIG    1       24.287 -25.968   6.518  0.00  0.00    +0.120 C 
ATOM     12  C   LIG    1       24.678 -24.736   5.665  0.00  0.00    +0.103 C 
BRANCH   7  13
ATOM     13  C   LIG    1       26.124 -23.389   7.150  0.00  0.00    +0.115 C 
BRANCH  13  18
ATOM     14  C   LIG    1       29.929 -19.863   6.262  0.00  0.00    +0.011 C 
ATOM     15  C   LIG    1       28.929 -19.886   7.436  0.00  0.00    -0.031 C 
ATOM     16  C   LIG    1       27.474 -19.658   6.933  0.00  0.00    +0.042 C 
ATOM     17  C   LIG    1       26.589 -20.883   6.595  0.00  0.00    -0.039 C 
ATOM     18  C   LIG    1       26.975 -22.126   6.995  0.00  0.00    -0.052 C 
ATOM     19  C   LIG    1       28.437 -22.358   7.336  0.00  0.00    +0.033 C 
ATOM     20  C   LIG    1       29.023 -21.230   8.170  0.00  0.00    +0.011 C 
ATOM     21  C   LIG    1       29.334 -18.760   8.416  0.00  0.00    +0.011 C 
BRANCH  17  22
ATOM     22  C   LIG    1       25.313 -20.542   5.870  0.00  0.00    -0.022 A 
ATOM     23  C   LIG    1       25.322 -19.999   4.570  0.00  0.00    +0.009 A 
ATOM     24  C   LIG    1       24.156 -19.474   3.981  0.00  0.00    +0.020 A 
ATOM     25  C   LIG    1       22.950 -19.509   4.671  0.00  0.00    +0.041 A 
ATOM     26 CL   LIG    1       21.526 -18.850   3.966  0.00  0.00    -0.084 Cl
ATOM     27  C   LIG    1       22.899 -20.072   5.939  0.00  0.00    +0.020 A 
ATOM     28  C   LIG    1       24.070 -20.570   6.531  0.00  0.00    +0.009 A 
ENDBRANCH  17  22
ENDBRANCH  13  18
ENDBRANCH   7  13
ENDBRANCH   1  10
BRANCH   4  29
ATOM     29  C   LIG    1       24.104 -31.743   9.626  0.00  0.00    +0.267 C 
ATOM     30  N   LIG    1       22.904 -31.701  10.377  0.00  0.00    -0.181 N 
ATOM     31  H   LIG    1       22.262 -30.930  10.266  0.00  0.00    +0.177 HD
ATOM     32  O   LIG    1       24.897 -32.681   9.655  0.00  0.00    -0.269 OA
BRANCH  30  33
ATOM     33  S   LIG    1       22.290 -32.928  11.318  0.00  0.00    +0.075 S 
ATOM     34  O   LIG    1       23.265 -33.400  12.304  0.00  0.00    -0.150 OA
ATOM     35  O   LIG    1       21.656 -33.824  10.398  0.00  0.00    -0.150 OA
BRANCH  33  36
ATOM     36  C   LIG    1       21.007 -32.073  12.211  0.00  0.00    +0.115 A 
ATOM     37  C   LIG    1       19.676 -32.416  12.002  0.00  0.00    +0.115 A 
ATOM     38  C   LIG    1       18.700 -31.863  12.846  0.00  0.00    +0.296 A 
ATOM     39  C   LIG    1       18.998 -30.948  13.883  0.00  0.00    +0.105 A 
ATOM     40  C   LIG    1       20.350 -30.589  14.012  0.00  0.00    +0.032 A 
ATOM     41  C   LIG    1       21.347 -31.135  13.184  0.00  0.00    +0.031 A 
BRANCH  38  42
ATOM     42  N   LIG    1       17.324 -32.239  12.567  0.00  0.00    +0.082 N 
ATOM     43  O   LIG    1       16.662 -31.447  11.878  0.00  0.00    -0.576 OA
ATOM     44  O   LIG    1       16.942 -33.351  12.953  0.00  0.00    +0.042 OA
ENDBRANCH  38  42
BRANCH  39  45
ATOM     45  N   LIG    1       18.025 -30.547  14.817  0.00  0.00    -0.338 N 
ATOM     46  H   LIG    1       18.465 -30.490  15.739  0.00  0.00    +0.146 HD
BRANCH  45  47
ATOM     47  C   LIG    1       17.145 -29.400  14.542  0.00  0.00    +0.105 C 
BRANCH  47  48
ATOM     48  C   LIG    1       17.429 -28.211  15.500  0.00  0.00    +0.010 C 
ATOM     49  C   LIG    1       18.797 -27.547  15.273  0.00  0.00    +0.033 C 
ATOM     50  C   LIG    1       18.826 -26.774  13.961  0.00  0.00    +0.160 C 
ATOM     51  O   LIG    1       17.824 -25.758  13.965  0.00  0.00    -0.380 OA
ATOM     52  C   LIG    1       16.505 -26.279  14.103  0.00  0.00    +0.160 C 
ATOM     53  C   LIG    1       16.360 -27.104  15.381  0.00  0.00    +0.033 C 
ENDBRANCH  47  48
ENDBRANCH  45  47
ENDBRANCH  39  45
ENDBRANCH  33  36
ENDBRANCH  30  33
ENDBRANCH   4  29
BRANCH   3  54
ATOM     54  O   LIG    1       25.996 -29.687  10.466  0.00  0.00    -0.454 OA
BRANCH  54  55
ATOM     55  C   LIG    1       25.638 -28.814  11.475  0.00  0.00    +0.147 A 
ATOM     56  C   LIG    1       26.556 -27.818  11.819  0.00  0.00    +0.059 A 
ATOM     57  C   LIG    1       26.179 -26.920  12.835  0.00  0.00    +0.022 A 
ATOM     58  C   LIG    1       24.882 -27.018  13.330  0.00  0.00    +0.138 A 
ATOM     59  N   LIG    1       24.676 -25.982  14.195  0.00  0.00    -0.346 N 
ATOM     60  H   LIG    1       23.787 -25.788  14.632  0.00  0.00    +0.167 HD
ATOM     61  C   LIG    1       25.868 -25.348  14.435  0.00  0.00    +0.085 A 
ATOM     62  N   LIG    1       23.966 -27.958  13.050  0.00  0.00    -0.234 NA
ATOM     63  C   LIG    1       26.811 -25.888  13.583  0.00  0.00    +0.029 A 
ATOM     64  C   LIG    1       24.433 -28.881  12.179  0.00  0.00    +0.159 A 
ENDBRANCH  54  55
ENDBRANCH   3  54
TORSDOF 13
ENDMDL
MODEL 8
REMARK VINA RESULT:      -8.0      2.531      4.475
REMARK  Name = *****
REMARK                            x       y       z     vdW  Elec       q    Type
REMARK                         _______ _______ _______ _____ _____    ______ ____
ROOT
ATOM      1  C   LIG    1       23.423 -32.068  11.068  0.00  0.00    +0.033 A 
ATOM      2  C   LIG    1       24.020 -30.797  11.077  0.00  0.00    +0.070 A 
ATOM      3  C   LIG    1       24.675 -30.235   9.964  0.00  0.00    +0.142 A 
ATOM      4  C   LIG    1       24.595 -30.877   8.724  0.00  0.00    +0.081 A 
ATOM      5  C   LIG    1       23.930 -32.111   8.664  0.00  0.00    +0.018 A 
ATOM      6  C   LIG    1       23.357 -32.692   9.814  0.00  0.00    +0.024 A 
ENDROOT
BRANCH   1  10
ATOM      7  N   LIG    1       21.573 -32.746  14.975  0.00  0.00    -0.295 NA
ATOM      8  C   LIG    1       20.894 -33.162  13.737  0.00  0.00    +0.103 C 
ATOM      9  C   LIG    1       21.443 -32.664  12.378  0.00  0.00    +0.120 C 
ATOM     10  N   LIG    1       22.933 -32.634  12.271  0.00  0.00    -0.327 N 
ATOM     11  C   LIG    1       23.630 -32.274  13.524  0.00  0.00    +0.120 C 
ATOM     12  C   LIG    1       23.022 -32.947  14.777  0.00  0.00    +0.103 C 
BRANCH   7  13
ATOM     13  C   LIG    1       21.230 -31.406  15.500  0.00  0.00    +0.115 C 
BRANCH  13  18
ATOM     14  C   LIG    1       16.207 -29.982  14.832  0.00  0.00    +0.011 C 
ATOM     15  C   LIG    1       17.139 -30.640  13.795  0.00  0.00    -0.031 C 
ATOM     16  C   LIG    1       18.312 -29.689  13.419  0.00  0.00    +0.042 C 
ATOM     17  C   LIG    1       19.650 -29.794  14.190  0.00  0.00    -0.039 C 
ATOM     18  C   LIG    1       19.889 -30.876  14.983  0.00  0.00    -0.052 C 
ATOM     19  C   LIG    1       18.707 -31.701  15.462  0.00  0.00    +0.033 C 
ATOM     20  C   LIG    1       17.694 -31.955  14.358  0.00  0.00    +0.011 C 
ATOM     21  C   LIG    1       16.291 -30.959  12.542  0.00  0.00    +0.011 C 
BRANCH  17  22
ATOM     22  C   LIG    1       20.606 -28.660  13.928  0.00  0.00    -0.022 A 
ATOM     23  C   LIG    1       21.641 -28.766  12.978  0.00  0.00    +0.009 A 
ATOM     24  C   LIG    1       22.664 -27.803  12.891  0.00  0.00    +0.020 A 
ATOM     25  C   LIG    1       22.656 -26.698  13.734  0.00  0.00    +0.041 A 
ATOM     26 CL   LIG    1       23.915 -25.529  13.647  0.00  0.00    -0.084 Cl
ATOM     27  C   LIG    1       21.630 -26.544  14.656  0.00  0.00    +0.020 A 
ATOM     28  C   LIG    1       20.627 -27.520  14.757  0.00  0.00    +0.009 A 
ENDBRANCH  17  22
ENDBRANCH  13  18
ENDBRANCH   7  13
ENDBRANCH   1  10
BRANCH   4  29
ATOM     29  C   LIG    1       25.113 -30.304   7.455  0.00  0.00    +0.267 C 
ATOM     30  N   LIG    1       24.163 -29.597   6.676  0.00  0.00    -0.181 N 
ATOM     31  H   LIG    1       23.246 -29.400   7.050  0.00  0.00    +0.177 HD
ATOM     32  O   LIG    1       26.268 -30.516   7.096  0.00  0.00    -0.269 OA
BRANCH  30  33
ATOM     33  S   LIG    1       24.451 -28.833   5.227  0.00  0.00    +0.075 S 
ATOM     34  O   LIG    1       23.227 -28.679   4.438  0.00  0.00    -0.150 OA
ATOM     35  O   LIG    1       25.615 -29.475   4.692  0.00  0.00    -0.150 OA
BRANCH  33  36
ATOM     36  C   LIG    1       24.934 -27.210   5.779  0.00  0.00    +0.115 A 
ATOM     37  C   LIG    1       24.021 -26.164   5.724  0.00  0.00    +0.115 A 
ATOM     38  C   LIG    1       24.359 -24.945   6.333  0.00  0.00    +0.296 A 
ATOM     39  C   LIG    1       25.599 -24.715   6.975  0.00  0.00    +0.105 A 
ATOM     40  C   LIG    1       26.508 -25.785   6.949  0.00  0.00    +0.032 A 
ATOM     41  C   LIG    1       26.190 -27.018   6.352  0.00  0.00    +0.031 A 
BRANCH  38  42
ATOM     42  N   LIG    1       23.376 -23.880   6.225  0.00  0.00    +0.082 N 
ATOM     43  O   LIG    1       22.354 -23.996   6.920  0.00  0.00    -0.576 OA
ATOM     44  O   LIG    1       23.665 -22.899   5.528  0.00  0.00    +0.042 OA
ENDBRANCH  38  42
BRANCH  39  45
ATOM     45  N   LIG    1       25.839 -23.547   7.721  0.00  0.00    -0.338 N 
ATOM     46  H   LIG    1       25.901 -23.801   8.710  0.00  0.00    +0.146 HD
BRANCH  45  47
ATOM     47  C   LIG    1       26.889 -22.598   7.317  0.00  0.00    +0.105 C 
BRANCH  47  48
ATOM     48  C   LIG    1       26.471 -21.127   7.583  0.00  0.00    +0.010 C 
ATOM     49  C   LIG    1       27.659 -20.164   7.740  0.00  0.00    +0.033 C 
ATOM     50  C   LIG    1       28.373 -19.945   6.412  0.00  0.00    +0.160 C 
ATOM     51  O   LIG    1       27.472 -19.399   5.451  0.00  0.00    -0.380 OA
ATOM     52  C   LIG    1       26.362 -20.252   5.182  0.00  0.00    +0.160 C 
ATOM     53  C   LIG    1       25.576 -20.567   6.455  0.00  0.00    +0.033 C 
ENDBRANCH  47  48
ENDBRANCH  45  47
ENDBRANCH  39  45
ENDBRANCH  33  36
ENDBRANCH  30  33
ENDBRANCH   4  29
BRANCH   3  54
ATOM     54  O   LIG    1       25.398 -29.058  10.077  0.00  0.00    -0.454 OA
BRANCH  54  55
ATOM     55  C   LIG    1       26.336 -28.948  11.085  0.00  0.00    +0.147 A 
ATOM     56  C   LIG    1       26.085 -28.022  12.100  0.00  0.00    +0.059 A 
ATOM     57  C   LIG    1       27.035 -27.927  13.134  0.00  0.00    +0.022 A 
ATOM     58  C   LIG    1       28.083 -28.841  13.128  0.00  0.00    +0.138 A 
ATOM     59  N   LIG    1       28.805 -28.670  14.274  0.00  0.00    -0.346 N 
ATOM     60  H   LIG    1       29.576 -29.264  14.543  0.00  0.00    +0.167 HD
ATOM     61  C   LIG    1       28.381 -27.533  14.912  0.00  0.00    +0.085 A 
ATOM     62  N   LIG    1       28.384 -29.738  12.177  0.00  0.00    -0.234 NA
ATOM     63  C   LIG    1       27.265 -27.068  14.245  0.00  0.00    +0.029 A 
ATOM     64  C   LIG    1       27.523 -29.686  11.136  0.00  0.00    +0.159 A 
ENDBRANCH  54  55
ENDBRANCH   3  54
TORSDOF 13
ENDMDL
MODEL 9
REMARK VINA RESULT:      -7.9      2.602      4.078
REMARK  Name = *****
REMARK                            x       y       z     vdW  Elec       q    Type
REMARK                         _______ _______ _______ _____ _____    ______ ____
ROOT
ATOM      1  C   LIG    1       25.978 -29.866  10.907  0.00  0.00    +0.033 A 
ATOM      2  C   LIG    1       25.470 -30.637   9.850  0.00  0.00    +0.070 A 
ATOM      3  C   LIG    1       25.230 -30.129   8.558  0.00  0.00    +0.142 A 
ATOM      4  C   LIG    1       25.669 -28.840   8.235  0.00  0.00    +0.081 A 
ATOM      5  C   LIG    1       26.260 -28.073   9.250  0.00  0.00    +0.018 A 
ATOM      6  C   LIG    1       26.409 -28.577  10.558  0.00  0.00    +0.024 A 
ENDROOT
BRANCH   1  10
ATOM      7  N   LIG    1       25.015 -31.513  14.844  0.00  0.00    -0.295 NA
ATOM      8  C   LIG    1       25.517 -32.381  13.766  0.00  0.00    +0.103 C 
ATOM      9  C   LIG    1       25.583 -31.822  12.324  0.00  0.00    +0.120 C 
ATOM     10  N   LIG    1       26.033 -30.401  12.218  0.00  0.00    -0.327 N 
ATOM     11  C   LIG    1       25.584 -29.531  13.325  0.00  0.00    +0.120 C 
ATOM     12  C   LIG    1       25.688 -30.206  14.714  0.00  0.00    +0.103 C 
BRANCH   7  13
ATOM     13  C   LIG    1       23.545 -31.408  14.980  0.00  0.00    +0.115 C 
BRANCH  13  18
ATOM     14  C   LIG    1       22.640 -26.516  13.264  0.00  0.00    +0.011 C 
ATOM     15  C   LIG    1       21.643 -27.461  13.964  0.00  0.00    -0.031 C 
ATOM     16  C   LIG    1       21.339 -28.705  13.079  0.00  0.00    +0.042 C 
ATOM     17  C   LIG    1       22.176 -29.993  13.268  0.00  0.00    -0.039 C 
ATOM     18  C   LIG    1       22.967 -30.129  14.369  0.00  0.00    -0.052 C 
ATOM     19  C   LIG    1       23.375 -28.879  15.130  0.00  0.00    +0.033 C 
ATOM     20  C   LIG    1       22.217 -27.911  15.314  0.00  0.00    +0.011 C 
ATOM     21  C   LIG    1       20.344 -26.662  14.223  0.00  0.00    +0.011 C 
BRANCH  17  22
ATOM     22  C   LIG    1       21.977 -31.023  12.188  0.00  0.00    -0.022 A 
ATOM     23  C   LIG    1       22.356 -30.781  10.853  0.00  0.00    +0.009 A 
ATOM     24  C   LIG    1       21.971 -31.641   9.807  0.00  0.00    +0.020 A 
ATOM     25  C   LIG    1       21.223 -32.780  10.082  0.00  0.00    +0.041 A 
ATOM     26 CL   LIG    1       20.731 -33.825   8.807  0.00  0.00    -0.084 Cl
ATOM     27  C   LIG    1       20.865 -33.069  11.392  0.00  0.00    +0.020 A 
ATOM     28  C   LIG    1       21.229 -32.193  12.426  0.00  0.00    +0.009 A 
ENDBRANCH  17  22
ENDBRANCH  13  18
ENDBRANCH   7  13
ENDBRANCH   1  10
BRANCH   4  29
ATOM     29  C   LIG    1       25.609 -28.259   6.869  0.00  0.00    +0.267 C 
ATOM     30  N   LIG    1       24.953 -27.006   6.770  0.00  0.00    -0.181 N 
ATOM     31  H   LIG    1       24.679 -26.510   7.605  0.00  0.00    +0.177 HD
ATOM     32  O   LIG    1       26.036 -28.885   5.902  0.00  0.00    -0.269 OA
BRANCH  30  33
ATOM     33  S   LIG    1       24.750 -26.109   5.384  0.00  0.00    +0.075 S 
ATOM     34  O   LIG    1       23.340 -26.007   5.003  0.00  0.00    -0.150 OA
ATOM     35  O   LIG    1       25.742 -26.599   4.473  0.00  0.00    -0.150 OA
BRANCH  33  36
ATOM     36  C   LIG    1       25.268 -24.496   5.934  0.00  0.00    +0.115 A 
ATOM     37  C   LIG    1       24.951 -23.375   5.176  0.00  0.00    +0.115 A 
ATOM     38  C   LIG    1       25.204 -22.105   5.718  0.00  0.00    +0.296 A 
ATOM     39  C   LIG    1       25.796 -21.907   6.988  0.00  0.00    +0.105 A 
ATOM     40  C   LIG    1       26.152 -23.072   7.686  0.00  0.00    +0.032 A 
ATOM     41  C   LIG    1       25.901 -24.356   7.167  0.00  0.00    +0.031 A 
BRANCH  38  42
ATOM     42  N   LIG    1       24.875 -20.970   4.872  0.00  0.00    +0.082 N 
ATOM     43  O   LIG    1       25.813 -20.220   4.560  0.00  0.00    -0.576 OA
ATOM     44  O   LIG    1       23.714 -20.884   4.452  0.00  0.00    +0.042 OA
ENDBRANCH  38  42
BRANCH  39  45
ATOM     45  N   LIG    1       25.879 -20.630   7.573  0.00  0.00    -0.338 N 
ATOM     46  H   LIG    1       25.252 -20.602   8.380  0.00  0.00    +0.146 HD
BRANCH  45  47
ATOM     47  C   LIG    1       27.186 -20.014   7.854  0.00  0.00    +0.105 C 
BRANCH  47  48
ATOM     48  C   LIG    1       28.274 -20.485   6.852  0.00  0.00    +0.010 C 
ATOM     49  C   LIG    1       28.975 -19.334   6.112  0.00  0.00    +0.033 C 
ATOM     50  C   LIG    1       29.877 -18.542   7.048  0.00  0.00    +0.160 C 
ATOM     51  O   LIG    1       30.875 -19.393   7.609  0.00  0.00    -0.380 OA
ATOM     52  C   LIG    1       30.328 -20.461   8.377  0.00  0.00    +0.160 C 
ATOM     53  C   LIG    1       29.376 -21.319   7.543  0.00  0.00    +0.033 C 
ENDBRANCH  47  48
ENDBRANCH  45  47
ENDBRANCH  39  45
ENDBRANCH  33  36
ENDBRANCH  30  33
ENDBRANCH   4  29
BRANCH   3  54
ATOM     54  O   LIG    1       24.565 -30.882   7.604  0.00  0.00    -0.454 OA
BRANCH  54  55
ATOM     55  C   LIG    1       25.304 -31.689   6.759  0.00  0.00    +0.147 A 
ATOM     56  C   LIG    1       24.885 -31.784   5.431  0.00  0.00    +0.059 A 
ATOM     57  C   LIG    1       25.651 -32.593   4.571  0.00  0.00    +0.022 A 
ATOM     58  C   LIG    1       26.828 -33.134   5.078  0.00  0.00    +0.138 A 
ATOM     59  N   LIG    1       27.484 -33.761   4.058  0.00  0.00    -0.346 N 
ATOM     60  H   LIG    1       28.402 -34.170   4.152  0.00  0.00    +0.167 HD
ATOM     61  C   LIG    1       26.663 -33.825   2.962  0.00  0.00    +0.085 A 
ATOM     62  N   LIG    1       27.273 -33.089   6.343  0.00  0.00    -0.234 NA
ATOM     63  C   LIG    1       25.532 -33.083   3.240  0.00  0.00    +0.029 A 
ATOM     64  C   LIG    1       26.423 -32.425   7.159  0.00  0.00    +0.159 A 
ENDBRANCH  54  55
ENDBRANCH   3  54
TORSDOF 13
ENDMDL
