MODEL 1
REMARK VINA RESULT:      -4.8      0.000      0.000
REMARK  Name = *****
REMARK                            x       y       z     vdW  Elec       q    Type
REMARK                         _______ _______ _______ _____ _____    ______ ____
ROOT
ATOM      1  C   LIG    1       25.370 -13.817   4.002  0.00  0.00    +0.317 C 
ATOM      2 CL   LIG    1       23.913 -14.883   4.434  0.00  0.00    -0.075 Cl
ATOM      3 CL   LIG    1       26.048 -13.247   5.568  0.00  0.00    -0.075 Cl
ENDROOT
BRANCH   1   5
ATOM      4  O   LIG    1       24.025 -11.447   2.012  0.00  0.00    -0.255 OA
ATOM      5  P   LIG    1       24.640 -12.532   2.922  0.00  0.00    +0.375 P 
BRANCH   5   6
ATOM      6  O   LIG    1       23.460 -13.581   2.433  0.00  0.00    -0.322 OA
ATOM      7  H   LIG    1       23.270 -14.185   3.180  0.00  0.00    +0.220 HD
ENDBRANCH   5   6
BRANCH   5   8
ATOM      8  O   LIG    1       23.816 -11.918   4.208  0.00  0.00    -0.322 OA
ATOM      9  H   LIG    1       24.192 -12.312   5.022  0.00  0.00    +0.220 HD
ENDBRANCH   5   8
ENDBRANCH   1   5
BRANCH   1  10
ATOM     10  P   LIG    1       26.577 -14.948   3.251  0.00  0.00    +0.375 P 
ATOM     11  O   LIG    1       26.280 -16.414   3.137  0.00  0.00    -0.255 OA
BRANCH  10  12
ATOM     12  O   LIG    1       27.962 -14.743   4.044  0.00  0.00    -0.322 OA
ATOM     13  H   LIG    1       28.370 -15.597   4.295  0.00  0.00    +0.220 HD
ENDBRANCH  10  12
BRANCH  10  14
ATOM     14  O   LIG    1       27.012 -14.366   1.814  0.00  0.00    -0.322 OA
ATOM     15  H   LIG    1       27.357 -13.454   1.831  0.00  0.00    +0.220 HD
ENDBRANCH  10  14
ENDBRANCH   1  10
TORSDOF 6
ENDMDL
MODEL 2
REMARK VINA RESULT:      -4.2      1.342      4.010
REMARK  Name = *****
REMARK                            x       y       z     vdW  Elec       q    Type
REMARK                         _______ _______ _______ _____ _____    ______ ____
ROOT
ATOM      1  C   LIG    1       26.033 -13.643   4.154  0.00  0.00    +0.317 C 
ATOM      2 CL   LIG    1       26.937 -12.559   2.950  0.00  0.00    -0.075 Cl
ATOM      3 CL   LIG    1       26.714 -13.258   5.775  0.00  0.00    -0.075 Cl
ENDROOT
BRANCH   1   5
ATOM      4  O   LIG    1       26.628 -16.753   2.988  0.00  0.00    -0.255 OA
ATOM      5  P   LIG    1       26.356 -15.330   3.522  0.00  0.00    +0.375 P 
BRANCH   5   6
ATOM      6  O   LIG    1       26.564 -14.740   1.992  0.00  0.00    -0.322 OA
ATOM      7  H   LIG    1       25.950 -13.986   1.876  0.00  0.00    +0.220 HD
ENDBRANCH   5   6
BRANCH   5   8
ATOM      8  O   LIG    1       27.931 -15.201   3.982  0.00  0.00    -0.322 OA
ATOM      9  H   LIG    1       28.475 -15.688   3.329  0.00  0.00    +0.220 HD
ENDBRANCH   5   8
ENDBRANCH   1   5
BRANCH   1  10
ATOM     10  P   LIG    1       24.314 -13.056   4.120  0.00  0.00    +0.375 P 
ATOM     11  O   LIG    1       23.909 -11.838   4.897  0.00  0.00    -0.255 OA
BRANCH  10  12
ATOM     12  O   LIG    1       23.389 -14.299   4.553  0.00  0.00    -0.322 OA
ATOM     13  H   LIG    1       22.903 -14.122   5.384  0.00  0.00    +0.220 HD
ENDBRANCH  10  12
BRANCH  10  14
ATOM     14  O   LIG    1       23.846 -12.906   2.587  0.00  0.00    -0.322 OA
ATOM     15  H   LIG    1       24.363 -13.431   1.949  0.00  0.00    +0.220 HD
ENDBRANCH  10  14
ENDBRANCH   1  10
TORSDOF 6
ENDMDL
MODEL 3
REMARK VINA RESULT:      -4.1      1.053      3.990
REMARK  Name = *****
REMARK                            x       y       z     vdW  Elec       q    Type
REMARK                         _______ _______ _______ _____ _____    ______ ____
ROOT
ATOM      1  C   LIG    1       25.739 -13.863   3.879  0.00  0.00    +0.317 C 
ATOM      2 CL   LIG    1       25.608 -13.475   5.689  0.00  0.00    -0.075 Cl
ATOM      3 CL   LIG    1       25.118 -15.541   3.687  0.00  0.00    -0.075 Cl
ENDROOT
BRANCH   1   5
ATOM      4  O   LIG    1       29.018 -13.405   3.229  0.00  0.00    -0.255 OA
ATOM      5  P   LIG    1       27.518 -13.615   3.526  0.00  0.00    +0.375 P 
BRANCH   5   6
ATOM      6  O   LIG    1       27.858 -15.145   4.051  0.00  0.00    -0.322 OA
ATOM      7  H   LIG    1       28.192 -15.656   3.284  0.00  0.00    +0.220 HD
ENDBRANCH   5   6
BRANCH   5   8
ATOM      8  O   LIG    1       27.262 -14.016   1.950  0.00  0.00    -0.322 OA
ATOM      9  H   LIG    1       27.261 -14.993   1.885  0.00  0.00    +0.220 HD
ENDBRANCH   5   8
ENDBRANCH   1   5
BRANCH   1  10
ATOM     10  P   LIG    1       24.565 -12.740   3.068  0.00  0.00    +0.375 P 
ATOM     11  O   LIG    1       25.013 -11.844   1.951  0.00  0.00    -0.255 OA
BRANCH  10  12
ATOM     12  O   LIG    1       23.893 -11.851   4.229  0.00  0.00    -0.322 OA
ATOM     13  H   LIG    1       23.200 -11.255   3.880  0.00  0.00    +0.220 HD
ENDBRANCH  10  12
BRANCH  10  14
ATOM     14  O   LIG    1       23.272 -13.582   2.607  0.00  0.00    -0.322 OA
ATOM     15  H   LIG    1       22.839 -13.254   1.798  0.00  0.00    +0.220 HD
ENDBRANCH  10  14
ENDBRANCH   1  10
TORSDOF 6
ENDMDL
MODEL 4
REMARK VINA RESULT:      -4.1      1.064      3.971
REMARK  Name = *****
REMARK                            x       y       z     vdW  Elec       q    Type
REMARK                         _______ _______ _______ _____ _____    ______ ____
ROOT
ATOM      1  C   LIG    1       25.710 -13.843   3.941  0.00  0.00    +0.317 C 
ATOM      2 CL   LIG    1       25.697 -13.560   5.775  0.00  0.00    -0.075 Cl
ATOM      3 CL   LIG    1       25.063 -15.503   3.691  0.00  0.00    -0.075 Cl
ENDROOT
BRANCH   1   5
ATOM      4  O   LIG    1       28.946 -13.367   3.113  0.00  0.00    -0.255 OA
ATOM      5  P   LIG    1       27.466 -13.585   3.492  0.00  0.00    +0.375 P 
BRANCH   5   6
ATOM      6  O   LIG    1       27.857 -15.083   4.070  0.00  0.00    -0.322 OA
ATOM      7  H   LIG    1       27.659 -15.736   3.367  0.00  0.00    +0.220 HD
ENDBRANCH   5   6
BRANCH   5   8
ATOM      8  O   LIG    1       27.143 -14.064   1.950  0.00  0.00    -0.322 OA
ATOM      9  H   LIG    1       27.887 -14.624   1.648  0.00  0.00    +0.220 HD
ENDBRANCH   5   8
ENDBRANCH   1   5
BRANCH   1  10
ATOM     10  P   LIG    1       24.498 -12.666   3.273  0.00  0.00    +0.375 P 
ATOM     11  O   LIG    1       23.821 -11.676   4.173  0.00  0.00    -0.255 OA
BRANCH  10  12
ATOM     12  O   LIG    1       23.386 -13.534   2.499  0.00  0.00    -0.322 OA
ATOM     13  H   LIG    1       23.785 -14.255   1.971  0.00  0.00    +0.220 HD
ENDBRANCH  10  12
BRANCH  10  14
ATOM     14  O   LIG    1       25.153 -11.903   2.015  0.00  0.00    -0.322 OA
ATOM     15  H   LIG    1       24.984 -10.943   1.987  0.00  0.00    +0.220 HD
ENDBRANCH  10  14
ENDBRANCH   1  10
TORSDOF 6
ENDMDL
MODEL 5
REMARK VINA RESULT:      -3.8      1.867      2.683
REMARK  Name = *****
REMARK                            x       y       z     vdW  Elec       q    Type
REMARK                         _______ _______ _______ _____ _____    ______ ____
ROOT
ATOM      1  C   LIG    1       25.763 -13.909   3.583  0.00  0.00    +0.317 C 
ATOM      2 CL   LIG    1       25.909 -13.327   1.827  0.00  0.00    -0.075 Cl
ATOM      3 CL   LIG    1       25.319 -15.650   3.492  0.00  0.00    -0.075 Cl
ENDROOT
BRANCH   1   5
ATOM      4  O   LIG    1       23.434 -11.845   4.885  0.00  0.00    -0.255 OA
ATOM      5  P   LIG    1       24.500 -12.789   4.289  0.00  0.00    +0.375 P 
BRANCH   5   6
ATOM      6  O   LIG    1       23.831 -12.565   2.794  0.00  0.00    -0.322 OA
ATOM      7  H   LIG    1       24.182 -11.725   2.433  0.00  0.00    +0.220 HD
ENDBRANCH   5   6
BRANCH   5   8
ATOM      8  O   LIG    1       23.580 -14.089   4.707  0.00  0.00    -0.322 OA
ATOM      9  H   LIG    1       22.688 -13.962   4.322  0.00  0.00    +0.220 HD
ENDBRANCH   5   8
ENDBRANCH   1   5
BRANCH   1  10
ATOM     10  P   LIG    1       27.446 -13.798   4.259  0.00  0.00    +0.375 P 
ATOM     11  O   LIG    1       28.459 -12.883   3.637  0.00  0.00    -0.255 OA
BRANCH  10  12
ATOM     12  O   LIG    1       28.031 -15.296   4.298  0.00  0.00    -0.322 OA
ATOM     13  H   LIG    1       27.715 -15.833   3.542  0.00  0.00    +0.220 HD
ENDBRANCH  10  12
BRANCH  10  14
ATOM     14  O   LIG    1       27.353 -13.515   5.841  0.00  0.00    -0.322 OA
ATOM     15  H   LIG    1       26.864 -14.188   6.348  0.00  0.00    +0.220 HD
ENDBRANCH  10  14
ENDBRANCH   1  10
TORSDOF 6
ENDMDL
MODEL 6
REMARK VINA RESULT:      -3.6      6.343      7.929
REMARK  Name = *****
REMARK                            x       y       z     vdW  Elec       q    Type
REMARK                         _______ _______ _______ _____ _____    ______ ____
ROOT
ATOM      1  C   LIG    1       24.544 -20.314   4.651  0.00  0.00    +0.317 C 
ATOM      2 CL   LIG    1       24.290 -21.571   3.309  0.00  0.00    -0.075 Cl
ATOM      3 CL   LIG    1       24.823 -18.746   3.813  0.00  0.00    -0.075 Cl
ENDROOT
BRANCH   1   5
ATOM      4  O   LIG    1       27.155 -21.560   6.388  0.00  0.00    -0.255 OA
ATOM      5  P   LIG    1       25.960 -20.990   5.593  0.00  0.00    +0.375 P 
BRANCH   5   6
ATOM      6  O   LIG    1       26.970 -19.866   4.923  0.00  0.00    -0.322 OA
ATOM      7  H   LIG    1       26.847 -19.025   5.410  0.00  0.00    +0.220 HD
ENDBRANCH   5   6
BRANCH   5   8
ATOM      8  O   LIG    1       25.524 -20.086   6.898  0.00  0.00    -0.322 OA
ATOM      9  H   LIG    1       26.048 -20.394   7.666  0.00  0.00    +0.220 HD
ENDBRANCH   5   8
ENDBRANCH   1   5
BRANCH   1  10
ATOM     10  P   LIG    1       22.946 -20.210   5.509  0.00  0.00    +0.375 P 
ATOM     11  O   LIG    1       22.857 -20.452   6.986  0.00  0.00    -0.255 OA
BRANCH  10  12
ATOM     12  O   LIG    1       21.941 -21.204   4.742  0.00  0.00    -0.322 OA
ATOM     13  H   LIG    1       22.195 -21.333   3.806  0.00  0.00    +0.220 HD
ENDBRANCH  10  12
BRANCH  10  14
ATOM     14  O   LIG    1       22.250 -18.804   5.142  0.00  0.00    -0.322 OA
ATOM     15  H   LIG    1       22.700 -18.019   5.505  0.00  0.00    +0.220 HD
ENDBRANCH  10  14
ENDBRANCH   1  10
TORSDOF 6
ENDMDL
MODEL 7
REMARK VINA RESULT:      -3.6      1.747      2.615
REMARK  Name = *****
REMARK                            x       y       z     vdW  Elec       q    Type
REMARK                         _______ _______ _______ _____ _____    ______ ____
ROOT
ATOM      1  C   LIG    1       25.659 -13.223   3.806  0.00  0.00    +0.317 C 
ATOM      2 CL   LIG    1       25.964 -12.369   5.425  0.00  0.00    -0.075 Cl
ATOM      3 CL   LIG    1       25.369 -11.915   2.604  0.00  0.00    -0.075 Cl
ENDROOT
BRANCH   1   5
ATOM      4  O   LIG    1       23.036 -15.235   4.479  0.00  0.00    -0.255 OA
ATOM      5  P   LIG    1       24.236 -14.314   4.171  0.00  0.00    +0.375 P 
BRANCH   5   6
ATOM      6  O   LIG    1       23.427 -13.738   2.850  0.00  0.00    -0.322 OA
ATOM      7  H   LIG    1       22.520 -14.108   2.870  0.00  0.00    +0.220 HD
ENDBRANCH   5   6
BRANCH   5   8
ATOM      8  O   LIG    1       24.989 -15.556   3.394  0.00  0.00    -0.322 OA
ATOM      9  H   LIG    1       24.492 -16.377   3.590  0.00  0.00    +0.220 HD
ENDBRANCH   5   8
ENDBRANCH   1   5
BRANCH   1  10
ATOM     10  P   LIG    1       27.236 -14.021   3.389  0.00  0.00    +0.375 P 
ATOM     11  O   LIG    1       27.753 -15.165   4.211  0.00  0.00    -0.255 OA
BRANCH  10  12
ATOM     12  O   LIG    1       28.346 -12.858   3.332  0.00  0.00    -0.322 OA
ATOM     13  H   LIG    1       27.963 -11.999   3.062  0.00  0.00    +0.220 HD
ENDBRANCH  10  12
BRANCH  10  14
ATOM     14  O   LIG    1       27.215 -14.434   1.832  0.00  0.00    -0.322 OA
ATOM     15  H   LIG    1       28.065 -14.321   1.368  0.00  0.00    +0.220 HD
ENDBRANCH  10  14
ENDBRANCH   1  10
TORSDOF 6
ENDMDL
MODEL 8
REMARK VINA RESULT:      -3.5      2.178      4.107
REMARK  Name = *****
REMARK                            x       y       z     vdW  Elec       q    Type
REMARK                         _______ _______ _______ _____ _____    ______ ____
ROOT
ATOM      1  C   LIG    1       26.014 -13.688   3.575  0.00  0.00    +0.317 C 
ATOM      2 CL   LIG    1       26.247 -15.525   3.706  0.00  0.00    -0.075 Cl
ATOM      3 CL   LIG    1       25.999 -13.315   1.815  0.00  0.00    -0.075 Cl
ENDROOT
BRANCH   1   5
ATOM      4  O   LIG    1       28.616 -12.456   5.335  0.00  0.00    -0.255 OA
ATOM      5  P   LIG    1       27.425 -13.020   4.530  0.00  0.00    +0.375 P 
BRANCH   5   6
ATOM      6  O   LIG    1       26.813 -13.659   5.926  0.00  0.00    -0.322 OA
ATOM      7  H   LIG    1       26.958 -14.628   5.900  0.00  0.00    +0.220 HD
ENDBRANCH   5   6
BRANCH   5   8
ATOM      8  O   LIG    1       28.330 -14.331   4.112  0.00  0.00    -0.322 OA
ATOM      9  H   LIG    1       28.109 -15.057   4.730  0.00  0.00    +0.220 HD
ENDBRANCH   5   8
ENDBRANCH   1   5
BRANCH   1  10
ATOM     10  P   LIG    1       24.347 -13.376   4.225  0.00  0.00    +0.375 P 
ATOM     11  O   LIG    1       23.519 -14.500   4.773  0.00  0.00    -0.255 OA
BRANCH  10  12
ATOM     12  O   LIG    1       23.527 -12.627   3.061  0.00  0.00    -0.322 OA
ATOM     13  H   LIG    1       24.067 -11.943   2.613  0.00  0.00    +0.220 HD
ENDBRANCH  10  12
BRANCH  10  14
ATOM     14  O   LIG    1       24.423 -12.179   5.299  0.00  0.00    -0.322 OA
ATOM     15  H   LIG    1       24.911 -12.394   6.116  0.00  0.00    +0.220 HD
ENDBRANCH  10  14
ENDBRANCH   1  10
TORSDOF 6
ENDMDL
MODEL 9
REMARK VINA RESULT:      -3.4      6.075      7.581
REMARK  Name = *****
REMARK                            x       y       z     vdW  Elec       q    Type
REMARK                         _______ _______ _______ _____ _____    ______ ____
ROOT
ATOM      1  C   LIG    1       24.497 -19.557   4.323  0.00  0.00    +0.317 C 
ATOM      2 CL   LIG    1       24.744 -20.748   2.921  0.00  0.00    -0.075 Cl
ATOM      3 CL   LIG    1       24.581 -17.913   3.597  0.00  0.00    -0.075 Cl
ENDROOT
BRANCH   1   5
ATOM      4  O   LIG    1       26.974 -20.367   6.466  0.00  0.00    -0.255 OA
ATOM      5  P   LIG    1       25.840 -19.996   5.485  0.00  0.00    +0.375 P 
BRANCH   5   6
ATOM      6  O   LIG    1       25.313 -21.562   5.539  0.00  0.00    -0.322 OA
ATOM      7  H   LIG    1       24.569 -21.605   6.175  0.00  0.00    +0.220 HD
ENDBRANCH   5   6
BRANCH   5   8
ATOM      8  O   LIG    1       26.872 -20.196   4.218  0.00  0.00    -0.322 OA
ATOM      9  H   LIG    1       26.717 -19.464   3.587  0.00  0.00    +0.220 HD
ENDBRANCH   5   8
ENDBRANCH   1   5
BRANCH   1  10
ATOM     10  P   LIG    1       22.790 -19.832   4.881  0.00  0.00    +0.375 P 
ATOM     11  O   LIG    1       21.692 -18.899   4.465  0.00  0.00    -0.255 OA
BRANCH  10  12
ATOM     12  O   LIG    1       22.834 -19.923   6.487  0.00  0.00    -0.322 OA
ATOM     13  H   LIG    1       21.993 -20.260   6.858  0.00  0.00    +0.220 HD
ENDBRANCH  10  12
BRANCH  10  14
ATOM     14  O   LIG    1       22.372 -21.351   4.547  0.00  0.00    -0.322 OA
ATOM     15  H   LIG    1       21.447 -21.576   4.758  0.00  0.00    +0.220 HD
ENDBRANCH  10  14
ENDBRANCH   1  10
TORSDOF 6
ENDMDL
