MODEL 1
REMARK VINA RESULT:      -9.6      0.000      0.000
REMARK  Name = *****
REMARK                            x       y       z     vdW  Elec       q    Type
REMARK                         _______ _______ _______ _____ _____    ______ ____
ROOT
ATOM      1  C   LIG    1       24.405 -28.075   6.803  0.00  0.00    +0.161 C 
ENDROOT
BRANCH   1   3
ATOM      2  C   LIG    1       25.814 -29.599   8.578  0.00  0.00    +0.113 C 
ATOM      3  N   LIG    1       24.921 -29.374   7.525  0.00  0.00    -0.292 N 
ATOM      4  C   LIG    1       24.507 -30.575   6.854  0.00  0.00    +0.258 C 
ATOM      5  O   LIG    1       23.776 -30.558   5.875  0.00  0.00    -0.267 OA
ATOM      6  C   LIG    1       25.028 -31.896   7.379  0.00  0.00    +0.044 C 
ATOM      7  C   LIG    1       25.690 -31.883   8.500  0.00  0.00    +0.049 C 
ATOM      8  C   LIG    1       26.218 -33.038   9.310  0.00  0.00    +0.066 C 
ATOM      9  N   LIG    1       26.097 -30.669   9.077  0.00  0.00    -0.238 NA
BRANCH   2  10
ATOM     10  C   LIG    1       26.597 -28.504   9.306  0.00  0.00    +0.074 C 
BRANCH  10  11
ATOM     11  C   LIG    1       26.207 -28.376  10.952  0.00  0.00    +0.007 C 
BRANCH  11  13
ATOM     12  C   LIG    1       26.300 -26.249  12.936  0.00  0.00    +0.004 C 
ATOM     13  C   LIG    1       26.969 -27.261  11.995  0.00  0.00    -0.003 C 
ENDBRANCH  11  13
ENDBRANCH  10  11
ENDBRANCH   2  10
BRANCH   6  14
ATOM     14  C   LIG    1       24.690 -33.142   6.546  0.00  0.00    +0.101 C 
BRANCH  14  15
ATOM     15  C   LIG    1       25.607 -33.329   5.314  0.00  0.00    +0.055 C 
ATOM     16  S   LIG    1       27.284 -33.372   5.546  0.00  0.00    -0.040 S 
BRANCH  15  17
ATOM     17  N   LIG    1       25.017 -33.521   4.061  0.00  0.00    -0.333 N 
ATOM     18  C   LIG    1       25.651 -32.969   2.867  0.00  0.00    +0.129 C 
ATOM     19  C   LIG    1       23.601 -33.825   3.915  0.00  0.00    +0.129 C 
ENDBRANCH  15  17
ENDBRANCH  14  15
ENDBRANCH   6  14
ENDBRANCH   1   3
BRANCH   1  20
ATOM     20  C   LIG    1       25.319 -26.782   6.377  0.00  0.00    -0.028 A 
ATOM     21  C   LIG    1       25.229 -26.263   5.105  0.00  0.00    +0.006 A 
ATOM     22  C   LIG    1       24.993 -24.910   4.643  0.00  0.00    +0.009 A 
ATOM     23  C   LIG    1       25.179 -23.860   5.489  0.00  0.00    -0.017 A 
ATOM     24  C   LIG    1       25.653 -24.337   6.727  0.00  0.00    +0.009 A 
ATOM     25  C   LIG    1       25.644 -25.736   7.199  0.00  0.00    +0.006 A 
BRANCH  23  26
ATOM     26  C   LIG    1       24.794 -22.439   5.075  0.00  0.00    -0.007 A 
ATOM     27  C   LIG    1       25.169 -21.242   5.753  0.00  0.00    +0.028 A 
ATOM     28  C   LIG    1       24.957 -19.992   5.105  0.00  0.00    +0.012 A 
ATOM     29  C   LIG    1       24.309 -19.875   3.873  0.00  0.00    +0.001 A 
ATOM     30  C   LIG    1       23.797 -21.005   3.273  0.00  0.00    +0.001 A 
ATOM     31  C   LIG    1       24.028 -22.252   3.867  0.00  0.00    +0.009 A 
BRANCH  27  32
ATOM     32  C   LIG    1       25.729 -21.199   7.117  0.00  0.00    +0.180 A 
ATOM     33  N   LIG    1       24.998 -21.210   8.282  0.00  0.00    -0.239 N 
ATOM     34  H   LIG    1       23.999 -21.274   8.427  0.00  0.00    +0.192 HD
ATOM     35  N   LIG    1       25.800 -21.132   9.351  0.00  0.00    -0.046 NA
ATOM     36  N   LIG    1       27.025 -21.130   8.856  0.00  0.00    -0.023 NA
ATOM     37  N   LIG    1       26.999 -21.209   7.486  0.00  0.00    -0.108 NA
ENDBRANCH  27  32
ENDBRANCH  23  26
ENDBRANCH   1  20
TORSDOF 10
ENDMDL
MODEL 2
REMARK VINA RESULT:      -9.5      2.315      5.002
REMARK  Name = *****
REMARK                            x       y       z     vdW  Elec       q    Type
REMARK                         _______ _______ _______ _____ _____    ______ ____
ROOT
ATOM      1  C   LIG    1       26.092 -27.377   7.380  0.00  0.00    +0.161 C 
ENDROOT
BRANCH   1   3
ATOM      2  C   LIG    1       24.953 -29.840   7.689  0.00  0.00    +0.113 C 
ATOM      3  N   LIG    1       25.703 -28.727   8.086  0.00  0.00    -0.292 N 
ATOM      4  C   LIG    1       26.062 -28.742   9.478  0.00  0.00    +0.258 C 
ATOM      5  O   LIG    1       26.665 -27.820  10.006  0.00  0.00    -0.267 OA
ATOM      6  C   LIG    1       25.643 -29.938  10.305  0.00  0.00    +0.044 C 
ATOM      7  C   LIG    1       25.125 -30.955   9.679  0.00  0.00    +0.049 C 
ATOM      8  C   LIG    1       24.731 -32.307  10.217  0.00  0.00    +0.066 C 
ATOM      9  N   LIG    1       24.762 -30.855   8.327  0.00  0.00    -0.238 NA
BRANCH   2  10
ATOM     10  C   LIG    1       24.239 -29.973   6.343  0.00  0.00    +0.074 C 
BRANCH  10  11
ATOM     11  C   LIG    1       25.292 -30.271   5.046  0.00  0.00    +0.007 C 
BRANCH  11  13
ATOM     12  C   LIG    1       26.604 -32.815   5.568  0.00  0.00    +0.004 C 
ATOM     13  C   LIG    1       25.854 -31.834   4.656  0.00  0.00    -0.003 C 
ENDBRANCH  11  13
ENDBRANCH  10  11
ENDBRANCH   2  10
BRANCH   6  14
ATOM     14  C   LIG    1       25.907 -29.848  11.816  0.00  0.00    +0.101 C 
BRANCH  14  15
ATOM     15  C   LIG    1       24.713 -29.280  12.620  0.00  0.00    +0.055 C 
ATOM     16  S   LIG    1       23.523 -30.349  13.173  0.00  0.00    -0.040 S 
BRANCH  15  17
ATOM     17  N   LIG    1       24.693 -27.914  12.916  0.00  0.00    -0.333 N 
ATOM     18  C   LIG    1       25.926 -27.237  13.308  0.00  0.00    +0.129 C 
ATOM     19  C   LIG    1       23.470 -27.228  13.307  0.00  0.00    +0.129 C 
ENDBRANCH  15  17
ENDBRANCH  14  15
ENDBRANCH   6  14
ENDBRANCH   1   3
BRANCH   1  20
ATOM     20  C   LIG    1       25.128 -26.493   6.392  0.00  0.00    -0.028 A 
ATOM     21  C   LIG    1       24.355 -25.478   6.908  0.00  0.00    +0.006 A 
ATOM     22  C   LIG    1       24.230 -24.087   6.524  0.00  0.00    +0.009 A 
ATOM     23  C   LIG    1       24.652 -23.679   5.296  0.00  0.00    -0.017 A 
ATOM     24  C   LIG    1       25.114 -24.794   4.569  0.00  0.00    +0.009 A 
ATOM     25  C   LIG    1       25.430 -26.132   5.106  0.00  0.00    +0.006 A 
BRANCH  23  26
ATOM     26  C   LIG    1       24.669 -22.196   4.923  0.00  0.00    -0.007 A 
ATOM     27  C   LIG    1       25.333 -21.162   5.645  0.00  0.00    +0.028 A 
ATOM     28  C   LIG    1       25.476 -19.882   5.036  0.00  0.00    +0.012 A 
ATOM     29  C   LIG    1       24.910 -19.563   3.799  0.00  0.00    +0.001 A 
ATOM     30  C   LIG    1       24.130 -20.499   3.155  0.00  0.00    +0.001 A 
ATOM     31  C   LIG    1       24.008 -21.778   3.712  0.00  0.00    +0.009 A 
BRANCH  27  32
ATOM     32  C   LIG    1       25.852 -21.307   7.019  0.00  0.00    +0.180 A 
ATOM     33  N   LIG    1       25.178 -20.969   8.169  0.00  0.00    -0.239 N 
ATOM     34  H   LIG    1       24.244 -20.603   8.296  0.00  0.00    +0.192 HD
ATOM     35  N   LIG    1       25.935 -21.194   9.250  0.00  0.00    -0.046 NA
ATOM     36  N   LIG    1       27.050 -21.724   8.780  0.00  0.00    -0.023 NA
ATOM     37  N   LIG    1       26.999 -21.835   7.412  0.00  0.00    -0.108 NA
ENDBRANCH  27  32
ENDBRANCH  23  26
ENDBRANCH   1  20
TORSDOF 10
ENDMDL
MODEL 3
REMARK VINA RESULT:      -9.4      2.841      5.146
REMARK  Name = *****
REMARK                            x       y       z     vdW  Elec       q    Type
REMARK                         _______ _______ _______ _____ _____    ______ ____
ROOT
ATOM      1  C   LIG    1       25.920 -28.187   7.924  0.00  0.00    +0.161 C 
ENDROOT
BRANCH   1   3
ATOM      2  C   LIG    1       24.317 -30.308   7.299  0.00  0.00    +0.113 C 
ATOM      3  N   LIG    1       25.021 -29.456   8.157  0.00  0.00    -0.292 N 
ATOM      4  C   LIG    1       24.743 -29.683   9.549  0.00  0.00    +0.258 C 
ATOM      5  O   LIG    1       25.226 -28.991  10.432  0.00  0.00    -0.267 OA
ATOM      6  C   LIG    1       23.795 -30.807   9.908  0.00  0.00    +0.044 C 
ATOM      7  C   LIG    1       23.412 -31.604   8.953  0.00  0.00    +0.049 C 
ATOM      8  C   LIG    1       22.580 -32.858   9.032  0.00  0.00    +0.066 C 
ATOM      9  N   LIG    1       23.685 -31.296   7.610  0.00  0.00    -0.238 NA
BRANCH   2  10
ATOM     10  C   LIG    1       24.233 -30.138   5.781  0.00  0.00    +0.074 C 
BRANCH  10  11
ATOM     11  C   LIG    1       25.641 -30.624   4.968  0.00  0.00    +0.007 C 
BRANCH  11  13
ATOM     12  C   LIG    1       25.798 -32.754   2.992  0.00  0.00    +0.004 C 
ATOM     13  C   LIG    1       25.888 -32.225   4.429  0.00  0.00    -0.003 C 
ENDBRANCH  11  13
ENDBRANCH  10  11
ENDBRANCH   2  10
BRANCH   6  14
ATOM     14  C   LIG    1       23.403 -30.920  11.389  0.00  0.00    +0.101 C 
BRANCH  14  15
ATOM     15  C   LIG    1       22.170 -30.066  11.770  0.00  0.00    +0.055 C 
ATOM     16  S   LIG    1       20.634 -30.598  11.297  0.00  0.00    -0.040 S 
BRANCH  15  17
ATOM     17  N   LIG    1       22.363 -28.918  12.545  0.00  0.00    -0.333 N 
ATOM     18  C   LIG    1       23.562 -28.791  13.368  0.00  0.00    +0.129 C 
ATOM     19  C   LIG    1       21.255 -28.064  12.944  0.00  0.00    +0.129 C 
ENDBRANCH  15  17
ENDBRANCH  14  15
ENDBRANCH   6  14
ENDBRANCH   1   3
BRANCH   1  20
ATOM     20  C   LIG    1       25.714 -27.062   6.749  0.00  0.00    -0.028 A 
ATOM     21  C   LIG    1       24.449 -26.631   6.420  0.00  0.00    +0.006 A 
ATOM     22  C   LIG    1       23.892 -25.297   6.322  0.00  0.00    +0.009 A 
ATOM     23  C   LIG    1       24.719 -24.221   6.213  0.00  0.00    -0.017 A 
ATOM     24  C   LIG    1       26.056 -24.665   6.160  0.00  0.00    +0.009 A 
ATOM     25  C   LIG    1       26.556 -26.010   6.502  0.00  0.00    +0.006 A 
BRANCH  23  26
ATOM     26  C   LIG    1       24.166 -22.797   6.259  0.00  0.00    -0.007 A 
ATOM     27  C   LIG    1       24.903 -21.626   6.601  0.00  0.00    +0.028 A 
ATOM     28  C   LIG    1       24.324 -20.350   6.346  0.00  0.00    +0.012 A 
ATOM     29  C   LIG    1       23.022 -20.190   5.864  0.00  0.00    +0.001 A 
ATOM     30  C   LIG    1       22.234 -21.305   5.675  0.00  0.00    +0.001 A 
ATOM     31  C   LIG    1       22.793 -22.573   5.877  0.00  0.00    +0.009 A 
BRANCH  27  32
ATOM     32  C   LIG    1       26.227 -21.637   7.253  0.00  0.00    +0.180 A 
ATOM     33  N   LIG    1       27.427 -21.386   6.629  0.00  0.00    -0.239 N 
ATOM     34  H   LIG    1       27.626 -21.133   5.671  0.00  0.00    +0.192 HD
ATOM     35  N   LIG    1       28.447 -21.504   7.490  0.00  0.00    -0.046 NA
ATOM     36  N   LIG    1       27.880 -21.770   8.653  0.00  0.00    -0.023 NA
ATOM     37  N   LIG    1       26.513 -21.818   8.531  0.00  0.00    -0.108 NA
ENDBRANCH  27  32
ENDBRANCH  23  26
ENDBRANCH   1  20
TORSDOF 10
ENDMDL
MODEL 4
REMARK VINA RESULT:      -9.2      2.331      4.890
REMARK  Name = *****
REMARK                            x       y       z     vdW  Elec       q    Type
REMARK                         _______ _______ _______ _____ _____    ______ ____
ROOT
ATOM      1  C   LIG    1       25.181 -28.835   5.561  0.00  0.00    +0.161 C 
ENDROOT
BRANCH   1   3
ATOM      2  C   LIG    1       25.850 -31.305   6.516  0.00  0.00    +0.113 C 
ATOM      3  N   LIG    1       25.243 -30.045   6.564  0.00  0.00    -0.292 N 
ATOM      4  C   LIG    1       24.363 -29.871   7.687  0.00  0.00    +0.258 C 
ATOM      5  O   LIG    1       23.706 -28.855   7.851  0.00  0.00    -0.267 OA
ATOM      6  C   LIG    1       24.240 -31.013   8.673  0.00  0.00    +0.044 C 
ATOM      7  C   LIG    1       25.054 -32.019   8.539  0.00  0.00    +0.049 C 
ATOM      8  C   LIG    1       25.240 -33.222   9.427  0.00  0.00    +0.066 C 
ATOM      9  N   LIG    1       25.857 -32.143   7.394  0.00  0.00    -0.238 NA
BRANCH   2  10
ATOM     10  C   LIG    1       26.637 -31.847   5.322  0.00  0.00    +0.074 C 
BRANCH  10  11
ATOM     11  C   LIG    1       25.664 -32.215   3.982  0.00  0.00    +0.007 C 
BRANCH  11  13
ATOM     12  C   LIG    1       27.349 -33.707   2.138  0.00  0.00    +0.004 C 
ATOM     13  C   LIG    1       26.033 -33.475   2.893  0.00  0.00    -0.003 C 
ENDBRANCH  11  13
ENDBRANCH  10  11
ENDBRANCH   2  10
BRANCH   6  14
ATOM     14  C   LIG    1       23.176 -30.853   9.771  0.00  0.00    +0.101 C 
BRANCH  14  15
ATOM     15  C   LIG    1       23.682 -30.087  11.016  0.00  0.00    +0.055 C 
ATOM     16  S   LIG    1       22.545 -29.405  12.069  0.00  0.00    -0.040 S 
BRANCH  15  17
ATOM     17  N   LIG    1       25.057 -30.039  11.262  0.00  0.00    -0.333 N 
ATOM     18  C   LIG    1       25.660 -30.977  12.205  0.00  0.00    +0.129 C 
ATOM     19  C   LIG    1       25.845 -28.843  11.003  0.00  0.00    +0.129 C 
ENDBRANCH  15  17
ENDBRANCH  14  15
ENDBRANCH   6  14
ENDBRANCH   1   3
BRANCH   1  20
ATOM     20  C   LIG    1       25.831 -27.349   5.802  0.00  0.00    -0.028 A 
ATOM     21  C   LIG    1       25.648 -26.356   4.867  0.00  0.00    +0.006 A 
ATOM     22  C   LIG    1       25.158 -24.999   5.002  0.00  0.00    +0.009 A 
ATOM     23  C   LIG    1       25.136 -24.402   6.225  0.00  0.00    -0.017 A 
ATOM     24  C   LIG    1       25.689 -25.278   7.181  0.00  0.00    +0.009 A 
ATOM     25  C   LIG    1       25.947 -26.721   7.014  0.00  0.00    +0.006 A 
BRANCH  23  26
ATOM     26  C   LIG    1       24.488 -23.031   6.420  0.00  0.00    -0.007 A 
ATOM     27  C   LIG    1       25.171 -21.825   6.752  0.00  0.00    +0.028 A 
ATOM     28  C   LIG    1       24.474 -20.588   6.642  0.00  0.00    +0.012 A 
ATOM     29  C   LIG    1       23.118 -20.508   6.316  0.00  0.00    +0.001 A 
ATOM     30  C   LIG    1       22.397 -21.670   6.146  0.00  0.00    +0.001 A 
ATOM     31  C   LIG    1       23.068 -22.898   6.206  0.00  0.00    +0.009 A 
BRANCH  27  32
ATOM     32  C   LIG    1       26.558 -21.765   7.252  0.00  0.00    +0.180 A 
ATOM     33  N   LIG    1       27.676 -21.541   6.483  0.00  0.00    -0.239 N 
ATOM     34  H   LIG    1       27.763 -21.357   5.492  0.00  0.00    +0.192 HD
ATOM     35  N   LIG    1       28.786 -21.576   7.231  0.00  0.00    -0.046 NA
ATOM     36  N   LIG    1       28.357 -21.764   8.467  0.00  0.00    -0.023 NA
ATOM     37  N   LIG    1       26.987 -21.844   8.500  0.00  0.00    -0.108 NA
ENDBRANCH  27  32
ENDBRANCH  23  26
ENDBRANCH   1  20
TORSDOF 10
ENDMDL
MODEL 5
REMARK VINA RESULT:      -9.1      2.133      4.422
REMARK  Name = *****
REMARK                            x       y       z     vdW  Elec       q    Type
REMARK                         _______ _______ _______ _____ _____    ______ ____
ROOT
ATOM      1  C   LIG    1       24.963 -28.672   6.133  0.00  0.00    +0.161 C 
ENDROOT
BRANCH   1   3
ATOM      2  C   LIG    1       25.984 -31.204   6.184  0.00  0.00    +0.113 C 
ATOM      3  N   LIG    1       25.606 -29.975   6.735  0.00  0.00    -0.292 N 
ATOM      4  C   LIG    1       25.668 -29.943   8.170  0.00  0.00    +0.258 C 
ATOM      5  O   LIG    1       25.317 -28.969   8.818  0.00  0.00    -0.267 OA
ATOM      6  C   LIG    1       26.163 -31.182   8.886  0.00  0.00    +0.044 C 
ATOM      7  C   LIG    1       26.654 -32.144   8.160  0.00  0.00    +0.049 C 
ATOM      8  C   LIG    1       27.318 -33.425   8.595  0.00  0.00    +0.066 C 
ATOM      9  N   LIG    1       26.521 -32.127   6.762  0.00  0.00    -0.238 NA
BRANCH   2  10
ATOM     10  C   LIG    1       25.790 -31.598   4.719  0.00  0.00    +0.074 C 
BRANCH  10  11
ATOM     11  C   LIG    1       24.854 -32.998   4.514  0.00  0.00    +0.007 C 
BRANCH  11  13
ATOM     12  C   LIG    1       23.055 -33.366   6.772  0.00  0.00    +0.004 C 
ATOM     13  C   LIG    1       23.339 -33.213   5.271  0.00  0.00    -0.003 C 
ENDBRANCH  11  13
ENDBRANCH  10  11
ENDBRANCH   2  10
BRANCH   6  14
ATOM     14  C   LIG    1       26.068 -31.167  10.419  0.00  0.00    +0.101 C 
BRANCH  14  15
ATOM     15  C   LIG    1       24.690 -31.617  10.959  0.00  0.00    +0.055 C 
ATOM     16  S   LIG    1       24.389 -33.273  11.142  0.00  0.00    -0.040 S 
BRANCH  15  17
ATOM     17  N   LIG    1       23.765 -30.639  11.336  0.00  0.00    -0.333 N 
ATOM     18  C   LIG    1       22.526 -30.480  10.579  0.00  0.00    +0.129 C 
ATOM     19  C   LIG    1       24.150 -29.479  12.127  0.00  0.00    +0.129 C 
ENDBRANCH  15  17
ENDBRANCH  14  15
ENDBRANCH   6  14
ENDBRANCH   1   3
BRANCH   1  20
ATOM     20  C   LIG    1       25.666 -27.192   6.066  0.00  0.00    -0.028 A 
ATOM     21  C   LIG    1       25.381 -26.340   5.023  0.00  0.00    +0.006 A 
ATOM     22  C   LIG    1       24.938 -24.960   5.015  0.00  0.00    +0.009 A 
ATOM     23  C   LIG    1       25.087 -24.191   6.128  0.00  0.00    -0.017 A 
ATOM     24  C   LIG    1       25.743 -24.938   7.126  0.00  0.00    +0.009 A 
ATOM     25  C   LIG    1       25.950 -26.399   7.146  0.00  0.00    +0.006 A 
BRANCH  23  26
ATOM     26  C   LIG    1       24.495 -22.783   6.195  0.00  0.00    -0.007 A 
ATOM     27  C   LIG    1       25.210 -21.592   6.520  0.00  0.00    +0.028 A 
ATOM     28  C   LIG    1       24.587 -20.333   6.287  0.00  0.00    +0.012 A 
ATOM     29  C   LIG    1       23.267 -20.209   5.845  0.00  0.00    +0.001 A 
ATOM     30  C   LIG    1       22.505 -21.345   5.676  0.00  0.00    +0.001 A 
ATOM     31  C   LIG    1       23.106 -22.597   5.857  0.00  0.00    +0.009 A 
BRANCH  27  32
ATOM     32  C   LIG    1       26.553 -21.568   7.131  0.00  0.00    +0.180 A 
ATOM     33  N   LIG    1       27.733 -21.360   6.457  0.00  0.00    -0.239 N 
ATOM     34  H   LIG    1       27.904 -21.167   5.479  0.00  0.00    +0.192 HD
ATOM     35  N   LIG    1       28.778 -21.428   7.292  0.00  0.00    -0.046 NA
ATOM     36  N   LIG    1       28.247 -21.620   8.487  0.00  0.00    -0.023 NA
ATOM     37  N   LIG    1       26.877 -21.671   8.409  0.00  0.00    -0.108 NA
ENDBRANCH  27  32
ENDBRANCH  23  26
ENDBRANCH   1  20
TORSDOF 10
ENDMDL
MODEL 6
REMARK VINA RESULT:      -9.0      1.749      2.574
REMARK  Name = *****
REMARK                            x       y       z     vdW  Elec       q    Type
REMARK                         _______ _______ _______ _____ _____    ______ ____
ROOT
ATOM      1  C   LIG    1       24.001 -28.362   6.989  0.00  0.00    +0.161 C 
ENDROOT
BRANCH   1   3
ATOM      2  C   LIG    1       25.876 -29.628   8.519  0.00  0.00    +0.113 C 
ATOM      3  N   LIG    1       24.852 -29.551   7.569  0.00  0.00    -0.292 N 
ATOM      4  C   LIG    1       24.634 -30.779   6.855  0.00  0.00    +0.258 C 
ATOM      5  O   LIG    1       23.820 -30.873   5.949  0.00  0.00    -0.267 OA
ATOM      6  C   LIG    1       25.475 -31.979   7.237  0.00  0.00    +0.044 C 
ATOM      7  C   LIG    1       26.230 -31.877   8.292  0.00  0.00    +0.049 C 
ATOM      8  C   LIG    1       27.071 -32.929   8.968  0.00  0.00    +0.066 C 
ATOM      9  N   LIG    1       26.428 -30.634   8.914  0.00  0.00    -0.238 NA
BRANCH   2  10
ATOM     10  C   LIG    1       26.479 -28.426   9.248  0.00  0.00    +0.074 C 
BRANCH  10  11
ATOM     11  C   LIG    1       26.240 -28.466  10.927  0.00  0.00    +0.007 C 
BRANCH  11  13
ATOM     12  C   LIG    1       26.251 -26.373  12.949  0.00  0.00    +0.004 C 
ATOM     13  C   LIG    1       26.958 -27.337  11.987  0.00  0.00    -0.003 C 
ENDBRANCH  11  13
ENDBRANCH  10  11
ENDBRANCH   2  10
BRANCH   6  14
ATOM     14  C   LIG    1       25.325 -33.225   6.351  0.00  0.00    +0.101 C 
BRANCH  14  15
ATOM     15  C   LIG    1       26.302 -33.255   5.152  0.00  0.00    +0.055 C 
ATOM     16  S   LIG    1       27.943 -33.547   5.447  0.00  0.00    -0.040 S 
BRANCH  15  17
ATOM     17  N   LIG    1       25.785 -33.102   3.862  0.00  0.00    -0.333 N 
ATOM     18  C   LIG    1       24.426 -33.546   3.567  0.00  0.00    +0.129 C 
ATOM     19  C   LIG    1       26.648 -32.961   2.699  0.00  0.00    +0.129 C 
ENDBRANCH  15  17
ENDBRANCH  14  15
ENDBRANCH   6  14
ENDBRANCH   1   3
BRANCH   1  20
ATOM     20  C   LIG    1       24.585 -27.074   6.158  0.00  0.00    -0.028 A 
ATOM     21  C   LIG    1       23.864 -25.904   6.103  0.00  0.00    +0.006 A 
ATOM     22  C   LIG    1       24.242 -24.537   6.403  0.00  0.00    +0.009 A 
ATOM     23  C   LIG    1       25.557 -24.192   6.458  0.00  0.00    -0.017 A 
ATOM     24  C   LIG    1       26.347 -25.312   6.133  0.00  0.00    +0.009 A 
ATOM     25  C   LIG    1       25.905 -26.719   6.071  0.00  0.00    +0.006 A 
BRANCH  23  26
ATOM     26  C   LIG    1       25.985 -22.797   6.917  0.00  0.00    -0.007 A 
ATOM     27  C   LIG    1       25.261 -21.589   6.700  0.00  0.00    +0.028 A 
ATOM     28  C   LIG    1       25.653 -20.417   7.409  0.00  0.00    +0.012 A 
ATOM     29  C   LIG    1       26.778 -20.371   8.236  0.00  0.00    +0.001 A 
ATOM     30  C   LIG    1       27.584 -21.484   8.336  0.00  0.00    +0.001 A 
ATOM     31  C   LIG    1       27.198 -22.661   7.684  0.00  0.00    +0.009 A 
BRANCH  27  32
ATOM     32  C   LIG    1       24.143 -21.448   5.747  0.00  0.00    +0.180 A 
ATOM     33  N   LIG    1       22.827 -21.237   6.084  0.00  0.00    -0.239 N 
ATOM     34  H   LIG    1       22.395 -21.116   6.990  0.00  0.00    +0.192 HD
ATOM     35  N   LIG    1       22.056 -21.184   4.990  0.00  0.00    -0.046 NA
ATOM     36  N   LIG    1       22.895 -21.304   3.976  0.00  0.00    -0.023 NA
ATOM     37  N   LIG    1       24.188 -21.429   4.425  0.00  0.00    -0.108 NA
ENDBRANCH  27  32
ENDBRANCH  23  26
ENDBRANCH   1  20
TORSDOF 10
ENDMDL
MODEL 7
REMARK VINA RESULT:      -8.9      3.439     10.305
REMARK  Name = *****
REMARK                            x       y       z     vdW  Elec       q    Type
REMARK                         _______ _______ _______ _____ _____    ______ ____
ROOT
ATOM      1  C   LIG    1       24.515 -24.830   5.544  0.00  0.00    +0.161 C 
ENDROOT
BRANCH   1   3
ATOM      2  C   LIG    1       23.978 -22.605   7.033  0.00  0.00    +0.113 C 
ATOM      3  N   LIG    1       24.787 -23.618   6.508  0.00  0.00    -0.292 N 
ATOM      4  C   LIG    1       26.188 -23.430   6.768  0.00  0.00    +0.258 C 
ATOM      5  O   LIG    1       27.041 -24.187   6.332  0.00  0.00    -0.267 OA
ATOM      6  C   LIG    1       26.601 -22.228   7.592  0.00  0.00    +0.044 C 
ATOM      7  C   LIG    1       25.658 -21.525   8.151  0.00  0.00    +0.049 C 
ATOM      8  C   LIG    1       25.771 -20.366   9.106  0.00  0.00    +0.066 C 
ATOM      9  N   LIG    1       24.311 -21.739   7.816  0.00  0.00    -0.238 NA
BRANCH   2  10
ATOM     10  C   LIG    1       22.494 -22.420   6.710  0.00  0.00    +0.074 C 
BRANCH  10  11
ATOM     11  C   LIG    1       22.215 -21.419   5.369  0.00  0.00    +0.007 C 
BRANCH  11  13
ATOM     12  C   LIG    1       22.141 -18.652   4.472  0.00  0.00    +0.004 C 
ATOM     13  C   LIG    1       22.735 -19.796   5.306  0.00  0.00    -0.003 C 
ENDBRANCH  11  13
ENDBRANCH  10  11
ENDBRANCH   2  10
BRANCH   6  14
ATOM     14  C   LIG    1       28.111 -21.975   7.718  0.00  0.00    +0.101 C 
BRANCH  14  15
ATOM     15  C   LIG    1       28.576 -20.659   7.050  0.00  0.00    +0.055 C 
ATOM     16  S   LIG    1       27.719 -20.080   5.709  0.00  0.00    -0.040 S 
BRANCH  15  17
ATOM     17  N   LIG    1       29.647 -19.961   7.616  0.00  0.00    -0.333 N 
ATOM     18  C   LIG    1       29.986 -18.629   7.125  0.00  0.00    +0.129 C 
ATOM     19  C   LIG    1       30.720 -20.642   8.326  0.00  0.00    +0.129 C 
ENDBRANCH  15  17
ENDBRANCH  14  15
ENDBRANCH   6  14
ENDBRANCH   1   3
BRANCH   1  20
ATOM     20  C   LIG    1       25.175 -26.326   5.665  0.00  0.00    -0.028 A 
ATOM     21  C   LIG    1       25.665 -26.768   6.873  0.00  0.00    +0.006 A 
ATOM     22  C   LIG    1       25.402 -27.980   7.622  0.00  0.00    +0.009 A 
ATOM     23  C   LIG    1       24.847 -29.056   7.001  0.00  0.00    -0.017 A 
ATOM     24  C   LIG    1       24.675 -28.767   5.633  0.00  0.00    +0.009 A 
ATOM     25  C   LIG    1       24.746 -27.439   4.993  0.00  0.00    +0.006 A 
BRANCH  23  26
ATOM     26  C   LIG    1       24.422 -30.291   7.797  0.00  0.00    -0.007 A 
ATOM     27  C   LIG    1       24.749 -31.641   7.479  0.00  0.00    +0.028 A 
ATOM     28  C   LIG    1       24.506 -32.654   8.451  0.00  0.00    +0.012 A 
ATOM     29  C   LIG    1       23.871 -32.400   9.669  0.00  0.00    +0.001 A 
ATOM     30  C   LIG    1       23.404 -31.130   9.931  0.00  0.00    +0.001 A 
ATOM     31  C   LIG    1       23.668 -30.107   9.012  0.00  0.00    +0.009 A 
BRANCH  27  32
ATOM     32  C   LIG    1       25.288 -32.083   6.178  0.00  0.00    +0.180 A 
ATOM     33  N   LIG    1       24.548 -32.312   5.042  0.00  0.00    -0.239 N 
ATOM     34  H   LIG    1       23.556 -32.205   4.874  0.00  0.00    +0.192 HD
ATOM     35  N   LIG    1       25.329 -32.731   4.039  0.00  0.00    -0.046 NA
ATOM     36  N   LIG    1       26.555 -32.708   4.530  0.00  0.00    -0.023 NA
ATOM     37  N   LIG    1       26.550 -32.275   5.834  0.00  0.00    -0.108 NA
ENDBRANCH  27  32
ENDBRANCH  23  26
ENDBRANCH   1  20
TORSDOF 10
ENDMDL
MODEL 8
REMARK VINA RESULT:      -8.8      3.529      9.946
REMARK  Name = *****
REMARK                            x       y       z     vdW  Elec       q    Type
REMARK                         _______ _______ _______ _____ _____    ______ ____
ROOT
ATOM      1  C   LIG    1       24.550 -24.896   5.731  0.00  0.00    +0.161 C 
ENDROOT
BRANCH   1   3
ATOM      2  C   LIG    1       23.997 -22.590   7.087  0.00  0.00    +0.113 C 
ATOM      3  N   LIG    1       24.812 -23.632   6.629  0.00  0.00    -0.292 N 
ATOM      4  C   LIG    1       26.210 -23.430   6.897  0.00  0.00    +0.258 C 
ATOM      5  O   LIG    1       27.067 -24.211   6.514  0.00  0.00    -0.267 OA
ATOM      6  C   LIG    1       26.613 -22.185   7.657  0.00  0.00    +0.044 C 
ATOM      7  C   LIG    1       25.664 -21.451   8.164  0.00  0.00    +0.049 C 
ATOM      8  C   LIG    1       25.767 -20.241   9.055  0.00  0.00    +0.066 C 
ATOM      9  N   LIG    1       24.322 -21.683   7.825  0.00  0.00    -0.238 NA
BRANCH   2  10
ATOM     10  C   LIG    1       22.518 -22.423   6.735  0.00  0.00    +0.074 C 
BRANCH  10  11
ATOM     11  C   LIG    1       22.254 -21.444   5.375  0.00  0.00    +0.007 C 
BRANCH  11  13
ATOM     12  C   LIG    1       22.152 -18.675   4.488  0.00  0.00    +0.004 C 
ATOM     13  C   LIG    1       22.779 -19.823   5.291  0.00  0.00    -0.003 C 
ENDBRANCH  11  13
ENDBRANCH  10  11
ENDBRANCH   2  10
BRANCH   6  14
ATOM     14  C   LIG    1       28.121 -21.925   7.788  0.00  0.00    +0.101 C 
BRANCH  14  15
ATOM     15  C   LIG    1       28.610 -20.693   6.990  0.00  0.00    +0.055 C 
ATOM     16  S   LIG    1       27.637 -20.097   5.738  0.00  0.00    -0.040 S 
BRANCH  15  17
ATOM     17  N   LIG    1       29.805 -20.077   7.372  0.00  0.00    -0.333 N 
ATOM     18  C   LIG    1       30.436 -19.103   6.485  0.00  0.00    +0.129 C 
ATOM     19  C   LIG    1       30.695 -20.668   8.361  0.00  0.00    +0.129 C 
ENDBRANCH  15  17
ENDBRANCH  14  15
ENDBRANCH   6  14
ENDBRANCH   1   3
BRANCH   1  20
ATOM     20  C   LIG    1       25.365 -26.316   5.804  0.00  0.00    -0.028 A 
ATOM     21  C   LIG    1       25.549 -26.944   7.015  0.00  0.00    +0.006 A 
ATOM     22  C   LIG    1       25.268 -28.301   7.436  0.00  0.00    +0.009 A 
ATOM     23  C   LIG    1       25.083 -29.278   6.506  0.00  0.00    -0.017 A 
ATOM     24  C   LIG    1       25.269 -28.737   5.219  0.00  0.00    +0.009 A 
ATOM     25  C   LIG    1       25.319 -27.306   4.859  0.00  0.00    +0.006 A 
BRANCH  23  26
ATOM     26  C   LIG    1       24.639 -30.682   6.919  0.00  0.00    -0.007 A 
ATOM     27  C   LIG    1       24.842 -31.279   8.197  0.00  0.00    +0.028 A 
ATOM     28  C   LIG    1       24.147 -32.482   8.511  0.00  0.00    +0.012 A 
ATOM     29  C   LIG    1       23.348 -33.160   7.587  0.00  0.00    +0.001 A 
ATOM     30  C   LIG    1       23.264 -32.687   6.296  0.00  0.00    +0.001 A 
ATOM     31  C   LIG    1       23.902 -31.483   5.973  0.00  0.00    +0.009 A 
BRANCH  27  32
ATOM     32  C   LIG    1       25.768 -30.759   9.221  0.00  0.00    +0.180 A 
ATOM     33  N   LIG    1       27.140 -30.754   9.130  0.00  0.00    -0.239 N 
ATOM     34  H   LIG    1       27.747 -31.060   8.381  0.00  0.00    +0.192 HD
ATOM     35  N   LIG    1       27.691 -30.241  10.237  0.00  0.00    -0.046 NA
ATOM     36  N   LIG    1       26.667 -29.876  10.989  0.00  0.00    -0.023 NA
ATOM     37  N   LIG    1       25.478 -30.154  10.361  0.00  0.00    -0.108 NA
ENDBRANCH  27  32
ENDBRANCH  23  26
ENDBRANCH   1  20
TORSDOF 10
ENDMDL
MODEL 9
REMARK VINA RESULT:      -8.7      3.435     10.212
REMARK  Name = *****
REMARK                            x       y       z     vdW  Elec       q    Type
REMARK                         _______ _______ _______ _____ _____    ______ ____
ROOT
ATOM      1  C   LIG    1       24.856 -24.055   5.157  0.00  0.00    +0.161 C 
ENDROOT
BRANCH   1   3
ATOM      2  C   LIG    1       24.132 -22.131   6.955  0.00  0.00    +0.113 C 
ATOM      3  N   LIG    1       25.016 -23.012   6.323  0.00  0.00    -0.292 N 
ATOM      4  C   LIG    1       26.390 -22.818   6.700  0.00  0.00    +0.258 C 
ATOM      5  O   LIG    1       27.301 -23.460   6.199  0.00  0.00    -0.267 OA
ATOM      6  C   LIG    1       26.698 -21.756   7.734  0.00  0.00    +0.044 C 
ATOM      7  C   LIG    1       25.693 -21.192   8.339  0.00  0.00    +0.049 C 
ATOM      8  C   LIG    1       25.697 -20.205   9.478  0.00  0.00    +0.066 C 
ATOM      9  N   LIG    1       24.379 -21.396   7.890  0.00  0.00    -0.238 NA
BRANCH   2  10
ATOM     10  C   LIG    1       22.662 -21.950   6.573  0.00  0.00    +0.074 C 
BRANCH  10  11
ATOM     11  C   LIG    1       22.438 -21.033   5.163  0.00  0.00    +0.007 C 
BRANCH  11  13
ATOM     12  C   LIG    1       22.047 -18.265   4.358  0.00  0.00    +0.004 C 
ATOM     13  C   LIG    1       22.831 -19.375   5.070  0.00  0.00    -0.003 C 
ENDBRANCH  11  13
ENDBRANCH  10  11
ENDBRANCH   2  10
BRANCH   6  14
ATOM     14  C   LIG    1       28.185 -21.472   7.996  0.00  0.00    +0.101 C 
BRANCH  14  15
ATOM     15  C   LIG    1       28.743 -20.286   7.173  0.00  0.00    +0.055 C 
ATOM     16  S   LIG    1       27.934 -19.825   5.758  0.00  0.00    -0.040 S 
BRANCH  15  17
ATOM     17  N   LIG    1       29.857 -19.597   7.660  0.00  0.00    -0.333 N 
ATOM     18  C   LIG    1       29.713 -18.700   8.803  0.00  0.00    +0.129 C 
ATOM     19  C   LIG    1       31.033 -19.354   6.837  0.00  0.00    +0.129 C 
ENDBRANCH  15  17
ENDBRANCH  14  15
ENDBRANCH   6  14
ENDBRANCH   1   3
BRANCH   1  20
ATOM     20  C   LIG    1       25.005 -25.682   5.293  0.00  0.00    -0.028 A 
ATOM     21  C   LIG    1       26.217 -26.239   5.630  0.00  0.00    +0.006 A 
ATOM     22  C   LIG    1       26.577 -27.182   6.669  0.00  0.00    +0.009 A 
ATOM     23  C   LIG    1       25.614 -27.938   7.264  0.00  0.00    -0.017 A 
ATOM     24  C   LIG    1       24.369 -27.665   6.663  0.00  0.00    +0.009 A 
ATOM     25  C   LIG    1       24.044 -26.528   5.780  0.00  0.00    +0.006 A 
BRANCH  23  26
ATOM     26  C   LIG    1       25.943 -28.830   8.462  0.00  0.00    -0.007 A 
ATOM     27  C   LIG    1       25.744 -30.240   8.532  0.00  0.00    +0.028 A 
ATOM     28  C   LIG    1       26.337 -30.965   9.605  0.00  0.00    +0.012 A 
ATOM     29  C   LIG    1       27.026 -30.345  10.650  0.00  0.00    +0.001 A 
ATOM     30  C   LIG    1       27.096 -28.969  10.687  0.00  0.00    +0.001 A 
ATOM     31  C   LIG    1       26.558 -28.235   9.622  0.00  0.00    +0.009 A 
BRANCH  27  32
ATOM     32  C   LIG    1       24.917 -31.011   7.584  0.00  0.00    +0.180 A 
ATOM     33  N   LIG    1       25.325 -31.459   6.349  0.00  0.00    -0.239 N 
ATOM     34  H   LIG    1       26.221 -31.379   5.887  0.00  0.00    +0.192 HD
ATOM     35  N   LIG    1       24.332 -32.101   5.721  0.00  0.00    -0.046 NA
ATOM     36  N   LIG    1       23.330 -32.103   6.583  0.00  0.00    -0.023 NA
ATOM     37  N   LIG    1       23.688 -31.469   7.748  0.00  0.00    -0.108 NA
ENDBRANCH  27  32
ENDBRANCH  23  26
ENDBRANCH   1  20
TORSDOF 10
ENDMDL
