MODEL 1
REMARK VINA RESULT:      -4.4      0.000      0.000
REMARK  Name = *****
REMARK                            x       y       z     vdW  Elec       q    Type
REMARK                         _______ _______ _______ _____ _____    ______ ____
ROOT
ATOM      1  F   LIG    1       23.077 -20.372   7.030  0.00  0.00    -0.168 F 
ATOM      2  C   LIG    1       22.897 -20.291   5.689  0.00  0.00    +0.415 C 
ATOM      3  F   LIG    1       22.304 -19.105   5.431  0.00  0.00    -0.168 F 
ATOM      4  F   LIG    1       22.015 -21.267   5.363  0.00  0.00    -0.168 F 
ENDROOT
BRANCH   2   5
ATOM      5  C   LIG    1       24.214 -20.469   4.950  0.00  0.00    +0.251 C 
ATOM      6 CL   LIG    1       25.623 -20.459   6.042  0.00  0.00    -0.100 Cl
ATOM      7 BR   LIG    1       24.464 -19.067   3.611  0.00  0.00    -0.061 Br
ENDBRANCH   2   5
TORSDOF 1
ENDMDL
MODEL 2
REMARK VINA RESULT:      -4.4      0.224      1.458
REMARK  Name = *****
REMARK                            x       y       z     vdW  Elec       q    Type
REMARK                         _______ _______ _______ _____ _____    ______ ____
ROOT
ATOM      1  F   LIG    1       22.352 -19.286   5.401  0.00  0.00    -0.168 F 
ATOM      2  C   LIG    1       22.902 -20.484   5.722  0.00  0.00    +0.415 C 
ATOM      3  F   LIG    1       21.976 -21.434   5.467  0.00  0.00    -0.168 F 
ATOM      4  F   LIG    1       23.106 -20.463   7.062  0.00  0.00    -0.168 F 
ENDROOT
BRANCH   2   5
ATOM      5  C   LIG    1       24.204 -20.705   4.969  0.00  0.00    +0.251 C 
ATOM      6 CL   LIG    1       25.616 -20.804   6.052  0.00  0.00    -0.100 Cl
ATOM      7 BR   LIG    1       24.520 -19.275   3.674  0.00  0.00    -0.061 Br
ENDBRANCH   2   5
TORSDOF 1
ENDMDL
MODEL 3
REMARK VINA RESULT:      -4.3      1.727      1.727
REMARK  Name = *****
REMARK                            x       y       z     vdW  Elec       q    Type
REMARK                         _______ _______ _______ _____ _____    ______ ____
ROOT
ATOM      1  F   LIG    1       22.888 -20.048   6.806  0.00  0.00    -0.168 F 
ATOM      2  C   LIG    1       22.753 -19.899   5.465  0.00  0.00    +0.415 C 
ATOM      3  F   LIG    1       22.195 -18.688   5.246  0.00  0.00    -0.168 F 
ATOM      4  F   LIG    1       21.859 -20.837   5.065  0.00  0.00    -0.168 F 
ENDROOT
BRANCH   2   5
ATOM      5  C   LIG    1       24.088 -20.074   4.759  0.00  0.00    +0.251 C 
ATOM      6 CL   LIG    1       23.994 -21.196   3.377  0.00  0.00    -0.100 Cl
ATOM      7 BR   LIG    1       25.454 -20.731   5.993  0.00  0.00    -0.061 Br
ENDBRANCH   2   5
TORSDOF 1
ENDMDL
MODEL 4
REMARK VINA RESULT:      -4.2      3.072      3.368
REMARK  Name = *****
REMARK                            x       y       z     vdW  Elec       q    Type
REMARK                         _______ _______ _______ _____ _____    ______ ____
ROOT
ATOM      1  F   LIG    1       24.213 -20.523   2.663  0.00  0.00    -0.168 F 
ATOM      2  C   LIG    1       24.301 -19.836   3.829  0.00  0.00    +0.415 C 
ATOM      3  F   LIG    1       24.655 -18.568   3.526  0.00  0.00    -0.168 F 
ATOM      4  F   LIG    1       25.325 -20.391   4.522  0.00  0.00    -0.168 F 
ENDROOT
BRANCH   2   5
ATOM      5  C   LIG    1       22.999 -19.918   4.610  0.00  0.00    +0.251 C 
ATOM      6 CL   LIG    1       22.176 -18.342   4.745  0.00  0.00    -0.100 Cl
ATOM      7 BR   LIG    1       23.303 -20.610   6.413  0.00  0.00    -0.061 Br
ENDBRANCH   2   5
TORSDOF 1
ENDMDL
MODEL 5
REMARK VINA RESULT:      -4.2      6.259      6.781
REMARK  Name = *****
REMARK                            x       y       z     vdW  Elec       q    Type
REMARK                         _______ _______ _______ _____ _____    ______ ____
ROOT
ATOM      1  F   LIG    1       23.258 -14.761   4.480  0.00  0.00    -0.168 F 
ATOM      2  C   LIG    1       24.096 -13.787   4.045  0.00  0.00    +0.415 C 
ATOM      3  F   LIG    1       23.855 -12.684   4.786  0.00  0.00    -0.168 F 
ATOM      4  F   LIG    1       23.728 -13.509   2.770  0.00  0.00    -0.168 F 
ENDROOT
BRANCH   2   5
ATOM      5  C   LIG    1       25.545 -14.244   4.113  0.00  0.00    +0.251 C 
ATOM      6 CL   LIG    1       26.455 -13.453   5.426  0.00  0.00    -0.100 Cl
ATOM      7 BR   LIG    1       26.471 -13.896   2.426  0.00  0.00    -0.061 Br
ENDBRANCH   2   5
TORSDOF 1
ENDMDL
MODEL 6
REMARK VINA RESULT:      -4.2      2.922      3.242
REMARK  Name = *****
REMARK                            x       y       z     vdW  Elec       q    Type
REMARK                         _______ _______ _______ _____ _____    ______ ____
ROOT
ATOM      1  F   LIG    1       25.225 -21.064   4.706  0.00  0.00    -0.168 F 
ATOM      2  C   LIG    1       24.154 -20.599   4.016  0.00  0.00    +0.415 C 
ATOM      3  F   LIG    1       23.914 -21.467   3.009  0.00  0.00    -0.168 F 
ATOM      4  F   LIG    1       24.542 -19.426   3.458  0.00  0.00    -0.168 F 
ENDROOT
BRANCH   2   5
ATOM      5  C   LIG    1       22.956 -20.405   4.932  0.00  0.00    +0.251 C 
ATOM      6 CL   LIG    1       22.293 -18.753   4.856  0.00  0.00    -0.100 Cl
ATOM      7 BR   LIG    1       23.421 -20.798   6.790  0.00  0.00    -0.061 Br
ENDBRANCH   2   5
TORSDOF 1
ENDMDL
MODEL 7
REMARK VINA RESULT:      -4.1      6.622      7.138
REMARK  Name = *****
REMARK                            x       y       z     vdW  Elec       q    Type
REMARK                         _______ _______ _______ _____ _____    ______ ____
ROOT
ATOM      1  F   LIG    1       26.081 -15.854   3.091  0.00  0.00    -0.168 F 
ATOM      2  C   LIG    1       26.753 -14.684   3.221  0.00  0.00    +0.415 C 
ATOM      3  F   LIG    1       27.061 -14.254   1.977  0.00  0.00    -0.168 F 
ATOM      4  F   LIG    1       27.917 -14.980   3.849  0.00  0.00    -0.168 F 
ENDROOT
BRANCH   2   5
ATOM      5  C   LIG    1       25.940 -13.673   4.014  0.00  0.00    +0.251 C 
ATOM      6 CL   LIG    1       26.581 -13.410   5.656  0.00  0.00    -0.100 Cl
ATOM      7 BR   LIG    1       24.073 -14.236   4.165  0.00  0.00    -0.061 Br
ENDBRANCH   2   5
TORSDOF 1
ENDMDL
MODEL 8
REMARK VINA RESULT:      -4.1      6.609      7.121
REMARK  Name = *****
REMARK                            x       y       z     vdW  Elec       q    Type
REMARK                         _______ _______ _______ _____ _____    ______ ____
ROOT
ATOM      1  F   LIG    1       26.972 -14.243   2.162  0.00  0.00    -0.168 F 
ATOM      2  C   LIG    1       26.432 -14.631   3.345  0.00  0.00    +0.415 C 
ATOM      3  F   LIG    1       27.415 -14.589   4.271  0.00  0.00    -0.168 F 
ATOM      4  F   LIG    1       26.072 -15.929   3.192  0.00  0.00    -0.168 F 
ENDROOT
BRANCH   2   5
ATOM      5  C   LIG    1       25.236 -13.765   3.708  0.00  0.00    +0.251 C 
ATOM      6 CL   LIG    1       23.810 -14.725   4.181  0.00  0.00    -0.100 Cl
ATOM      7 BR   LIG    1       24.730 -12.604   2.219  0.00  0.00    -0.061 Br
ENDBRANCH   2   5
TORSDOF 1
ENDMDL
MODEL 9
REMARK VINA RESULT:      -4.0      6.135      6.647
REMARK  Name = *****
REMARK                            x       y       z     vdW  Elec       q    Type
REMARK                         _______ _______ _______ _____ _____    ______ ____
ROOT
ATOM      1  F   LIG    1       24.068 -12.733   4.716  0.00  0.00    -0.168 F 
ATOM      2  C   LIG    1       24.240 -13.796   3.891  0.00  0.00    +0.415 C 
ATOM      3  F   LIG    1       23.561 -13.537   2.752  0.00  0.00    -0.168 F 
ATOM      4  F   LIG    1       23.635 -14.848   4.495  0.00  0.00    -0.168 F 
ENDROOT
BRANCH   2   5
ATOM      5  C   LIG    1       25.716 -14.070   3.654  0.00  0.00    +0.251 C 
ATOM      6 CL   LIG    1       26.055 -15.791   3.340  0.00  0.00    -0.100 Cl
ATOM      7 BR   LIG    1       26.791 -13.500   5.184  0.00  0.00    -0.061 Br
ENDBRANCH   2   5
TORSDOF 1
ENDMDL
