MODEL 1
REMARK VINA RESULT:      -8.0      0.000      0.000
REMARK  Name = *****
REMARK                            x       y       z     vdW  Elec       q    Type
REMARK                         _______ _______ _______ _____ _____    ______ ____
ROOT
ATOM      1  C   UNK    1       24.902 -20.942   6.279  0.00  0.00    +0.242 C 
ATOM      2  C   UNK    1       26.173 -20.737   7.240  0.00  0.00    +0.199 C 
ATOM      3  N   UNK    1       26.787 -19.962   6.161  0.00  0.00    -0.244 N 
ATOM      4  C   UNK    1       28.110 -19.563   6.103  0.00  0.00    +0.123 C 
ATOM      5  C   UNK    1       28.994 -20.032   7.034  0.00  0.00    -0.021 C 
ATOM      6  C   UNK    1       28.654 -21.121   8.043  0.00  0.00    +0.104 C 
ATOM      7  S   UNK    1       27.276 -22.168   7.525  0.00  0.00    -0.129 S 
ATOM      8  C   UNK    1       25.907 -20.355   5.216  0.00  0.00    +0.275 C 
ATOM      9  O   UNK    1       25.978 -20.262   3.990  0.00  0.00    -0.270 OA
ENDROOT
BRANCH   1  10
ATOM     10  N   UNK    1       24.489 -22.339   5.964  0.00  0.00    -0.277 N 
ATOM     11  H   UNK    1       24.678 -22.714   5.042  0.00  0.00    +0.152 HD
ATOM     12  C   UNK    1       23.704 -23.049   6.842  0.00  0.00    +0.225 C 
ATOM     13  O   UNK    1       23.220 -22.488   7.821  0.00  0.00    -0.275 OA
BRANCH  12  14
ATOM     14  C   UNK    1       23.505 -24.516   6.486  0.00  0.00    +0.165 C 
BRANCH  14  15
ATOM     15  S   UNK    1       25.037 -25.313   5.875  0.00  0.00    -0.149 S 
BRANCH  15  16
ATOM     16  C   UNK    1       24.361 -26.949   5.382  0.00  0.00    +0.099 C 
BRANCH  16  17
ATOM     17  C   UNK    1       25.096 -28.130   6.028  0.00  0.00    +0.170 C 
BRANCH  17  18
ATOM     18  N   UNK    1       25.878 -27.751   7.247  0.00  0.00    -0.318 NA
ATOM     19  H   UNK    1       25.516 -26.836   7.547  0.00  0.00    +0.119 HD
ATOM     20  H   UNK    1       25.573 -28.366   8.013  0.00  0.00    +0.119 HD
ENDBRANCH  17  18
BRANCH  17  21
ATOM     21  C   UNK    1       24.074 -29.209   6.424  0.00  0.00    +0.323 C 
ATOM     22  O   UNK    1       23.991 -29.736   7.522  0.00  0.00    -0.249 OA
BRANCH  21  23
ATOM     23  O   UNK    1       23.223 -29.486   5.401  0.00  0.00    -0.479 OA
ATOM     24  H   UNK    1       22.945 -30.429   5.508  0.00  0.00    +0.295 HD
ENDBRANCH  21  23
ENDBRANCH  17  21
ENDBRANCH  16  17
ENDBRANCH  15  16
ENDBRANCH  14  15
ENDBRANCH  12  14
ENDBRANCH   1  10
BRANCH   1  26
ATOM     25  C   UNK    1       22.857 -19.911   5.369  0.00  0.00    +0.197 C 
ATOM     26  O   UNK    1       23.792 -20.011   6.430  0.00  0.00    -0.349 OA
ENDBRANCH   1  26
BRANCH   4  27
ATOM     27  C   UNK    1       28.522 -18.541   5.067  0.00  0.00    +0.351 C 
ATOM     28  O   UNK    1       29.654 -18.088   4.976  0.00  0.00    -0.244 OA
BRANCH  27  29
ATOM     29  O   UNK    1       27.558 -18.078   4.249  0.00  0.00    -0.476 OA
ATOM     30  H   UNK    1       27.487 -18.483   3.354  0.00  0.00    +0.295 HD
ENDBRANCH  27  29
ENDBRANCH   4  27
BRANCH   5  31
ATOM     31  C   UNK    1       30.459 -19.628   7.147  0.00  0.00    +0.111 C 
BRANCH  31  32
ATOM     32  S   UNK    1       30.990 -19.737   8.887  0.00  0.00    -0.080 S 
BRANCH  32  33
ATOM     33  C   UNK    1       31.557 -18.125   9.116  0.00  0.00    +0.209 A 
ATOM     34  N   UNK    1       31.391 -17.408  10.263  0.00  0.00    -0.223 N 
ATOM     35  C   UNK    1       30.758 -17.782  11.496  0.00  0.00    +0.177 C 
ATOM     36  N   UNK    1       31.965 -16.200  10.120  0.00  0.00    -0.043 NA
ATOM     37  N   UNK    1       32.471 -16.200   8.892  0.00  0.00    -0.022 NA
ATOM     38  N   UNK    1       32.219 -17.392   8.252  0.00  0.00    -0.102 NA
ENDBRANCH  32  33
ENDBRANCH  31  32
ENDBRANCH   5  31
TORSDOF 14
ENDMDL
MODEL 2
REMARK VINA RESULT:      -7.2      5.905     10.788
REMARK  Name = *****
REMARK                            x       y       z     vdW  Elec       q    Type
REMARK                         _______ _______ _______ _____ _____    ______ ____
ROOT
ATOM      1  C   UNK    1       25.469 -30.460   8.038  0.00  0.00    +0.242 C 
ATOM      2  C   UNK    1       26.290 -30.431   9.419  0.00  0.00    +0.199 C 
ATOM      3  N   UNK    1       25.034 -30.751  10.100  0.00  0.00    -0.244 N 
ATOM      4  C   UNK    1       24.816 -30.691  11.465  0.00  0.00    +0.123 C 
ATOM      5  C   UNK    1       25.777 -30.153  12.275  0.00  0.00    -0.021 C 
ATOM      6  C   UNK    1       27.017 -29.441  11.751  0.00  0.00    +0.104 C 
ATOM      7  S   UNK    1       26.819 -28.806  10.071  0.00  0.00    -0.129 S 
ATOM      8  C   UNK    1       24.249 -30.484   9.036  0.00  0.00    +0.275 C 
ATOM      9  O   UNK    1       23.030 -30.314   8.982  0.00  0.00    -0.270 OA
ENDROOT
BRANCH   1  10
ATOM     10  N   UNK    1       25.491 -29.232   7.193  0.00  0.00    -0.277 N 
ATOM     11  H   UNK    1       26.076 -28.452   7.470  0.00  0.00    +0.152 HD
ATOM     12  C   UNK    1       24.600 -29.083   6.156  0.00  0.00    +0.225 C 
ATOM     13  O   UNK    1       23.689 -29.893   6.011  0.00  0.00    -0.275 OA
BRANCH  12  14
ATOM     14  C   UNK    1       24.846 -27.872   5.265  0.00  0.00    +0.165 C 
BRANCH  14  15
ATOM     15  S   UNK    1       25.547 -26.448   6.179  0.00  0.00    -0.149 S 
BRANCH  15  16
ATOM     16  C   UNK    1       24.088 -25.331   6.178  0.00  0.00    +0.099 C 
BRANCH  16  17
ATOM     17  C   UNK    1       24.459 -23.849   6.319  0.00  0.00    +0.170 C 
BRANCH  17  18
ATOM     18  N   UNK    1       24.813 -23.197   5.020  0.00  0.00    -0.318 NA
ATOM     19  H   UNK    1       24.217 -22.363   4.944  0.00  0.00    +0.119 HD
ATOM     20  H   UNK    1       25.750 -22.784   5.127  0.00  0.00    +0.119 HD
ENDBRANCH  17  18
BRANCH  17  21
ATOM     21  C   UNK    1       23.274 -23.086   6.937  0.00  0.00    +0.323 C 
ATOM     22  O   UNK    1       23.358 -22.059   7.592  0.00  0.00    -0.249 OA
BRANCH  21  23
ATOM     23  O   UNK    1       22.089 -23.673   6.626  0.00  0.00    -0.479 OA
ATOM     24  H   UNK    1       21.377 -23.069   6.950  0.00  0.00    +0.295 HD
ENDBRANCH  21  23
ENDBRANCH  17  21
ENDBRANCH  16  17
ENDBRANCH  15  16
ENDBRANCH  14  15
ENDBRANCH  12  14
ENDBRANCH   1  10
BRANCH   1  26
ATOM     25  C   UNK    1       26.729 -32.279   6.954  0.00  0.00    +0.197 C 
ATOM     26  O   UNK    1       25.475 -31.705   7.283  0.00  0.00    -0.349 OA
ENDBRANCH   1  26
BRANCH   4  27
ATOM     27  C   UNK    1       23.561 -31.313  12.033  0.00  0.00    +0.351 C 
ATOM     28  O   UNK    1       23.483 -32.481  12.385  0.00  0.00    -0.244 OA
BRANCH  27  29
ATOM     29  O   UNK    1       22.465 -30.532  12.093  0.00  0.00    -0.476 OA
ATOM     30  H   UNK    1       22.560 -29.647  12.513  0.00  0.00    +0.295 HD
ENDBRANCH  27  29
ENDBRANCH   4  27
BRANCH   5  31
ATOM     31  C   UNK    1       25.717 -30.086  13.796  0.00  0.00    +0.111 C 
BRANCH  31  32
ATOM     32  S   UNK    1       25.960 -28.364  14.341  0.00  0.00    -0.080 S 
BRANCH  32  33
ATOM     33  C   UNK    1       24.417 -27.713  13.932  0.00  0.00    +0.209 A 
ATOM     34  N   UNK    1       24.183 -26.395  13.675  0.00  0.00    -0.223 N 
ATOM     35  C   UNK    1       25.094 -25.285  13.667  0.00  0.00    +0.177 C 
ATOM     36  N   UNK    1       22.884 -26.225  13.369  0.00  0.00    -0.043 NA
ATOM     37  N   UNK    1       22.349 -27.438  13.443  0.00  0.00    -0.022 NA
ATOM     38  N   UNK    1       23.292 -28.375  13.799  0.00  0.00    -0.102 NA
ENDBRANCH  32  33
ENDBRANCH  31  32
ENDBRANCH   5  31
TORSDOF 14
ENDMDL
MODEL 3
REMARK VINA RESULT:      -6.6      5.554     10.330
REMARK  Name = *****
REMARK                            x       y       z     vdW  Elec       q    Type
REMARK                         _______ _______ _______ _____ _____    ______ ____
ROOT
ATOM      1  C   UNK    1       25.406 -30.211   8.213  0.00  0.00    +0.242 C 
ATOM      2  C   UNK    1       26.312 -30.153   9.539  0.00  0.00    +0.199 C 
ATOM      3  N   UNK    1       25.120 -30.542  10.296  0.00  0.00    -0.244 N 
ATOM      4  C   UNK    1       24.988 -30.505  11.672  0.00  0.00    +0.123 C 
ATOM      5  C   UNK    1       25.971 -29.926  12.426  0.00  0.00    -0.021 C 
ATOM      6  C   UNK    1       27.138 -29.148  11.832  0.00  0.00    +0.104 C 
ATOM      7  S   UNK    1       26.801 -28.510  10.176  0.00  0.00    -0.129 S 
ATOM      8  C   UNK    1       24.256 -30.306   9.287  0.00  0.00    +0.275 C 
ATOM      9  O   UNK    1       23.029 -30.197   9.313  0.00  0.00    -0.270 OA
ENDROOT
BRANCH   1  10
ATOM     10  N   UNK    1       25.313 -28.977   7.383  0.00  0.00    -0.277 N 
ATOM     11  H   UNK    1       25.787 -28.137   7.693  0.00  0.00    +0.152 HD
ATOM     12  C   UNK    1       24.453 -28.921   6.311  0.00  0.00    +0.225 C 
ATOM     13  O   UNK    1       23.654 -29.832   6.119  0.00  0.00    -0.275 OA
BRANCH  12  14
ATOM     14  C   UNK    1       24.586 -27.675   5.444  0.00  0.00    +0.165 C 
BRANCH  14  15
ATOM     15  S   UNK    1       25.530 -26.336   6.264  0.00  0.00    -0.149 S 
BRANCH  15  16
ATOM     16  C   UNK    1       24.885 -24.889   5.335  0.00  0.00    +0.099 C 
BRANCH  16  17
ATOM     17  C   UNK    1       24.984 -23.573   6.117  0.00  0.00    +0.170 C 
BRANCH  17  18
ATOM     18  N   UNK    1       25.340 -22.397   5.262  0.00  0.00    -0.318 NA
ATOM     19  H   UNK    1       25.952 -22.756   4.519  0.00  0.00    +0.119 HD
ATOM     20  H   UNK    1       24.496 -22.130   4.737  0.00  0.00    +0.119 HD
ENDBRANCH  17  18
BRANCH  17  21
ATOM     21  C   UNK    1       23.637 -23.285   6.800  0.00  0.00    +0.323 C 
ATOM     22  O   UNK    1       23.381 -22.300   7.475  0.00  0.00    -0.249 OA
BRANCH  21  23
ATOM     23  O   UNK    1       22.723 -24.252   6.525  0.00  0.00    -0.479 OA
ATOM     24  H   UNK    1       21.964 -24.114   7.142  0.00  0.00    +0.295 HD
ENDBRANCH  21  23
ENDBRANCH  17  21
ENDBRANCH  16  17
ENDBRANCH  15  16
ENDBRANCH  14  15
ENDBRANCH  12  14
ENDBRANCH   1  10
BRANCH   1  26
ATOM     25  C   UNK    1       26.663 -32.122   7.297  0.00  0.00    +0.197 C 
ATOM     26  O   UNK    1       25.425 -31.448   7.445  0.00  0.00    -0.349 OA
ENDBRANCH   1  26
BRANCH   4  27
ATOM     27  C   UNK    1       23.804 -31.194  12.312  0.00  0.00    +0.351 C 
ATOM     28  O   UNK    1       23.819 -32.358  12.685  0.00  0.00    -0.244 OA
BRANCH  27  29
ATOM     29  O   UNK    1       22.665 -30.483  12.414  0.00  0.00    -0.476 OA
ATOM     30  H   UNK    1       22.745 -29.505  12.492  0.00  0.00    +0.295 HD
ENDBRANCH  27  29
ENDBRANCH   4  27
BRANCH   5  31
ATOM     31  C   UNK    1       26.005 -29.876  13.948  0.00  0.00    +0.111 C 
BRANCH  31  32
ATOM     32  S   UNK    1       25.081 -28.417  14.531  0.00  0.00    -0.080 S 
BRANCH  32  33
ATOM     33  C   UNK    1       26.382 -27.293  14.673  0.00  0.00    +0.209 A 
ATOM     34  N   UNK    1       26.302 -25.977  14.323  0.00  0.00    -0.223 N 
ATOM     35  C   UNK    1       25.193 -25.234  13.793  0.00  0.00    +0.177 C 
ATOM     36  N   UNK    1       27.478 -25.377  14.577  0.00  0.00    -0.043 NA
ATOM     37  N   UNK    1       28.254 -26.332  15.076  0.00  0.00    -0.022 NA
ATOM     38  N   UNK    1       27.584 -27.533  15.137  0.00  0.00    -0.102 NA
ENDBRANCH  32  33
ENDBRANCH  31  32
ENDBRANCH   5  31
TORSDOF 14
ENDMDL
MODEL 4
REMARK VINA RESULT:      -6.4      2.090      2.751
REMARK  Name = *****
REMARK                            x       y       z     vdW  Elec       q    Type
REMARK                         _______ _______ _______ _____ _____    ______ ____
ROOT
ATOM      1  C   UNK    1       23.296 -22.933   6.388  0.00  0.00    +0.242 C 
ATOM      2  C   UNK    1       24.249 -22.076   7.356  0.00  0.00    +0.199 C 
ATOM      3  N   UNK    1       24.789 -21.434   6.156  0.00  0.00    -0.244 N 
ATOM      4  C   UNK    1       25.919 -20.639   6.103  0.00  0.00    +0.123 C 
ATOM      5  C   UNK    1       26.717 -20.531   7.208  0.00  0.00    -0.021 C 
ATOM      6  C   UNK    1       26.541 -21.382   8.459  0.00  0.00    +0.104 C 
ATOM      7  S   UNK    1       25.659 -22.928   8.151  0.00  0.00    -0.129 S 
ATOM      8  C   UNK    1       24.256 -22.325   5.294  0.00  0.00    +0.275 C 
ATOM      9  O   UNK    1       24.518 -22.524   4.108  0.00  0.00    -0.270 OA
ENDROOT
BRANCH   1  10
ATOM     10  N   UNK    1       23.386 -24.419   6.465  0.00  0.00    -0.277 N 
ATOM     11  H   UNK    1       22.697 -24.928   7.005  0.00  0.00    +0.152 HD
ATOM     12  C   UNK    1       24.486 -25.078   5.966  0.00  0.00    +0.225 C 
ATOM     13  O   UNK    1       25.462 -24.438   5.585  0.00  0.00    -0.275 OA
BRANCH  12  14
ATOM     14  C   UNK    1       24.371 -26.596   5.946  0.00  0.00    +0.165 C 
BRANCH  14  15
ATOM     15  S   UNK    1       25.695 -27.395   4.963  0.00  0.00    -0.149 S 
BRANCH  15  16
ATOM     16  C   UNK    1       25.488 -29.134   5.520  0.00  0.00    +0.099 C 
BRANCH  16  17
ATOM     17  C   UNK    1       24.165 -29.382   6.256  0.00  0.00    +0.170 C 
BRANCH  17  18
ATOM     18  N   UNK    1       23.383 -30.532   5.703  0.00  0.00    -0.318 NA
ATOM     19  H   UNK    1       23.502 -30.497   4.683  0.00  0.00    +0.119 HD
ATOM     20  H   UNK    1       23.886 -31.395   5.951  0.00  0.00    +0.119 HD
ENDBRANCH  17  18
BRANCH  17  21
ATOM     21  C   UNK    1       24.455 -29.661   7.740  0.00  0.00    +0.323 C 
ATOM     22  O   UNK    1       23.623 -29.982   8.575  0.00  0.00    -0.249 OA
BRANCH  21  23
ATOM     23  O   UNK    1       25.781 -29.553   8.018  0.00  0.00    -0.479 OA
ATOM     24  H   UNK    1       25.863 -28.940   8.788  0.00  0.00    +0.295 HD
ENDBRANCH  21  23
ENDBRANCH  17  21
ENDBRANCH  16  17
ENDBRANCH  15  16
ENDBRANCH  14  15
ENDBRANCH  12  14
ENDBRANCH   1  10
BRANCH   1  26
ATOM     25  C   UNK    1       21.769 -21.459   5.135  0.00  0.00    +0.197 C 
ATOM     26  O   UNK    1       21.951 -22.427   6.155  0.00  0.00    -0.349 OA
ENDBRANCH   1  26
BRANCH   4  27
ATOM     27  C   UNK    1       26.187 -19.831   4.853  0.00  0.00    +0.351 C 
ATOM     28  O   UNK    1       25.336 -19.164   4.283  0.00  0.00    -0.244 OA
BRANCH  27  29
ATOM     29  O   UNK    1       27.424 -19.914   4.326  0.00  0.00    -0.476 OA
ATOM     30  H   UNK    1       27.502 -19.898   3.345  0.00  0.00    +0.295 HD
ENDBRANCH  27  29
ENDBRANCH   4  27
BRANCH   5  31
ATOM     31  C   UNK    1       27.947 -19.639   7.328  0.00  0.00    +0.111 C 
BRANCH  31  32
ATOM     32  S   UNK    1       29.412 -20.536   6.719  0.00  0.00    -0.080 S 
BRANCH  32  33
ATOM     33  C   UNK    1       30.614 -19.856   7.752  0.00  0.00    +0.209 A 
ATOM     34  N   UNK    1       31.238 -20.535   8.756  0.00  0.00    -0.223 N 
ATOM     35  C   UNK    1       31.078 -21.898   9.179  0.00  0.00    +0.177 C 
ATOM     36  N   UNK    1       32.131 -19.725   9.353  0.00  0.00    -0.043 NA
ATOM     37  N   UNK    1       32.039 -18.570   8.705  0.00  0.00    -0.022 NA
ATOM     38  N   UNK    1       31.093 -18.635   7.707  0.00  0.00    -0.102 NA
ENDBRANCH  32  33
ENDBRANCH  31  32
ENDBRANCH   5  31
TORSDOF 14
ENDMDL
MODEL 5
REMARK VINA RESULT:      -6.3      4.025     11.444
REMARK  Name = *****
REMARK                            x       y       z     vdW  Elec       q    Type
REMARK                         _______ _______ _______ _____ _____    ______ ____
ROOT
ATOM      1  C   UNK    1       25.455 -28.055   6.313  0.00  0.00    +0.242 C 
ATOM      2  C   UNK    1       26.203 -29.021   7.356  0.00  0.00    +0.199 C 
ATOM      3  N   UNK    1       25.283 -30.081   6.940  0.00  0.00    -0.244 N 
ATOM      4  C   UNK    1       25.108 -31.296   7.577  0.00  0.00    +0.123 C 
ATOM      5  C   UNK    1       25.714 -31.515   8.783  0.00  0.00    -0.021 C 
ATOM      6  C   UNK    1       26.436 -30.431   9.571  0.00  0.00    +0.104 C 
ATOM      7  S   UNK    1       25.900 -28.760   9.140  0.00  0.00    -0.129 S 
ATOM      8  C   UNK    1       24.432 -29.254   6.296  0.00  0.00    +0.275 C 
ATOM      9  O   UNK    1       23.283 -29.460   5.904  0.00  0.00    -0.270 OA
ENDROOT
BRANCH   1  10
ATOM     10  N   UNK    1       24.852 -26.798   6.842  0.00  0.00    -0.277 N 
ATOM     11  H   UNK    1       24.809 -26.655   7.844  0.00  0.00    +0.152 HD
ATOM     12  C   UNK    1       24.200 -25.928   5.999  0.00  0.00    +0.225 C 
ATOM     13  O   UNK    1       23.986 -26.250   4.834  0.00  0.00    -0.275 OA
BRANCH  12  14
ATOM     14  C   UNK    1       23.791 -24.604   6.631  0.00  0.00    +0.165 C 
BRANCH  14  15
ATOM     15  S   UNK    1       24.843 -23.205   6.094  0.00  0.00    -0.149 S 
BRANCH  15  16
ATOM     16  C   UNK    1       25.751 -22.881   7.658  0.00  0.00    +0.099 C 
BRANCH  16  17
ATOM     17  C   UNK    1       26.135 -21.407   7.843  0.00  0.00    +0.170 C 
BRANCH  17  18
ATOM     18  N   UNK    1       25.884 -20.894   9.226  0.00  0.00    -0.318 NA
ATOM     19  H   UNK    1       24.869 -20.742   9.296  0.00  0.00    +0.119 HD
ATOM     20  H   UNK    1       26.030 -21.678   9.877  0.00  0.00    +0.119 HD
ENDBRANCH  17  18
BRANCH  17  21
ATOM     21  C   UNK    1       27.629 -21.227   7.524  0.00  0.00    +0.323 C 
ATOM     22  O   UNK    1       28.548 -21.428   8.302  0.00  0.00    -0.249 OA
BRANCH  21  23
ATOM     23  O   UNK    1       27.820 -20.855   6.231  0.00  0.00    -0.479 OA
ATOM     24  H   UNK    1       27.517 -19.917   6.155  0.00  0.00    +0.295 HD
ENDBRANCH  21  23
ENDBRANCH  17  21
ENDBRANCH  16  17
ENDBRANCH  15  16
ENDBRANCH  14  15
ENDBRANCH  12  14
ENDBRANCH   1  10
BRANCH   1  26
ATOM     25  C   UNK    1       27.313 -27.314   4.875  0.00  0.00    +0.197 C 
ATOM     26  O   UNK    1       26.038 -27.924   4.985  0.00  0.00    -0.349 OA
ENDBRANCH   1  26
BRANCH   4  27
ATOM     27  C   UNK    1       24.329 -32.385   6.874  0.00  0.00    +0.351 C 
ATOM     28  O   UNK    1       24.841 -33.211   6.132  0.00  0.00    -0.244 OA
BRANCH  27  29
ATOM     29  O   UNK    1       22.994 -32.389   7.045  0.00  0.00    -0.476 OA
ATOM     30  H   UNK    1       22.498 -33.182   6.739  0.00  0.00    +0.295 HD
ENDBRANCH  27  29
ENDBRANCH   4  27
BRANCH   5  31
ATOM     31  C   UNK    1       25.678 -32.822   9.566  0.00  0.00    +0.111 C 
BRANCH  31  32
ATOM     32  S   UNK    1       24.826 -32.556  11.156  0.00  0.00    -0.080 S 
BRANCH  32  33
ATOM     33  C   UNK    1       23.249 -32.170  10.575  0.00  0.00    +0.209 A 
ATOM     34  N   UNK    1       22.640 -30.963  10.750  0.00  0.00    -0.223 N 
ATOM     35  C   UNK    1       23.120 -29.779  11.405  0.00  0.00    +0.177 C 
ATOM     36  N   UNK    1       21.431 -30.985  10.160  0.00  0.00    -0.043 NA
ATOM     37  N   UNK    1       21.323 -32.201   9.636  0.00  0.00    -0.022 NA
ATOM     38  N   UNK    1       22.448 -32.952   9.892  0.00  0.00    -0.102 NA
ENDBRANCH  32  33
ENDBRANCH  31  32
ENDBRANCH   5  31
TORSDOF 14
ENDMDL
MODEL 6
REMARK VINA RESULT:      -6.1      5.030     11.035
REMARK  Name = *****
REMARK                            x       y       z     vdW  Elec       q    Type
REMARK                         _______ _______ _______ _____ _____    ______ ____
ROOT
ATOM      1  C   UNK    1       25.359 -29.261   5.713  0.00  0.00    +0.242 C 
ATOM      2  C   UNK    1       26.080 -29.381   7.143  0.00  0.00    +0.199 C 
ATOM      3  N   UNK    1       25.064 -30.371   7.504  0.00  0.00    -0.244 N 
ATOM      4  C   UNK    1       24.828 -30.861   8.775  0.00  0.00    +0.123 C 
ATOM      5  C   UNK    1       25.471 -30.298   9.843  0.00  0.00    -0.021 C 
ATOM      6  C   UNK    1       26.309 -29.030   9.746  0.00  0.00    +0.104 C 
ATOM      7  S   UNK    1       25.882 -27.999   8.325  0.00  0.00    -0.129 S 
ATOM      8  C   UNK    1       24.249 -30.090   6.466  0.00  0.00    +0.275 C 
ATOM      9  O   UNK    1       23.071 -30.398   6.286  0.00  0.00    -0.270 OA
ENDROOT
BRANCH   1  10
ATOM     10  N   UNK    1       24.879 -27.915   5.289  0.00  0.00    -0.277 N 
ATOM     11  H   UNK    1       23.889 -27.773   5.126  0.00  0.00    +0.152 HD
ATOM     12  C   UNK    1       25.776 -26.930   4.949  0.00  0.00    +0.225 C 
ATOM     13  O   UNK    1       26.970 -27.196   4.853  0.00  0.00    -0.275 OA
BRANCH  12  14
ATOM     14  C   UNK    1       25.163 -25.556   4.710  0.00  0.00    +0.165 C 
BRANCH  14  15
ATOM     15  S   UNK    1       24.384 -24.854   6.212  0.00  0.00    -0.149 S 
BRANCH  15  16
ATOM     16  C   UNK    1       25.864 -24.119   7.014  0.00  0.00    +0.099 C 
BRANCH  16  17
ATOM     17  C   UNK    1       25.933 -22.592   6.878  0.00  0.00    +0.170 C 
BRANCH  17  18
ATOM     18  N   UNK    1       25.305 -22.077   5.621  0.00  0.00    -0.318 NA
ATOM     19  H   UNK    1       25.948 -21.367   5.249  0.00  0.00    +0.119 HD
ATOM     20  H   UNK    1       25.373 -22.822   4.914  0.00  0.00    +0.119 HD
ENDBRANCH  17  18
BRANCH  17  21
ATOM     21  C   UNK    1       25.220 -21.943   8.077  0.00  0.00    +0.323 C 
ATOM     22  O   UNK    1       25.727 -21.721   9.166  0.00  0.00    -0.249 OA
BRANCH  21  23
ATOM     23  O   UNK    1       23.944 -21.594   7.767  0.00  0.00    -0.479 OA
ATOM     24  H   UNK    1       23.894 -21.535   6.782  0.00  0.00    +0.295 HD
ENDBRANCH  21  23
ENDBRANCH  17  21
ENDBRANCH  16  17
ENDBRANCH  15  16
ENDBRANCH  14  15
ENDBRANCH  12  14
ENDBRANCH   1  10
BRANCH   1  26
ATOM     25  C   UNK    1       25.828 -31.485   4.761  0.00  0.00    +0.197 C 
ATOM     26  O   UNK    1       25.888 -30.075   4.627  0.00  0.00    -0.349 OA
ENDBRANCH   1  26
BRANCH   4  27
ATOM     27  C   UNK    1       23.937 -32.072   8.939  0.00  0.00    +0.351 C 
ATOM     28  O   UNK    1       24.348 -33.224   8.907  0.00  0.00    -0.244 OA
BRANCH  27  29
ATOM     29  O   UNK    1       22.616 -31.846   9.068  0.00  0.00    -0.476 OA
ATOM     30  H   UNK    1       22.337 -30.980   9.442  0.00  0.00    +0.295 HD
ENDBRANCH  27  29
ENDBRANCH   4  27
BRANCH   5  31
ATOM     31  C   UNK    1       25.373 -30.774  11.287  0.00  0.00    +0.111 C 
BRANCH  31  32
ATOM     32  S   UNK    1       24.829 -29.396  12.348  0.00  0.00    -0.080 S 
BRANCH  32  33
ATOM     33  C   UNK    1       23.121 -29.557  12.175  0.00  0.00    +0.209 A 
ATOM     34  N   UNK    1       22.218 -28.605  12.543  0.00  0.00    -0.223 N 
ATOM     35  C   UNK    1       22.435 -27.307  13.118  0.00  0.00    +0.177 C 
ATOM     36  N   UNK    1       20.976 -29.034  12.255  0.00  0.00    -0.043 NA
ATOM     37  N   UNK    1       21.141 -30.237  11.718  0.00  0.00    -0.022 NA
ATOM     38  N   UNK    1       22.474 -30.579  11.666  0.00  0.00    -0.102 NA
ENDBRANCH  32  33
ENDBRANCH  31  32
ENDBRANCH   5  31
TORSDOF 14
ENDMDL
MODEL 7
REMARK VINA RESULT:      -6.1      4.815     11.322
REMARK  Name = *****
REMARK                            x       y       z     vdW  Elec       q    Type
REMARK                         _______ _______ _______ _____ _____    ______ ____
ROOT
ATOM      1  C   UNK    1       25.281 -27.855   6.149  0.00  0.00    +0.242 C 
ATOM      2  C   UNK    1       26.118 -28.802   7.141  0.00  0.00    +0.199 C 
ATOM      3  N   UNK    1       25.258 -29.906   6.713  0.00  0.00    -0.244 N 
ATOM      4  C   UNK    1       25.179 -31.149   7.314  0.00  0.00    +0.123 C 
ATOM      5  C   UNK    1       25.829 -31.366   8.497  0.00  0.00    -0.021 C 
ATOM      6  C   UNK    1       26.500 -30.262   9.302  0.00  0.00    +0.104 C 
ATOM      7  S   UNK    1       25.846 -28.617   8.940  0.00  0.00    -0.129 S 
ATOM      8  C   UNK    1       24.339 -29.118   6.117  0.00  0.00    +0.275 C 
ATOM      9  O   UNK    1       23.195 -29.387   5.747  0.00  0.00    -0.270 OA
ENDROOT
BRANCH   1  10
ATOM     10  N   UNK    1       24.612 -26.658   6.733  0.00  0.00    -0.277 N 
ATOM     11  H   UNK    1       24.309 -26.684   7.699  0.00  0.00    +0.152 HD
ATOM     12  C   UNK    1       24.248 -25.602   5.931  0.00  0.00    +0.225 C 
ATOM     13  O   UNK    1       24.340 -25.699   4.711  0.00  0.00    -0.275 OA
BRANCH  12  14
ATOM     14  C   UNK    1       23.740 -24.374   6.675  0.00  0.00    +0.165 C 
BRANCH  14  15
ATOM     15  S   UNK    1       25.076 -23.189   7.085  0.00  0.00    -0.149 S 
BRANCH  15  16
ATOM     16  C   UNK    1       24.105 -21.629   7.126  0.00  0.00    +0.099 C 
BRANCH  16  17
ATOM     17  C   UNK    1       24.357 -20.726   5.912  0.00  0.00    +0.170 C 
BRANCH  17  18
ATOM     18  N   UNK    1       25.688 -20.953   5.266  0.00  0.00    -0.318 NA
ATOM     19  H   UNK    1       25.703 -21.939   4.976  0.00  0.00    +0.119 HD
ATOM     20  H   UNK    1       25.680 -20.462   4.362  0.00  0.00    +0.119 HD
ENDBRANCH  17  18
BRANCH  17  21
ATOM     21  C   UNK    1       23.261 -20.970   4.861  0.00  0.00    +0.323 C 
ATOM     22  O   UNK    1       22.112 -20.560   4.929  0.00  0.00    -0.249 OA
BRANCH  21  23
ATOM     23  O   UNK    1       23.737 -21.673   3.800  0.00  0.00    -0.479 OA
ATOM     24  H   UNK    1       24.699 -21.459   3.723  0.00  0.00    +0.295 HD
ENDBRANCH  21  23
ENDBRANCH  17  21
ENDBRANCH  16  17
ENDBRANCH  15  16
ENDBRANCH  14  15
ENDBRANCH  12  14
ENDBRANCH   1  10
BRANCH   1  26
ATOM     25  C   UNK    1       27.215 -27.428   4.682  0.00  0.00    +0.197 C 
ATOM     26  O   UNK    1       25.820 -27.645   4.812  0.00  0.00    -0.349 OA
ENDBRANCH   1  26
BRANCH   4  27
ATOM     27  C   UNK    1       24.455 -32.265   6.594  0.00  0.00    +0.351 C 
ATOM     28  O   UNK    1       25.006 -33.054   5.840  0.00  0.00    -0.244 OA
BRANCH  27  29
ATOM     29  O   UNK    1       23.121 -32.338   6.765  0.00  0.00    -0.476 OA
ATOM     30  H   UNK    1       22.762 -33.140   7.208  0.00  0.00    +0.295 HD
ENDBRANCH  27  29
ENDBRANCH   4  27
BRANCH   5  31
ATOM     31  C   UNK    1       25.899 -32.696   9.238  0.00  0.00    +0.111 C 
BRANCH  31  32
ATOM     32  S   UNK    1       25.079 -32.535  10.858  0.00  0.00    -0.080 S 
BRANCH  32  33
ATOM     33  C   UNK    1       23.466 -32.224  10.332  0.00  0.00    +0.209 A 
ATOM     34  N   UNK    1       22.789 -31.065  10.572  0.00  0.00    -0.223 N 
ATOM     35  C   UNK    1       23.214 -29.881  11.265  0.00  0.00    +0.177 C 
ATOM     36  N   UNK    1       21.569 -31.138  10.012  0.00  0.00    -0.043 NA
ATOM     37  N   UNK    1       21.520 -32.335   9.440  0.00  0.00    -0.022 NA
ATOM     38  N   UNK    1       22.695 -33.026   9.636  0.00  0.00    -0.102 NA
ENDBRANCH  32  33
ENDBRANCH  31  32
ENDBRANCH   5  31
TORSDOF 14
ENDMDL
MODEL 8
REMARK VINA RESULT:      -6.0      2.351      3.574
REMARK  Name = *****
REMARK                            x       y       z     vdW  Elec       q    Type
REMARK                         _______ _______ _______ _____ _____    ______ ____
ROOT
ATOM      1  C   UNK    1       24.522 -24.351   6.634  0.00  0.00    +0.242 C 
ATOM      2  C   UNK    1       25.302 -23.182   7.414  0.00  0.00    +0.199 C 
ATOM      3  N   UNK    1       25.155 -22.364   6.208  0.00  0.00    -0.244 N 
ATOM      4  C   UNK    1       25.805 -21.170   5.957  0.00  0.00    +0.123 C 
ATOM      5  C   UNK    1       26.788 -20.748   6.808  0.00  0.00    -0.021 C 
ATOM      6  C   UNK    1       27.348 -21.605   7.936  0.00  0.00    +0.104 C 
ATOM      7  S   UNK    1       27.101 -23.376   7.677  0.00  0.00    -0.129 S 
ATOM      8  C   UNK    1       24.785 -23.390   5.413  0.00  0.00    +0.275 C 
ATOM      9  O   UNK    1       24.733 -23.452   4.184  0.00  0.00    -0.270 OA
ENDROOT
BRANCH   1  10
ATOM     10  N   UNK    1       25.211 -25.665   6.487  0.00  0.00    -0.277 N 
ATOM     11  H   UNK    1       26.165 -25.761   6.812  0.00  0.00    +0.152 HD
ATOM     12  C   UNK    1       24.631 -26.678   5.758  0.00  0.00    +0.225 C 
ATOM     13  O   UNK    1       23.613 -26.459   5.108  0.00  0.00    -0.275 OA
BRANCH  12  14
ATOM     14  C   UNK    1       25.350 -28.018   5.836  0.00  0.00    +0.165 C 
BRANCH  14  15
ATOM     15  S   UNK    1       24.270 -29.369   6.440  0.00  0.00    -0.149 S 
BRANCH  15  16
ATOM     16  C   UNK    1       24.866 -29.490   8.174  0.00  0.00    +0.099 C 
BRANCH  16  17
ATOM     17  C   UNK    1       25.751 -30.716   8.428  0.00  0.00    +0.170 C 
BRANCH  17  18
ATOM     18  N   UNK    1       26.349 -31.288   7.181  0.00  0.00    -0.318 NA
ATOM     19  H   UNK    1       25.663 -31.962   6.817  0.00  0.00    +0.119 HD
ATOM     20  H   UNK    1       26.331 -30.551   6.463  0.00  0.00    +0.119 HD
ENDBRANCH  17  18
BRANCH  17  21
ATOM     21  C   UNK    1       26.895 -30.327   9.380  0.00  0.00    +0.323 C 
ATOM     22  O   UNK    1       27.479 -31.091  10.134  0.00  0.00    -0.249 OA
BRANCH  21  23
ATOM     23  O   UNK    1       27.223 -29.015   9.254  0.00  0.00    -0.479 OA
ATOM     24  H   UNK    1       26.836 -28.704   8.399  0.00  0.00    +0.295 HD
ENDBRANCH  21  23
ENDBRANCH  17  21
ENDBRANCH  16  17
ENDBRANCH  15  16
ENDBRANCH  14  15
ENDBRANCH  12  14
ENDBRANCH   1  10
BRANCH   1  26
ATOM     25  C   UNK    1       22.307 -23.274   6.701  0.00  0.00    +0.197 C 
ATOM     26  O   UNK    1       23.084 -24.451   6.844  0.00  0.00    -0.349 OA
ENDBRANCH   1  26
BRANCH   4  27
ATOM     27  C   UNK    1       25.342 -20.315   4.799  0.00  0.00    +0.351 C 
ATOM     28  O   UNK    1       24.229 -19.813   4.731  0.00  0.00    -0.244 OA
BRANCH  27  29
ATOM     29  O   UNK    1       26.200 -20.159   3.773  0.00  0.00    -0.476 OA
ATOM     30  H   UNK    1       26.191 -19.296   3.300  0.00  0.00    +0.295 HD
ENDBRANCH  27  29
ENDBRANCH   4  27
BRANCH   5  31
ATOM     31  C   UNK    1       27.539 -19.426   6.708  0.00  0.00    +0.111 C 
BRANCH  31  32
ATOM     32  S   UNK    1       29.309 -19.750   6.423  0.00  0.00    -0.080 S 
BRANCH  32  33
ATOM     33  C   UNK    1       29.949 -19.179   7.919  0.00  0.00    +0.209 A 
ATOM     34  N   UNK    1       30.644 -19.952   8.802  0.00  0.00    -0.223 N 
ATOM     35  C   UNK    1       31.008 -21.338   8.720  0.00  0.00    +0.177 C 
ATOM     36  N   UNK    1       31.018 -19.200   9.853  0.00  0.00    -0.043 NA
ATOM     37  N   UNK    1       30.548 -17.985   9.595  0.00  0.00    -0.022 NA
ATOM     38  N   UNK    1       29.875 -17.959   8.394  0.00  0.00    -0.102 NA
ENDBRANCH  32  33
ENDBRANCH  31  32
ENDBRANCH   5  31
TORSDOF 14
ENDMDL
MODEL 9
REMARK VINA RESULT:      -6.0      6.077      9.809
REMARK  Name = *****
REMARK                            x       y       z     vdW  Elec       q    Type
REMARK                         _______ _______ _______ _____ _____    ______ ____
ROOT
ATOM      1  C   UNK    1       25.383 -30.693   8.592  0.00  0.00    +0.242 C 
ATOM      2  C   UNK    1       26.145 -30.117   9.884  0.00  0.00    +0.199 C 
ATOM      3  N   UNK    1       24.846 -30.087  10.560  0.00  0.00    -0.244 N 
ATOM      4  C   UNK    1       24.574 -29.459  11.761  0.00  0.00    +0.123 C 
ATOM      5  C   UNK    1       25.526 -28.661  12.333  0.00  0.00    -0.021 C 
ATOM      6  C   UNK    1       26.822 -28.268  11.637  0.00  0.00    +0.104 C 
ATOM      7  S   UNK    1       26.728 -28.384   9.836  0.00  0.00    -0.129 S 
ATOM      8  C   UNK    1       24.122 -30.265   9.435  0.00  0.00    +0.275 C 
ATOM      9  O   UNK    1       22.917 -30.097   9.242  0.00  0.00    -0.270 OA
ENDROOT
BRANCH   1  10
ATOM     10  N   UNK    1       25.505 -29.929   7.318  0.00  0.00    -0.277 N 
ATOM     11  H   UNK    1       26.115 -29.122   7.282  0.00  0.00    +0.152 HD
ATOM     12  C   UNK    1       24.669 -30.201   6.259  0.00  0.00    +0.225 C 
ATOM     13  O   UNK    1       23.726 -30.973   6.407  0.00  0.00    -0.275 OA
BRANCH  12  14
ATOM     14  C   UNK    1       25.015 -29.478   4.964  0.00  0.00    +0.165 C 
BRANCH  14  15
ATOM     15  S   UNK    1       25.755 -27.826   5.248  0.00  0.00    -0.149 S 
BRANCH  15  16
ATOM     16  C   UNK    1       24.255 -26.900   5.768  0.00  0.00    +0.099 C 
BRANCH  16  17
ATOM     17  C   UNK    1       24.573 -25.630   6.566  0.00  0.00    +0.170 C 
BRANCH  17  18
ATOM     18  N   UNK    1       25.977 -25.586   7.083  0.00  0.00    -0.318 NA
ATOM     19  H   UNK    1       26.568 -25.318   6.285  0.00  0.00    +0.119 HD
ATOM     20  H   UNK    1       26.055 -24.763   7.696  0.00  0.00    +0.119 HD
ENDBRANCH  17  18
BRANCH  17  21
ATOM     21  C   UNK    1       24.346 -24.399   5.673  0.00  0.00    +0.323 C 
ATOM     22  O   UNK    1       24.901 -24.187   4.605  0.00  0.00    -0.249 OA
BRANCH  21  23
ATOM     23  O   UNK    1       23.402 -23.573   6.195  0.00  0.00    -0.479 OA
ATOM     24  H   UNK    1       22.664 -23.530   5.538  0.00  0.00    +0.295 HD
ENDBRANCH  21  23
ENDBRANCH  17  21
ENDBRANCH  16  17
ENDBRANCH  15  16
ENDBRANCH  14  15
ENDBRANCH  12  14
ENDBRANCH   1  10
BRANCH   1  26
ATOM     25  C   UNK    1       24.445 -32.887   9.209  0.00  0.00    +0.197 C 
ATOM     26  O   UNK    1       25.357 -32.139   8.422  0.00  0.00    -0.349 OA
ENDBRANCH   1  26
BRANCH   4  27
ATOM     27  C   UNK    1       23.265 -29.751  12.459  0.00  0.00    +0.351 C 
ATOM     28  O   UNK    1       23.123 -30.639  13.288  0.00  0.00    -0.244 OA
BRANCH  27  29
ATOM     29  O   UNK    1       22.198 -29.016  12.090  0.00  0.00    -0.476 OA
ATOM     30  H   UNK    1       21.353 -29.492  11.925  0.00  0.00    +0.295 HD
ENDBRANCH  27  29
ENDBRANCH   4  27
BRANCH   5  31
ATOM     31  C   UNK    1       25.404 -27.966  13.683  0.00  0.00    +0.111 C 
BRANCH  31  32
ATOM     32  S   UNK    1       26.995 -27.191  14.116  0.00  0.00    -0.080 S 
BRANCH  32  33
ATOM     33  C   UNK    1       26.489 -25.546  14.238  0.00  0.00    +0.209 A 
ATOM     34  N   UNK    1       27.216 -24.561  14.838  0.00  0.00    -0.223 N 
ATOM     35  C   UNK    1       28.503 -24.626  15.470  0.00  0.00    +0.177 C 
ATOM     36  N   UNK    1       26.550 -23.396  14.742  0.00  0.00    -0.043 NA
ATOM     37  N   UNK    1       25.433 -23.688  14.087  0.00  0.00    -0.022 NA
ATOM     38  N   UNK    1       25.379 -25.027  13.771  0.00  0.00    -0.102 NA
ENDBRANCH  32  33
ENDBRANCH  31  32
ENDBRANCH   5  31
TORSDOF 14
ENDMDL
