MODEL 1
REMARK VINA RESULT:     -10.2      0.000      0.000
REMARK  Name = *****
REMARK                            x       y       z     vdW  Elec       q    Type
REMARK                         _______ _______ _______ _____ _____    ______ ____
ROOT
ATOM      1  C   LIG    1       25.333 -25.370   6.622  0.00  0.00    -0.034 A 
ATOM      2  C   LIG    1       26.048 -24.202   6.923  0.00  0.00    +0.009 A 
ATOM      3  C   LIG    1       25.388 -22.975   7.091  0.00  0.00    -0.026 A 
ATOM      4  C   LIG    1       26.173 -21.732   7.408  0.00  0.00    +0.115 C 
ATOM      5  C   LIG    1       26.381 -20.848   6.204  0.00  0.00    +0.169 C 
ATOM      6  C   LIG    1       25.223 -20.261   5.446  0.00  0.00    +0.031 A 
ATOM      7  C   LIG    1       23.856 -20.421   5.749  0.00  0.00    +0.023 A 
ATOM      8  S   LIG    1       23.142 -21.364   7.096  0.00  0.00    -0.088 S 
ATOM      9  C   LIG    1       22.901 -19.767   4.943  0.00  0.00    +0.016 A 
ATOM     10  C   LIG    1       23.277 -18.983   3.852  0.00  0.00    +0.001 A 
ATOM     11  C   LIG    1       24.621 -18.833   3.546  0.00  0.00    +0.001 A 
ATOM     12  C   LIG    1       25.582 -19.465   4.335  0.00  0.00    +0.012 A 
ATOM     13  O   LIG    1       27.530 -20.577   5.845  0.00  0.00    -0.292 OA
ATOM     14  C   LIG    1       23.999 -22.912   6.927  0.00  0.00    +0.016 A 
ATOM     15  C   LIG    1       23.281 -24.075   6.644  0.00  0.00    +0.015 A 
ATOM     16  C   LIG    1       23.939 -25.297   6.492  0.00  0.00    +0.005 A 
ENDROOT
BRANCH   1  18
ATOM     17  C   LIG    1       25.119 -27.858   6.893  0.00  0.00    +0.024 C 
ATOM     18  C   LIG    1       26.045 -26.709   6.483  0.00  0.00    +0.124 C 
BRANCH  18  19
ATOM     19  C   LIG    1       26.628 -26.963   5.092  0.00  0.00    +0.312 C 
ATOM     20  O   LIG    1       25.947 -27.075   4.081  0.00  0.00    -0.250 OA
BRANCH  19  21
ATOM     21  O   LIG    1       27.971 -27.134   5.044  0.00  0.00    -0.480 OA
ATOM     22  H   LIG    1       28.400 -27.250   5.913  0.00  0.00    +0.295 HD
ENDBRANCH  19  21
ENDBRANCH  18  19
ENDBRANCH   1  18
TORSDOF 3
ENDMDL
MODEL 2
REMARK VINA RESULT:      -8.3      4.145      6.937
REMARK  Name = *****
REMARK                            x       y       z     vdW  Elec       q    Type
REMARK                         _______ _______ _______ _____ _____    ______ ____
ROOT
ATOM      1  C   LIG    1       29.725 -18.448   8.014  0.00  0.00    -0.034 A 
ATOM      2  C   LIG    1       28.992 -19.559   8.455  0.00  0.00    +0.009 A 
ATOM      3  C   LIG    1       28.235 -20.327   7.556  0.00  0.00    -0.026 A 
ATOM      4  C   LIG    1       27.452 -21.513   8.049  0.00  0.00    +0.115 C 
ATOM      5  C   LIG    1       25.982 -21.219   8.208  0.00  0.00    +0.169 C 
ATOM      6  C   LIG    1       25.133 -20.788   7.044  0.00  0.00    +0.031 A 
ATOM      7  C   LIG    1       25.559 -20.632   5.709  0.00  0.00    +0.023 A 
ATOM      8  S   LIG    1       27.206 -20.891   5.054  0.00  0.00    -0.088 S 
ATOM      9  C   LIG    1       24.612 -20.249   4.736  0.00  0.00    +0.016 A 
ATOM     10  C   LIG    1       23.278 -20.011   5.066  0.00  0.00    +0.001 A 
ATOM     11  C   LIG    1       22.860 -20.153   6.380  0.00  0.00    +0.001 A 
ATOM     12  C   LIG    1       23.778 -20.538   7.357  0.00  0.00    +0.012 A 
ATOM     13  O   LIG    1       25.454 -21.359   9.314  0.00  0.00    -0.292 OA
ATOM     14  C   LIG    1       28.188 -19.960   6.207  0.00  0.00    +0.016 A 
ATOM     15  C   LIG    1       28.928 -18.863   5.759  0.00  0.00    +0.015 A 
ATOM     16  C   LIG    1       29.692 -18.111   6.654  0.00  0.00    +0.005 A 
ENDROOT
BRANCH   1  18
ATOM     17  C   LIG    1       29.884 -17.511  10.339  0.00  0.00    +0.024 C 
ATOM     18  C   LIG    1       30.580 -17.641   8.981  0.00  0.00    +0.124 C 
BRANCH  18  19
ATOM     19  C   LIG    1       32.000 -18.181   9.158  0.00  0.00    +0.312 C 
ATOM     20  O   LIG    1       32.272 -19.374   9.192  0.00  0.00    -0.250 OA
BRANCH  19  21
ATOM     21  O   LIG    1       32.961 -17.246   9.350  0.00  0.00    -0.480 OA
ATOM     22  H   LIG    1       33.044 -16.590   8.632  0.00  0.00    +0.295 HD
ENDBRANCH  19  21
ENDBRANCH  18  19
ENDBRANCH   1  18
TORSDOF 3
ENDMDL
MODEL 3
REMARK VINA RESULT:      -8.2      2.194      3.019
REMARK  Name = *****
REMARK                            x       y       z     vdW  Elec       q    Type
REMARK                         _______ _______ _______ _____ _____    ______ ____
ROOT
ATOM      1  C   LIG    1       24.590 -25.602   6.050  0.00  0.00    -0.034 A 
ATOM      2  C   LIG    1       24.395 -24.606   7.018  0.00  0.00    +0.009 A 
ATOM      3  C   LIG    1       24.444 -23.246   6.674  0.00  0.00    -0.026 A 
ATOM      4  C   LIG    1       24.236 -22.193   7.727  0.00  0.00    +0.115 C 
ATOM      5  C   LIG    1       25.528 -21.572   8.196  0.00  0.00    +0.169 C 
ATOM      6  C   LIG    1       26.444 -20.846   7.251  0.00  0.00    +0.031 A 
ATOM      7  C   LIG    1       26.228 -20.630   5.875  0.00  0.00    +0.023 A 
ATOM      8  S   LIG    1       24.826 -21.165   4.896  0.00  0.00    -0.088 S 
ATOM      9  C   LIG    1       27.185 -19.895   5.145  0.00  0.00    +0.016 A 
ATOM     10  C   LIG    1       28.339 -19.394   5.748  0.00  0.00    +0.001 A 
ATOM     11  C   LIG    1       28.559 -19.615   7.099  0.00  0.00    +0.001 A 
ATOM     12  C   LIG    1       27.621 -20.333   7.841  0.00  0.00    +0.012 A 
ATOM     13  O   LIG    1       25.831 -21.639   9.391  0.00  0.00    -0.292 OA
ATOM     14  C   LIG    1       24.720 -22.880   5.351  0.00  0.00    +0.016 A 
ATOM     15  C   LIG    1       24.899 -23.868   4.380  0.00  0.00    +0.015 A 
ATOM     16  C   LIG    1       24.835 -25.220   4.724  0.00  0.00    +0.005 A 
ENDROOT
BRANCH   1  18
ATOM     17  C   LIG    1       24.190 -27.922   5.175  0.00  0.00    +0.024 C 
ATOM     18  C   LIG    1       24.494 -27.078   6.415  0.00  0.00    +0.124 C 
BRANCH  18  19
ATOM     19  C   LIG    1       25.725 -27.621   7.143  0.00  0.00    +0.312 C 
ATOM     20  O   LIG    1       25.666 -28.390   8.094  0.00  0.00    -0.250 OA
BRANCH  19  21
ATOM     21  O   LIG    1       26.916 -27.139   6.714  0.00  0.00    -0.480 OA
ATOM     22  H   LIG    1       26.973 -26.166   6.674  0.00  0.00    +0.295 HD
ENDBRANCH  19  21
ENDBRANCH  18  19
ENDBRANCH   1  18
TORSDOF 3
ENDMDL
MODEL 4
REMARK VINA RESULT:      -7.7      2.871      6.539
REMARK  Name = *****
REMARK                            x       y       z     vdW  Elec       q    Type
REMARK                         _______ _______ _______ _____ _____    ______ ____
ROOT
ATOM      1  C   LIG    1       28.905 -20.027   6.661  0.00  0.00    -0.034 A 
ATOM      2  C   LIG    1       27.596 -20.001   6.158  0.00  0.00    +0.009 A 
ATOM      3  C   LIG    1       26.608 -20.854   6.676  0.00  0.00    -0.026 A 
ATOM      4  C   LIG    1       25.211 -20.815   6.120  0.00  0.00    +0.115 C 
ATOM      5  C   LIG    1       24.930 -21.946   5.163  0.00  0.00    +0.169 C 
ATOM      6  C   LIG    1       25.021 -23.384   5.591  0.00  0.00    +0.031 A 
ATOM      7  C   LIG    1       25.337 -23.855   6.881  0.00  0.00    +0.023 A 
ATOM      8  S   LIG    1       25.721 -22.878   8.334  0.00  0.00    -0.088 S 
ATOM      9  C   LIG    1       25.345 -25.247   7.112  0.00  0.00    +0.016 A 
ATOM     10  C   LIG    1       25.063 -26.159   6.096  0.00  0.00    +0.001 A 
ATOM     11  C   LIG    1       24.763 -25.698   4.824  0.00  0.00    +0.001 A 
ATOM     12  C   LIG    1       24.742 -24.326   4.576  0.00  0.00    +0.012 A 
ATOM     13  O   LIG    1       24.593 -21.686   4.004  0.00  0.00    -0.292 OA
ATOM     14  C   LIG    1       26.943 -21.761   7.687  0.00  0.00    +0.016 A 
ATOM     15  C   LIG    1       28.241 -21.779   8.203  0.00  0.00    +0.015 A 
ATOM     16  C   LIG    1       29.217 -20.919   7.695  0.00  0.00    +0.005 A 
ENDROOT
BRANCH   1  18
ATOM     17  C   LIG    1       29.323 -17.959   5.297  0.00  0.00    +0.024 C 
ATOM     18  C   LIG    1       29.966 -19.072   6.129  0.00  0.00    +0.124 C 
BRANCH  18  19
ATOM     19  C   LIG    1       30.868 -18.477   7.211  0.00  0.00    +0.312 C 
ATOM     20  O   LIG    1       32.034 -18.809   7.379  0.00  0.00    -0.250 OA
BRANCH  19  21
ATOM     21  O   LIG    1       30.273 -17.590   8.044  0.00  0.00    -0.480 OA
ATOM     22  H   LIG    1       29.690 -16.943   7.604  0.00  0.00    +0.295 HD
ENDBRANCH  19  21
ENDBRANCH  18  19
ENDBRANCH   1  18
TORSDOF 3
ENDMDL
MODEL 5
REMARK VINA RESULT:      -7.7      2.510      6.888
REMARK  Name = *****
REMARK                            x       y       z     vdW  Elec       q    Type
REMARK                         _______ _______ _______ _____ _____    ______ ____
ROOT
ATOM      1  C   LIG    1       24.490 -19.612   4.625  0.00  0.00    -0.034 A 
ATOM      2  C   LIG    1       23.686 -20.345   5.510  0.00  0.00    +0.009 A 
ATOM      3  C   LIG    1       24.248 -21.294   6.379  0.00  0.00    -0.026 A 
ATOM      4  C   LIG    1       23.368 -22.073   7.316  0.00  0.00    +0.115 C 
ATOM      5  C   LIG    1       23.087 -23.473   6.828  0.00  0.00    +0.169 C 
ATOM      6  C   LIG    1       24.193 -24.463   6.594  0.00  0.00    +0.031 A 
ATOM      7  C   LIG    1       25.570 -24.249   6.810  0.00  0.00    +0.023 A 
ATOM      8  S   LIG    1       26.359 -22.753   7.403  0.00  0.00    -0.088 S 
ATOM      9  C   LIG    1       26.468 -25.309   6.565  0.00  0.00    +0.016 A 
ATOM     10  C   LIG    1       26.028 -26.550   6.106  0.00  0.00    +0.001 A 
ATOM     11  C   LIG    1       24.676 -26.759   5.883  0.00  0.00    +0.001 A 
ATOM     12  C   LIG    1       23.770 -25.727   6.125  0.00  0.00    +0.012 A 
ATOM     13  O   LIG    1       21.919 -23.823   6.640  0.00  0.00    -0.292 OA
ATOM     14  C   LIG    1       25.626 -21.531   6.340  0.00  0.00    +0.016 A 
ATOM     15  C   LIG    1       26.434 -20.791   5.473  0.00  0.00    +0.015 A 
ATOM     16  C   LIG    1       25.873 -19.839   4.621  0.00  0.00    +0.005 A 
ENDROOT
BRANCH   1  18
ATOM     17  C   LIG    1       22.491 -18.151   4.202  0.00  0.00    +0.024 C 
ATOM     18  C   LIG    1       23.886 -18.552   3.713  0.00  0.00    +0.124 C 
BRANCH  18  19
ATOM     19  C   LIG    1       24.765 -17.314   3.528  0.00  0.00    +0.312 C 
ATOM     20  O   LIG    1       25.894 -17.349   3.059  0.00  0.00    -0.250 OA
BRANCH  19  21
ATOM     21  O   LIG    1       24.242 -16.153   3.989  0.00  0.00    -0.480 OA
ATOM     22  H   LIG    1       23.270 -16.148   4.077  0.00  0.00    +0.295 HD
ENDBRANCH  19  21
ENDBRANCH  18  19
ENDBRANCH   1  18
TORSDOF 3
ENDMDL
MODEL 6
REMARK VINA RESULT:      -7.4      3.925      6.186
REMARK  Name = *****
REMARK                            x       y       z     vdW  Elec       q    Type
REMARK                         _______ _______ _______ _____ _____    ______ ____
ROOT
ATOM      1  C   LIG    1       25.104 -20.812   6.838  0.00  0.00    -0.034 A 
ATOM      2  C   LIG    1       26.164 -20.359   6.039  0.00  0.00    +0.009 A 
ATOM      3  C   LIG    1       27.497 -20.607   6.401  0.00  0.00    -0.026 A 
ATOM      4  C   LIG    1       28.621 -20.109   5.534  0.00  0.00    +0.115 C 
ATOM      5  C   LIG    1       29.266 -18.858   6.075  0.00  0.00    +0.169 C 
ATOM      6  C   LIG    1       29.922 -18.829   7.427  0.00  0.00    +0.031 A 
ATOM      7  C   LIG    1       30.045 -19.910   8.322  0.00  0.00    +0.023 A 
ATOM      8  S   LIG    1       29.451 -21.586   8.094  0.00  0.00    -0.088 S 
ATOM      9  C   LIG    1       30.725 -19.708   9.541  0.00  0.00    +0.016 A 
ATOM     10  C   LIG    1       31.261 -18.467   9.883  0.00  0.00    +0.001 A 
ATOM     11  C   LIG    1       31.131 -17.399   9.009  0.00  0.00    +0.001 A 
ATOM     12  C   LIG    1       30.470 -17.579   7.795  0.00  0.00    +0.012 A 
ATOM     13  O   LIG    1       29.279 -17.837   5.381  0.00  0.00    -0.292 OA
ATOM     14  C   LIG    1       27.771 -21.291   7.591  0.00  0.00    +0.016 A 
ATOM     15  C   LIG    1       26.719 -21.759   8.382  0.00  0.00    +0.015 A 
ATOM     16  C   LIG    1       25.394 -21.523   8.010  0.00  0.00    +0.005 A 
ENDROOT
BRANCH   1  18
ATOM     17  C   LIG    1       23.589 -19.711   5.163  0.00  0.00    +0.024 C 
ATOM     18  C   LIG    1       23.657 -20.581   6.422  0.00  0.00    +0.124 C 
BRANCH  18  19
ATOM     19  C   LIG    1       22.850 -21.866   6.229  0.00  0.00    +0.312 C 
ATOM     20  O   LIG    1       23.016 -22.877   6.898  0.00  0.00    -0.250 OA
BRANCH  19  21
ATOM     21  O   LIG    1       21.966 -21.851   5.204  0.00  0.00    -0.480 OA
ATOM     22  H   LIG    1       21.320 -21.120   5.231  0.00  0.00    +0.295 HD
ENDBRANCH  19  21
ENDBRANCH  18  19
ENDBRANCH   1  18
TORSDOF 3
ENDMDL
