MODEL 1
REMARK VINA RESULT:      -4.4      0.000      0.000
REMARK  Name = *****
REMARK                            x       y       z     vdW  Elec       q    Type
REMARK                         _______ _______ _______ _____ _____    ______ ____
ROOT
ATOM      1  C   LIG    1       26.519 -17.592   3.612  0.00  0.00    +0.121 A 
ATOM      2  C   LIG    1       25.341 -18.283   3.323  0.00  0.00    +0.055 A 
ATOM      3  C   LIG    1       25.024 -19.504   3.952  0.00  0.00    +0.027 A 
ATOM      4  C   LIG    1       25.969 -20.076   4.821  0.00  0.00    +0.126 A 
ATOM      5  C   LIG    1       27.169 -19.395   5.087  0.00  0.00    +0.049 A 
ATOM      6  C   LIG    1       27.434 -18.159   4.490  0.00  0.00    +0.049 A 
ENDROOT
BRANCH   1   8
ATOM      7  C   LIG    1       26.007 -15.278   3.427  0.00  0.00    +0.277 C 
ATOM      8  O   LIG    1       26.857 -16.371   3.098  0.00  0.00    -0.495 OA
ENDBRANCH   1   8
BRANCH   4   9
ATOM      9  O   LIG    1       25.636 -21.286   5.373  0.00  0.00    -0.495 OA
ATOM     10  C   LIG    1       26.158 -21.572   6.666  0.00  0.00    +0.277 C 
ENDBRANCH   4   9
BRANCH   3  11
ATOM     11  C   LIG    1       23.658 -20.140   3.697  0.00  0.00    +0.165 C 
BRANCH  11  12
ATOM     12  C   LIG    1       22.563 -19.794   4.753  0.00  0.00    +0.081 C 
ATOM     13  C   LIG    1       22.204 -18.303   4.686  0.00  0.00    +0.027 C 
BRANCH  12  14
ATOM     14  N   LIG    1       22.924 -20.094   6.150  0.00  0.00    -0.325 NA
ATOM     15  H   LIG    1       23.733 -19.528   6.407  0.00  0.00    +0.118 HD
ATOM     16  H   LIG    1       22.172 -19.764   6.759  0.00  0.00    +0.118 HD
ENDBRANCH  12  14
ENDBRANCH  11  12
BRANCH  11  17
ATOM     17  O   LIG    1       23.806 -21.571   3.640  0.00  0.00    -0.386 OA
ATOM     18  H   LIG    1       23.066 -21.953   4.143  0.00  0.00    +0.210 HD
ENDBRANCH  11  17
ENDBRANCH   3  11
TORSDOF 6
ENDMDL
MODEL 2
REMARK VINA RESULT:      -4.4      2.312      3.003
REMARK  Name = *****
REMARK                            x       y       z     vdW  Elec       q    Type
REMARK                         _______ _______ _______ _____ _____    ______ ____
ROOT
ATOM      1  C   LIG    1       28.008 -20.141   5.915  0.00  0.00    +0.121 A 
ATOM      2  C   LIG    1       27.116 -19.903   4.869  0.00  0.00    +0.055 A 
ATOM      3  C   LIG    1       25.778 -20.343   4.920  0.00  0.00    +0.027 A 
ATOM      4  C   LIG    1       25.369 -21.121   6.017  0.00  0.00    +0.126 A 
ATOM      5  C   LIG    1       26.278 -21.387   7.056  0.00  0.00    +0.049 A 
ATOM      6  C   LIG    1       27.584 -20.892   7.004  0.00  0.00    +0.049 A 
ENDROOT
BRANCH   1   8
ATOM      7  C   LIG    1       29.475 -18.271   5.943  0.00  0.00    +0.277 C 
ATOM      8  O   LIG    1       29.295 -19.683   5.967  0.00  0.00    -0.495 OA
ENDBRANCH   1   8
BRANCH   4   9
ATOM      9  O   LIG    1       24.072 -21.565   6.001  0.00  0.00    -0.495 OA
ATOM     10  C   LIG    1       23.228 -21.132   7.062  0.00  0.00    +0.277 C 
ENDBRANCH   4   9
BRANCH   3  11
ATOM     11  C   LIG    1       24.815 -19.932   3.806  0.00  0.00    +0.165 C 
BRANCH  11  12
ATOM     12  C   LIG    1       23.828 -18.782   4.181  0.00  0.00    +0.081 C 
ATOM     13  C   LIG    1       22.407 -19.120   3.711  0.00  0.00    +0.027 C 
BRANCH  12  14
ATOM     14  N   LIG    1       24.169 -17.459   3.626  0.00  0.00    -0.325 NA
ATOM     15  H   LIG    1       23.715 -17.360   2.718  0.00  0.00    +0.118 HD
ATOM     16  H   LIG    1       23.739 -16.741   4.211  0.00  0.00    +0.118 HD
ENDBRANCH  12  14
ENDBRANCH  11  12
BRANCH  11  17
ATOM     17  O   LIG    1       24.049 -21.079   3.395  0.00  0.00    -0.386 OA
ATOM     18  H   LIG    1       23.266 -21.119   3.972  0.00  0.00    +0.210 HD
ENDBRANCH  11  17
ENDBRANCH   3  11
TORSDOF 6
ENDMDL
MODEL 3
REMARK VINA RESULT:      -4.3      3.265      6.552
REMARK  Name = *****
REMARK                            x       y       z     vdW  Elec       q    Type
REMARK                         _______ _______ _______ _____ _____    ______ ____
ROOT
ATOM      1  C   LIG    1       24.216 -17.177   3.807  0.00  0.00    +0.121 A 
ATOM      2  C   LIG    1       25.400 -16.540   3.433  0.00  0.00    +0.055 A 
ATOM      3  C   LIG    1       25.564 -15.146   3.559  0.00  0.00    +0.027 A 
ATOM      4  C   LIG    1       24.468 -14.377   3.986  0.00  0.00    +0.126 A 
ATOM      5  C   LIG    1       23.265 -15.016   4.332  0.00  0.00    +0.049 A 
ATOM      6  C   LIG    1       23.147 -16.406   4.248  0.00  0.00    +0.049 A 
ENDROOT
BRANCH   1   8
ATOM      7  C   LIG    1       22.837 -19.011   4.426  0.00  0.00    +0.277 C 
ATOM      8  O   LIG    1       24.011 -18.529   3.782  0.00  0.00    -0.495 OA
ENDBRANCH   1   8
BRANCH   4   9
ATOM      9  O   LIG    1       24.661 -13.021   4.049  0.00  0.00    -0.495 OA
ATOM     10  C   LIG    1       23.947 -12.223   3.111  0.00  0.00    +0.277 C 
ENDBRANCH   4   9
BRANCH   3  11
ATOM     11  C   LIG    1       26.931 -14.528   3.263  0.00  0.00    +0.165 C 
BRANCH  11  12
ATOM     12  C   LIG    1       27.331 -13.341   4.194  0.00  0.00    +0.081 C 
ATOM     13  C   LIG    1       28.782 -12.916   3.929  0.00  0.00    +0.027 C 
BRANCH  12  14
ATOM     14  N   LIG    1       27.212 -13.611   5.639  0.00  0.00    -0.325 NA
ATOM     15  H   LIG    1       27.808 -12.954   6.143  0.00  0.00    +0.118 HD
ATOM     16  H   LIG    1       26.262 -13.380   5.935  0.00  0.00    +0.118 HD
ENDBRANCH  12  14
ENDBRANCH  11  12
BRANCH  11  17
ATOM     17  O   LIG    1       26.958 -14.070   1.898  0.00  0.00    -0.386 OA
ATOM     18  H   LIG    1       26.288 -13.369   1.821  0.00  0.00    +0.210 HD
ENDBRANCH  11  17
ENDBRANCH   3  11
TORSDOF 6
ENDMDL
MODEL 4
REMARK VINA RESULT:      -4.0      1.735      2.162
REMARK  Name = *****
REMARK                            x       y       z     vdW  Elec       q    Type
REMARK                         _______ _______ _______ _____ _____    ______ ____
ROOT
ATOM      1  C   LIG    1       26.535 -17.876   3.770  0.00  0.00    +0.121 A 
ATOM      2  C   LIG    1       25.773 -19.002   4.084  0.00  0.00    +0.055 A 
ATOM      3  C   LIG    1       26.221 -19.967   5.008  0.00  0.00    +0.027 A 
ATOM      4  C   LIG    1       27.510 -19.829   5.550  0.00  0.00    +0.126 A 
ATOM      5  C   LIG    1       28.291 -18.712   5.209  0.00  0.00    +0.049 A 
ATOM      6  C   LIG    1       27.800 -17.742   4.330  0.00  0.00    +0.049 A 
ENDROOT
BRANCH   1   8
ATOM      7  C   LIG    1       26.496 -15.542   3.325  0.00  0.00    +0.277 C 
ATOM      8  O   LIG    1       26.136 -16.864   2.941  0.00  0.00    -0.495 OA
ENDBRANCH   1   8
BRANCH   4   9
ATOM      9  O   LIG    1       27.920 -20.817   6.408  0.00  0.00    -0.495 OA
ATOM     10  C   LIG    1       29.180 -20.638   7.044  0.00  0.00    +0.277 C 
ENDBRANCH   4   9
BRANCH   3  11
ATOM     11  C   LIG    1       25.281 -21.103   5.413  0.00  0.00    +0.165 C 
BRANCH  11  12
ATOM     12  C   LIG    1       23.804 -20.936   4.937  0.00  0.00    +0.081 C 
ATOM     13  C   LIG    1       22.836 -21.516   5.978  0.00  0.00    +0.027 C 
BRANCH  12  14
ATOM     14  N   LIG    1       23.488 -21.572   3.645  0.00  0.00    -0.325 NA
ATOM     15  H   LIG    1       22.543 -21.953   3.692  0.00  0.00    +0.118 HD
ATOM     16  H   LIG    1       23.439 -20.845   2.928  0.00  0.00    +0.118 HD
ENDBRANCH  12  14
ENDBRANCH  11  12
BRANCH  11  17
ATOM     17  O   LIG    1       25.290 -21.235   6.847  0.00  0.00    -0.386 OA
ATOM     18  H   LIG    1       24.685 -20.558   7.197  0.00  0.00    +0.210 HD
ENDBRANCH  11  17
ENDBRANCH   3  11
TORSDOF 6
ENDMDL
MODEL 5
REMARK VINA RESULT:      -3.5      3.323      6.153
REMARK  Name = *****
REMARK                            x       y       z     vdW  Elec       q    Type
REMARK                         _______ _______ _______ _____ _____    ______ ____
ROOT
ATOM      1  C   LIG    1       26.192 -16.841   3.330  0.00  0.00    +0.121 A 
ATOM      2  C   LIG    1       25.529 -15.628   3.141  0.00  0.00    +0.055 A 
ATOM      3  C   LIG    1       26.108 -14.400   3.516  0.00  0.00    +0.027 A 
ATOM      4  C   LIG    1       27.346 -14.417   4.183  0.00  0.00    +0.126 A 
ATOM      5  C   LIG    1       27.998 -15.642   4.402  0.00  0.00    +0.049 A 
ATOM      6  C   LIG    1       27.425 -16.842   3.971  0.00  0.00    +0.049 A 
ENDROOT
BRANCH   1   8
ATOM      7  C   LIG    1       24.675 -18.634   3.697  0.00  0.00    +0.277 C 
ATOM      8  O   LIG    1       25.726 -18.061   2.926  0.00  0.00    -0.495 OA
ENDBRANCH   1   8
BRANCH   4   9
ATOM      9  O   LIG    1       27.847 -13.201   4.570  0.00  0.00    -0.495 OA
ATOM     10  C   LIG    1       28.996 -12.727   3.877  0.00  0.00    +0.277 C 
ENDBRANCH   4   9
BRANCH   3  11
ATOM     11  C   LIG    1       25.392 -13.098   3.157  0.00  0.00    +0.165 C 
BRANCH  11  12
ATOM     12  C   LIG    1       24.361 -12.599   4.217  0.00  0.00    +0.081 C 
ATOM     13  C   LIG    1       23.521 -11.447   3.648  0.00  0.00    +0.027 C 
BRANCH  12  14
ATOM     14  N   LIG    1       24.945 -12.129   5.486  0.00  0.00    -0.325 NA
ATOM     15  H   LIG    1       24.491 -12.620   6.255  0.00  0.00    +0.118 HD
ATOM     16  H   LIG    1       25.921 -12.430   5.525  0.00  0.00    +0.118 HD
ENDBRANCH  12  14
ENDBRANCH  11  12
BRANCH  11  17
ATOM     17  O   LIG    1       24.714 -13.263   1.897  0.00  0.00    -0.386 OA
ATOM     18  H   LIG    1       25.240 -12.792   1.228  0.00  0.00    +0.210 HD
ENDBRANCH  11  17
ENDBRANCH   3  11
TORSDOF 6
ENDMDL
MODEL 6
REMARK VINA RESULT:      -3.3      3.559      6.763
REMARK  Name = *****
REMARK                            x       y       z     vdW  Elec       q    Type
REMARK                         _______ _______ _______ _____ _____    ______ ____
ROOT
ATOM      1  C   LIG    1       24.583 -16.831   3.747  0.00  0.00    +0.121 A 
ATOM      2  C   LIG    1       25.583 -15.858   3.743  0.00  0.00    +0.055 A 
ATOM      3  C   LIG    1       25.326 -14.528   4.133  0.00  0.00    +0.027 A 
ATOM      4  C   LIG    1       24.004 -14.163   4.440  0.00  0.00    +0.126 A 
ATOM      5  C   LIG    1       22.991 -15.136   4.412  0.00  0.00    +0.049 A 
ATOM      6  C   LIG    1       23.284 -16.460   4.074  0.00  0.00    +0.049 A 
ENDROOT
BRANCH   1   8
ATOM      7  C   LIG    1       23.712 -19.042   3.781  0.00  0.00    +0.277 C 
ATOM      8  O   LIG    1       24.773 -18.153   3.453  0.00  0.00    -0.495 OA
ENDBRANCH   1   8
BRANCH   4   9
ATOM      9  O   LIG    1       23.795 -12.848   4.768  0.00  0.00    -0.495 OA
ATOM     10  C   LIG    1       23.770 -11.912   3.696  0.00  0.00    +0.277 C 
ENDBRANCH   4   9
BRANCH   3  11
ATOM     11  C   LIG    1       26.492 -13.545   4.241  0.00  0.00    +0.165 C 
BRANCH  11  12
ATOM     12  C   LIG    1       27.763 -13.940   3.426  0.00  0.00    +0.081 C 
ATOM     13  C   LIG    1       28.896 -12.934   3.679  0.00  0.00    +0.027 C 
BRANCH  12  14
ATOM     14  N   LIG    1       27.571 -14.024   1.967  0.00  0.00    -0.325 NA
ATOM     15  H   LIG    1       27.734 -14.986   1.672  0.00  0.00    +0.118 HD
ATOM     16  H   LIG    1       26.585 -13.851   1.759  0.00  0.00    +0.118 HD
ENDBRANCH  12  14
ENDBRANCH  11  12
BRANCH  11  17
ATOM     17  O   LIG    1       26.859 -13.398   5.625  0.00  0.00    -0.386 OA
ATOM     18  H   LIG    1       26.073 -13.623   6.152  0.00  0.00    +0.210 HD
ENDBRANCH  11  17
ENDBRANCH   3  11
TORSDOF 6
ENDMDL
MODEL 7
REMARK VINA RESULT:      -3.3      2.417      4.428
REMARK  Name = *****
REMARK                            x       y       z     vdW  Elec       q    Type
REMARK                         _______ _______ _______ _____ _____    ______ ____
ROOT
ATOM      1  C   LIG    1       23.783 -21.076   6.004  0.00  0.00    +0.121 A 
ATOM      2  C   LIG    1       24.334 -20.250   5.024  0.00  0.00    +0.055 A 
ATOM      3  C   LIG    1       25.709 -19.939   5.003  0.00  0.00    +0.027 A 
ATOM      4  C   LIG    1       26.518 -20.402   6.055  0.00  0.00    +0.126 A 
ATOM      5  C   LIG    1       25.955 -21.207   7.059  0.00  0.00    +0.049 A 
ATOM      6  C   LIG    1       24.600 -21.544   7.026  0.00  0.00    +0.049 A 
ENDROOT
BRANCH   1   8
ATOM      7  C   LIG    1       21.689 -21.220   4.890  0.00  0.00    +0.277 C 
ATOM      8  O   LIG    1       22.477 -21.479   6.047  0.00  0.00    -0.495 OA
ENDBRANCH   1   8
BRANCH   4   9
ATOM      9  O   LIG    1       27.838 -20.035   6.016  0.00  0.00    -0.495 OA
ATOM     10  C   LIG    1       28.777 -20.943   6.580  0.00  0.00    +0.277 C 
ENDBRANCH   4   9
BRANCH   3  11
ATOM     11  C   LIG    1       26.275 -19.144   3.825  0.00  0.00    +0.165 C 
BRANCH  11  12
ATOM     12  C   LIG    1       26.768 -17.706   4.179  0.00  0.00    +0.081 C 
ATOM     13  C   LIG    1       26.131 -16.674   3.238  0.00  0.00    +0.027 C 
BRANCH  12  14
ATOM     14  N   LIG    1       28.228 -17.513   4.115  0.00  0.00    -0.325 NA
ATOM     15  H   LIG    1       28.493 -16.805   4.799  0.00  0.00    +0.118 HD
ATOM     16  H   LIG    1       28.684 -18.369   4.438  0.00  0.00    +0.118 HD
ENDBRANCH  12  14
ENDBRANCH  11  12
BRANCH  11  17
ATOM     17  O   LIG    1       25.273 -19.046   2.796  0.00  0.00    -0.386 OA
ATOM     18  H   LIG    1       25.215 -19.921   2.373  0.00  0.00    +0.210 HD
ENDBRANCH  11  17
ENDBRANCH   3  11
TORSDOF 6
ENDMDL
MODEL 8
REMARK VINA RESULT:      -3.3      1.781      3.305
REMARK  Name = *****
REMARK                            x       y       z     vdW  Elec       q    Type
REMARK                         _______ _______ _______ _____ _____    ______ ____
ROOT
ATOM      1  C   LIG    1       25.669 -16.027   3.338  0.00  0.00    +0.121 A 
ATOM      2  C   LIG    1       25.671 -17.421   3.398  0.00  0.00    +0.055 A 
ATOM      3  C   LIG    1       24.532 -18.148   3.799  0.00  0.00    +0.027 A 
ATOM      4  C   LIG    1       23.401 -17.436   4.236  0.00  0.00    +0.126 A 
ATOM      5  C   LIG    1       23.411 -16.031   4.206  0.00  0.00    +0.049 A 
ATOM      6  C   LIG    1       24.536 -15.337   3.753  0.00  0.00    +0.049 A 
ENDROOT
BRANCH   1   8
ATOM      7  C   LIG    1       26.406 -13.916   2.533  0.00  0.00    +0.277 C 
ATOM      8  O   LIG    1       26.709 -15.260   2.891  0.00  0.00    -0.495 OA
ENDBRANCH   1   8
BRANCH   4   9
ATOM      9  O   LIG    1       22.335 -18.186   4.661  0.00  0.00    -0.495 OA
ATOM     10  C   LIG    1       21.241 -18.320   3.760  0.00  0.00    +0.277 C 
ENDBRANCH   4   9
BRANCH   3  11
ATOM     11  C   LIG    1       24.553 -19.674   3.711  0.00  0.00    +0.165 C 
BRANCH  11  12
ATOM     12  C   LIG    1       24.089 -20.414   5.004  0.00  0.00    +0.081 C 
ATOM     13  C   LIG    1       25.254 -21.206   5.615  0.00  0.00    +0.027 C 
BRANCH  12  14
ATOM     14  N   LIG    1       22.970 -21.355   4.820  0.00  0.00    -0.325 NA
ATOM     15  H   LIG    1       23.063 -22.109   5.500  0.00  0.00    +0.118 HD
ATOM     16  H   LIG    1       22.101 -20.881   5.074  0.00  0.00    +0.118 HD
ENDBRANCH  12  14
ENDBRANCH  11  12
BRANCH  11  17
ATOM     17  O   LIG    1       25.885 -20.110   3.383  0.00  0.00    -0.386 OA
ATOM     18  H   LIG    1       26.038 -20.941   3.866  0.00  0.00    +0.210 HD
ENDBRANCH  11  17
ENDBRANCH   3  11
TORSDOF 6
ENDMDL
MODEL 9
REMARK VINA RESULT:      -3.3      3.308      5.884
REMARK  Name = *****
REMARK                            x       y       z     vdW  Elec       q    Type
REMARK                         _______ _______ _______ _____ _____    ______ ____
ROOT
ATOM      1  C   LIG    1       23.328 -17.152   4.176  0.00  0.00    +0.121 A 
ATOM      2  C   LIG    1       23.416 -15.759   4.147  0.00  0.00    +0.055 A 
ATOM      3  C   LIG    1       24.565 -15.098   3.671  0.00  0.00    +0.027 A 
ATOM      4  C   LIG    1       25.682 -15.871   3.306  0.00  0.00    +0.126 A 
ATOM      5  C   LIG    1       25.604 -17.272   3.366  0.00  0.00    +0.049 A 
ATOM      6  C   LIG    1       24.432 -17.903   3.792  0.00  0.00    +0.049 A 
ENDROOT
BRANCH   1   8
ATOM      7  C   LIG    1       22.435 -19.200   4.985  0.00  0.00    +0.277 C 
ATOM      8  O   LIG    1       22.222 -17.860   4.554  0.00  0.00    -0.495 OA
ENDBRANCH   1   8
BRANCH   4   9
ATOM      9  O   LIG    1       26.792 -15.181   2.894  0.00  0.00    -0.495 OA
ATOM     10  C   LIG    1       27.721 -14.791   3.899  0.00  0.00    +0.277 C 
ENDBRANCH   4   9
BRANCH   3  11
ATOM     11  C   LIG    1       24.546 -13.575   3.535  0.00  0.00    +0.165 C 
BRANCH  11  12
ATOM     12  C   LIG    1       24.365 -12.797   4.876  0.00  0.00    +0.081 C 
ATOM     13  C   LIG    1       23.678 -11.447   4.624  0.00  0.00    +0.027 C 
BRANCH  12  14
ATOM     14  N   LIG    1       25.611 -12.523   5.613  0.00  0.00    -0.325 NA
ATOM     15  H   LIG    1       26.153 -13.385   5.670  0.00  0.00    +0.118 HD
ATOM     16  H   LIG    1       26.187 -11.890   5.054  0.00  0.00    +0.118 HD
ENDBRANCH  12  14
ENDBRANCH  11  12
BRANCH  11  17
ATOM     17  O   LIG    1       23.489 -13.194   2.635  0.00  0.00    -0.386 OA
ATOM     18  H   LIG    1       23.499 -13.831   1.900  0.00  0.00    +0.210 HD
ENDBRANCH  11  17
ENDBRANCH   3  11
TORSDOF 6
ENDMDL
