MODEL 1
REMARK VINA RESULT:      -8.7      0.000      0.000
REMARK  Name = *****
REMARK                            x       y       z     vdW  Elec       q    Type
REMARK                         _______ _______ _______ _____ _____    ______ ____
ROOT
ATOM      1  N   LIG    1       26.479 -22.543   7.273  0.00  0.00    -0.234 N 
ATOM      2  H   LIG    1       27.034 -23.153   7.891  0.00  0.00    +0.174 HD
ENDROOT
BRANCH   1   6
ATOM      3  C   LIG    1       22.267 -23.381   6.606  0.00  0.00    +0.070 C 
ATOM      4  C   LIG    1       23.382 -24.348   6.530  0.00  0.00    +0.089 C 
ATOM      5  C   LIG    1       24.776 -23.966   6.858  0.00  0.00    +0.168 C 
ATOM      6  N   LIG    1       25.152 -22.752   7.075  0.00  0.00    -0.175 NA
ATOM      7  C   LIG    1       25.564 -25.229   6.784  0.00  0.00    +0.292 C 
ATOM      8  O   LIG    1       26.756 -25.286   7.055  0.00  0.00    -0.266 OA
ATOM      9  N   LIG    1       24.621 -26.140   6.345  0.00  0.00    -0.155 N 
ATOM     10  N   LIG    1       23.327 -25.611   6.193  0.00  0.00    -0.175 NA
BRANCH   9  11
ATOM     11  C   LIG    1       24.819 -27.513   6.110  0.00  0.00    +0.061 A 
ATOM     12  C   LIG    1       24.489 -28.453   7.099  0.00  0.00    +0.029 A 
ATOM     13  C   LIG    1       24.650 -29.834   6.882  0.00  0.00    -0.046 A 
ATOM     14  C   LIG    1       24.240 -30.783   7.975  0.00  0.00    +0.044 C 
ATOM     15  C   LIG    1       25.228 -30.277   5.679  0.00  0.00    -0.047 A 
ATOM     16  C   LIG    1       25.487 -31.733   5.409  0.00  0.00    +0.044 C 
ATOM     17  C   LIG    1       25.555 -29.337   4.693  0.00  0.00    +0.005 A 
ATOM     18  C   LIG    1       25.338 -27.975   4.900  0.00  0.00    +0.026 A 
ENDBRANCH   9  11
ENDBRANCH   1   6
BRANCH   1  19
ATOM     19  C   LIG    1       27.125 -21.378   6.804  0.00  0.00    +0.090 A 
ATOM     20  C   LIG    1       28.210 -20.773   7.485  0.00  0.00    +0.147 A 
ATOM     21  C   LIG    1       28.860 -19.607   7.023  0.00  0.00    +0.025 A 
ATOM     22  C   LIG    1       28.358 -19.049   5.833  0.00  0.00    +0.012 A 
ATOM     23  C   LIG    1       27.267 -19.606   5.159  0.00  0.00    +0.003 A 
ATOM     24  C   LIG    1       26.653 -20.760   5.645  0.00  0.00    +0.028 A 
BRANCH  21  25
ATOM     25  C   LIG    1       30.017 -18.987   7.726  0.00  0.00    -0.014 A 
ATOM     26  C   LIG    1       29.878 -18.447   9.018  0.00  0.00    +0.023 A 
ATOM     27  C   LIG    1       30.937 -17.814   9.680  0.00  0.00    +0.059 A 
ATOM     28  C   LIG    1       32.199 -17.780   9.085  0.00  0.00    +0.015 A 
ATOM     29  C   LIG    1       32.381 -18.344   7.824  0.00  0.00    +0.001 A 
ATOM     30  C   LIG    1       31.300 -18.927   7.150  0.00  0.00    +0.008 A 
BRANCH  27  31
ATOM     31  C   LIG    1       30.754 -17.224  11.029  0.00  0.00    +0.337 C 
ATOM     32  O   LIG    1       30.216 -16.138  11.208  0.00  0.00    -0.245 OA
BRANCH  31  33
ATOM     33  O   LIG    1       31.194 -17.999  12.041  0.00  0.00    -0.477 OA
ATOM     34  H   LIG    1       31.141 -17.593  12.929  0.00  0.00    +0.295 HD
ENDBRANCH  31  33
ENDBRANCH  27  31
ENDBRANCH  21  25
BRANCH  20  35
ATOM     35  O   LIG    1       28.631 -21.360   8.661  0.00  0.00    -0.504 OA
ATOM     36  H   LIG    1       29.607 -21.385   8.543  0.00  0.00    +0.292 HD
ENDBRANCH  20  35
ENDBRANCH   1  19
TORSDOF 7
ENDMDL
MODEL 2
REMARK VINA RESULT:      -8.6      3.161     11.158
REMARK  Name = *****
REMARK                            x       y       z     vdW  Elec       q    Type
REMARK                         _______ _______ _______ _____ _____    ______ ____
ROOT
ATOM      1  N   LIG    1       24.655 -26.636   5.835  0.00  0.00    -0.234 N 
ATOM      2  H   LIG    1       24.977 -26.782   4.867  0.00  0.00    +0.174 HD
ENDROOT
BRANCH   1   6
ATOM      3  C   LIG    1       22.072 -23.299   6.875  0.00  0.00    +0.070 C 
ATOM      4  C   LIG    1       23.542 -23.266   6.732  0.00  0.00    +0.089 C 
ATOM      5  C   LIG    1       24.315 -24.452   6.292  0.00  0.00    +0.168 C 
ATOM      6  N   LIG    1       23.804 -25.628   6.156  0.00  0.00    -0.175 NA
ATOM      7  C   LIG    1       25.723 -23.982   6.153  0.00  0.00    +0.292 C 
ATOM      8  O   LIG    1       26.627 -24.700   5.748  0.00  0.00    -0.266 OA
ATOM      9  N   LIG    1       25.643 -22.676   6.601  0.00  0.00    -0.155 N 
ATOM     10  N   LIG    1       24.347 -22.256   6.946  0.00  0.00    -0.175 NA
BRANCH   9  11
ATOM     11  C   LIG    1       26.694 -21.744   6.675  0.00  0.00    +0.061 A 
ATOM     12  C   LIG    1       27.775 -21.966   7.545  0.00  0.00    +0.029 A 
ATOM     13  C   LIG    1       28.853 -21.066   7.619  0.00  0.00    -0.046 A 
ATOM     14  C   LIG    1       29.993 -21.389   8.547  0.00  0.00    +0.044 C 
ATOM     15  C   LIG    1       28.810 -19.878   6.867  0.00  0.00    -0.047 A 
ATOM     16  C   LIG    1       29.898 -18.844   6.949  0.00  0.00    +0.044 C 
ATOM     17  C   LIG    1       27.732 -19.659   5.999  0.00  0.00    +0.005 A 
ATOM     18  C   LIG    1       26.697 -20.588   5.893  0.00  0.00    +0.026 A 
ENDBRANCH   9  11
ENDBRANCH   1   6
BRANCH   1  19
ATOM     19  C   LIG    1       24.987 -27.649   6.761  0.00  0.00    +0.090 A 
ATOM     20  C   LIG    1       24.351 -28.915   6.779  0.00  0.00    +0.147 A 
ATOM     21  C   LIG    1       24.677 -29.932   7.702  0.00  0.00    +0.025 A 
ATOM     22  C   LIG    1       25.678 -29.619   8.641  0.00  0.00    +0.012 A 
ATOM     23  C   LIG    1       26.298 -28.366   8.667  0.00  0.00    +0.003 A 
ATOM     24  C   LIG    1       25.952 -27.388   7.736  0.00  0.00    +0.028 A 
BRANCH  21  25
ATOM     25  C   LIG    1       24.025 -31.271   7.704  0.00  0.00    -0.014 A 
ATOM     26  C   LIG    1       23.201 -31.677   8.769  0.00  0.00    +0.023 A 
ATOM     27  C   LIG    1       22.618 -32.949   8.818  0.00  0.00    +0.059 A 
ATOM     28  C   LIG    1       22.784 -33.825   7.745  0.00  0.00    +0.015 A 
ATOM     29  C   LIG    1       23.559 -33.437   6.654  0.00  0.00    +0.001 A 
ATOM     30  C   LIG    1       24.181 -32.181   6.642  0.00  0.00    +0.008 A 
BRANCH  27  31
ATOM     31  C   LIG    1       21.779 -33.363   9.971  0.00  0.00    +0.337 C 
ATOM     32  O   LIG    1       22.200 -33.384  11.121  0.00  0.00    -0.245 OA
BRANCH  31  33
ATOM     33  O   LIG    1       20.507 -33.678   9.650  0.00  0.00    -0.477 OA
ATOM     34  H   LIG    1       19.867 -32.942   9.722  0.00  0.00    +0.295 HD
ENDBRANCH  31  33
ENDBRANCH  27  31
ENDBRANCH  21  25
BRANCH  20  35
ATOM     35  O   LIG    1       23.358 -29.141   5.847  0.00  0.00    -0.504 OA
ATOM     36  H   LIG    1       23.710 -28.678   5.053  0.00  0.00    +0.292 HD
ENDBRANCH  20  35
ENDBRANCH   1  19
TORSDOF 7
ENDMDL
MODEL 3
REMARK VINA RESULT:      -8.6      3.122      8.807
REMARK  Name = *****
REMARK                            x       y       z     vdW  Elec       q    Type
REMARK                         _______ _______ _______ _____ _____    ______ ____
ROOT
ATOM      1  N   LIG    1       24.589 -26.704   5.744  0.00  0.00    -0.234 N 
ATOM      2  H   LIG    1       25.066 -26.729   4.831  0.00  0.00    +0.174 HD
ENDROOT
BRANCH   1   6
ATOM      3  C   LIG    1       21.994 -23.383   6.809  0.00  0.00    +0.070 C 
ATOM      4  C   LIG    1       23.466 -23.347   6.677  0.00  0.00    +0.089 C 
ATOM      5  C   LIG    1       24.244 -24.526   6.227  0.00  0.00    +0.168 C 
ATOM      6  N   LIG    1       23.734 -25.701   6.072  0.00  0.00    -0.175 NA
ATOM      7  C   LIG    1       25.651 -24.053   6.105  0.00  0.00    +0.292 C 
ATOM      8  O   LIG    1       26.559 -24.764   5.697  0.00  0.00    -0.266 OA
ATOM      9  N   LIG    1       25.567 -22.753   6.569  0.00  0.00    -0.155 N 
ATOM     10  N   LIG    1       24.268 -22.339   6.910  0.00  0.00    -0.175 NA
BRANCH   9  11
ATOM     11  C   LIG    1       26.616 -21.821   6.663  0.00  0.00    +0.061 A 
ATOM     12  C   LIG    1       27.692 -22.054   7.536  0.00  0.00    +0.029 A 
ATOM     13  C   LIG    1       28.769 -21.154   7.630  0.00  0.00    -0.046 A 
ATOM     14  C   LIG    1       29.903 -21.489   8.560  0.00  0.00    +0.044 C 
ATOM     15  C   LIG    1       28.729 -19.955   6.894  0.00  0.00    -0.047 A 
ATOM     16  C   LIG    1       29.815 -18.922   6.998  0.00  0.00    +0.044 C 
ATOM     17  C   LIG    1       27.656 -19.726   6.023  0.00  0.00    +0.005 A 
ATOM     18  C   LIG    1       26.622 -20.653   5.898  0.00  0.00    +0.026 A 
ENDBRANCH   9  11
ENDBRANCH   1   6
BRANCH   1  19
ATOM     19  C   LIG    1       24.720 -27.859   6.546  0.00  0.00    +0.090 A 
ATOM     20  C   LIG    1       25.524 -27.899   7.712  0.00  0.00    +0.147 A 
ATOM     21  C   LIG    1       25.661 -29.050   8.518  0.00  0.00    +0.025 A 
ATOM     22  C   LIG    1       24.957 -30.192   8.093  0.00  0.00    +0.012 A 
ATOM     23  C   LIG    1       24.184 -30.190   6.928  0.00  0.00    +0.003 A 
ATOM     24  C   LIG    1       24.070 -29.033   6.159  0.00  0.00    +0.028 A 
BRANCH  21  25
ATOM     25  C   LIG    1       26.487 -29.083   9.757  0.00  0.00    -0.014 A 
ATOM     26  C   LIG    1       26.352 -28.092  10.747  0.00  0.00    +0.023 A 
ATOM     27  C   LIG    1       27.150 -28.071  11.897  0.00  0.00    +0.059 A 
ATOM     28  C   LIG    1       28.059 -29.106  12.122  0.00  0.00    +0.015 A 
ATOM     29  C   LIG    1       28.187 -30.127  11.182  0.00  0.00    +0.001 A 
ATOM     30  C   LIG    1       27.419 -30.106  10.010  0.00  0.00    +0.008 A 
BRANCH  27  31
ATOM     31  C   LIG    1       27.010 -26.995  12.909  0.00  0.00    +0.337 C 
ATOM     32  O   LIG    1       26.137 -26.138  12.845  0.00  0.00    -0.245 OA
BRANCH  31  33
ATOM     33  O   LIG    1       27.898 -27.062  13.921  0.00  0.00    -0.477 OA
ATOM     34  H   LIG    1       27.599 -27.565  14.705  0.00  0.00    +0.295 HD
ENDBRANCH  31  33
ENDBRANCH  27  31
ENDBRANCH  21  25
BRANCH  20  35
ATOM     35  O   LIG    1       26.208 -26.749   8.052  0.00  0.00    -0.504 OA
ATOM     36  H   LIG    1       26.082 -26.715   9.027  0.00  0.00    +0.292 HD
ENDBRANCH  20  35
ENDBRANCH   1  19
TORSDOF 7
ENDMDL
MODEL 4
REMARK VINA RESULT:      -8.2      5.223      7.370
REMARK  Name = *****
REMARK                            x       y       z     vdW  Elec       q    Type
REMARK                         _______ _______ _______ _____ _____    ______ ____
ROOT
ATOM      1  N   LIG    1       24.023 -28.240   5.508  0.00  0.00    -0.234 N 
ATOM      2  H   LIG    1       23.005 -28.091   5.446  0.00  0.00    +0.174 HD
ENDROOT
BRANCH   1   6
ATOM      3  C   LIG    1       25.850 -32.027   4.406  0.00  0.00    +0.070 C 
ATOM      4  C   LIG    1       25.429 -31.611   5.761  0.00  0.00    +0.089 C 
ATOM      5  C   LIG    1       24.739 -30.322   6.007  0.00  0.00    +0.168 C 
ATOM      6  N   LIG    1       24.595 -29.406   5.111  0.00  0.00    -0.175 NA
ATOM      7  C   LIG    1       24.376 -30.334   7.452  0.00  0.00    +0.292 C 
ATOM      8  O   LIG    1       23.739 -29.436   7.985  0.00  0.00    -0.266 OA
ATOM      9  N   LIG    1       24.951 -31.513   7.891  0.00  0.00    -0.155 N 
ATOM     10  N   LIG    1       25.577 -32.266   6.884  0.00  0.00    -0.175 NA
BRANCH   9  11
ATOM     11  C   LIG    1       24.908 -32.038   9.196  0.00  0.00    +0.061 A 
ATOM     12  C   LIG    1       25.391 -31.284  10.277  0.00  0.00    +0.029 A 
ATOM     13  C   LIG    1       25.335 -31.771  11.596  0.00  0.00    -0.046 A 
ATOM     14  C   LIG    1       25.838 -30.891  12.707  0.00  0.00    +0.044 C 
ATOM     15  C   LIG    1       24.859 -33.074  11.826  0.00  0.00    -0.047 A 
ATOM     16  C   LIG    1       24.832 -33.679  13.201  0.00  0.00    +0.044 C 
ATOM     17  C   LIG    1       24.376 -33.824  10.746  0.00  0.00    +0.005 A 
ATOM     18  C   LIG    1       24.385 -33.307   9.452  0.00  0.00    +0.026 A 
ENDBRANCH   9  11
ENDBRANCH   1   6
BRANCH   1  19
ATOM     19  C   LIG    1       24.799 -27.108   5.841  0.00  0.00    +0.090 A 
ATOM     20  C   LIG    1       24.282 -25.789   5.827  0.00  0.00    +0.147 A 
ATOM     21  C   LIG    1       25.053 -24.653   6.157  0.00  0.00    +0.025 A 
ATOM     22  C   LIG    1       26.398 -24.893   6.494  0.00  0.00    +0.012 A 
ATOM     23  C   LIG    1       26.943 -26.181   6.482  0.00  0.00    +0.003 A 
ATOM     24  C   LIG    1       26.149 -27.279   6.154  0.00  0.00    +0.028 A 
BRANCH  21  25
ATOM     25  C   LIG    1       24.501 -23.270   6.167  0.00  0.00    -0.014 A 
ATOM     26  C   LIG    1       24.812 -22.356   5.143  0.00  0.00    +0.023 A 
ATOM     27  C   LIG    1       24.347 -21.035   5.155  0.00  0.00    +0.059 A 
ATOM     28  C   LIG    1       23.481 -20.619   6.167  0.00  0.00    +0.015 A 
ATOM     29  C   LIG    1       23.119 -21.513   7.173  0.00  0.00    +0.001 A 
ATOM     30  C   LIG    1       23.634 -22.816   7.178  0.00  0.00    +0.008 A 
BRANCH  27  31
ATOM     31  C   LIG    1       24.718 -20.083   4.079  0.00  0.00    +0.337 C 
ATOM     32  O   LIG    1       23.896 -19.375   3.510  0.00  0.00    -0.245 OA
BRANCH  31  33
ATOM     33  O   LIG    1       26.038 -20.036   3.806  0.00  0.00    -0.477 OA
ATOM     34  H   LIG    1       26.533 -19.331   4.269  0.00  0.00    +0.295 HD
ENDBRANCH  31  33
ENDBRANCH  27  31
ENDBRANCH  21  25
BRANCH  20  35
ATOM     35  O   LIG    1       22.962 -25.627   5.459  0.00  0.00    -0.504 OA
ATOM     36  H   LIG    1       23.033 -25.494   4.487  0.00  0.00    +0.292 HD
ENDBRANCH  20  35
ENDBRANCH   1  19
TORSDOF 7
ENDMDL
MODEL 5
REMARK VINA RESULT:      -8.0      6.164      9.828
REMARK  Name = *****
REMARK                            x       y       z     vdW  Elec       q    Type
REMARK                         _______ _______ _______ _____ _____    ______ ____
ROOT
ATOM      1  N   LIG    1       26.627 -30.734   9.700  0.00  0.00    -0.234 N 
ATOM      2  H   LIG    1       27.606 -30.426   9.610  0.00  0.00    +0.174 HD
ENDROOT
BRANCH   1   6
ATOM      3  C   LIG    1       25.059 -32.084  13.522  0.00  0.00    +0.070 C 
ATOM      4  C   LIG    1       25.423 -30.699  13.157  0.00  0.00    +0.089 C 
ATOM      5  C   LIG    1       25.874 -30.340  11.791  0.00  0.00    +0.168 C 
ATOM      6  N   LIG    1       26.135 -31.208  10.874  0.00  0.00    -0.175 NA
ATOM      7  C   LIG    1       26.017 -28.856  11.796  0.00  0.00    +0.292 C 
ATOM      8  O   LIG    1       26.324 -28.215  10.800  0.00  0.00    -0.266 OA
ATOM      9  N   LIG    1       25.751 -28.538  13.114  0.00  0.00    -0.155 N 
ATOM     10  N   LIG    1       25.402 -29.635  13.919  0.00  0.00    -0.175 NA
BRANCH   9  11
ATOM     11  C   LIG    1       25.735 -27.252  13.685  0.00  0.00    +0.061 A 
ATOM     12  C   LIG    1       26.940 -26.602  13.995  0.00  0.00    +0.029 A 
ATOM     13  C   LIG    1       26.955 -25.305  14.540  0.00  0.00    -0.046 A 
ATOM     14  C   LIG    1       28.286 -24.657  14.811  0.00  0.00    +0.044 C 
ATOM     15  C   LIG    1       25.736 -24.679  14.856  0.00  0.00    -0.047 A 
ATOM     16  C   LIG    1       25.682 -23.321  15.500  0.00  0.00    +0.044 C 
ATOM     17  C   LIG    1       24.535 -25.329  14.546  0.00  0.00    +0.005 A 
ATOM     18  C   LIG    1       24.535 -26.592  13.953  0.00  0.00    +0.026 A 
ENDBRANCH   9  11
ENDBRANCH   1   6
BRANCH   1  19
ATOM     19  C   LIG    1       25.784 -30.457   8.601  0.00  0.00    +0.090 A 
ATOM     20  C   LIG    1       25.780 -29.210   7.928  0.00  0.00    +0.147 A 
ATOM     21  C   LIG    1       24.939 -28.926   6.830  0.00  0.00    +0.025 A 
ATOM     22  C   LIG    1       24.069 -29.958   6.432  0.00  0.00    +0.012 A 
ATOM     23  C   LIG    1       24.027 -31.186   7.100  0.00  0.00    +0.003 A 
ATOM     24  C   LIG    1       24.876 -31.431   8.179  0.00  0.00    +0.028 A 
BRANCH  21  25
ATOM     25  C   LIG    1       24.956 -27.624   6.108  0.00  0.00    -0.014 A 
ATOM     26  C   LIG    1       24.404 -26.465   6.685  0.00  0.00    +0.023 A 
ATOM     27  C   LIG    1       24.361 -25.241   6.007  0.00  0.00    +0.059 A 
ATOM     28  C   LIG    1       24.953 -25.130   4.748  0.00  0.00    +0.015 A 
ATOM     29  C   LIG    1       25.546 -26.249   4.166  0.00  0.00    +0.001 A 
ATOM     30  C   LIG    1       25.535 -27.480   4.833  0.00  0.00    +0.008 A 
BRANCH  27  31
ATOM     31  C   LIG    1       23.744 -24.043   6.628  0.00  0.00    +0.337 C 
ATOM     32  O   LIG    1       24.405 -23.122   7.090  0.00  0.00    -0.245 OA
BRANCH  31  33
ATOM     33  O   LIG    1       22.395 -24.036   6.606  0.00  0.00    -0.477 OA
ATOM     34  H   LIG    1       21.979 -24.893   6.384  0.00  0.00    +0.295 HD
ENDBRANCH  31  33
ENDBRANCH  27  31
ENDBRANCH  21  25
BRANCH  20  35
ATOM     35  O   LIG    1       26.641 -28.235   8.391  0.00  0.00    -0.504 OA
ATOM     36  H   LIG    1       27.053 -28.675   9.168  0.00  0.00    +0.292 HD
ENDBRANCH  20  35
ENDBRANCH   1  19
TORSDOF 7
ENDMDL
MODEL 6
REMARK VINA RESULT:      -8.0      6.289      9.569
REMARK  Name = *****
REMARK                            x       y       z     vdW  Elec       q    Type
REMARK                         _______ _______ _______ _____ _____    ______ ____
ROOT
ATOM      1  N   LIG    1       25.760 -30.873  10.007  0.00  0.00    -0.234 N 
ATOM      2  H   LIG    1       25.919 -31.862  10.249  0.00  0.00    +0.174 HD
ENDROOT
BRANCH   1   6
ATOM      3  C   LIG    1       27.020 -27.624  12.605  0.00  0.00    +0.070 C 
ATOM      4  C   LIG    1       25.641 -28.122  12.420  0.00  0.00    +0.089 C 
ATOM      5  C   LIG    1       25.338 -29.295  11.565  0.00  0.00    +0.168 C 
ATOM      6  N   LIG    1       26.206 -29.866  10.802  0.00  0.00    -0.175 NA
ATOM      7  C   LIG    1       23.880 -29.549  11.740  0.00  0.00    +0.292 C 
ATOM      8  O   LIG    1       23.302 -30.491  11.214  0.00  0.00    -0.266 OA
ATOM      9  N   LIG    1       23.492 -28.497  12.549  0.00  0.00    -0.155 N 
ATOM     10  N   LIG    1       24.540 -27.651  12.947  0.00  0.00    -0.175 NA
BRANCH   9  11
ATOM     11  C   LIG    1       22.199 -28.246  13.044  0.00  0.00    +0.061 A 
ATOM     12  C   LIG    1       21.341 -29.314  13.351  0.00  0.00    +0.029 A 
ATOM     13  C   LIG    1       20.053 -29.094  13.874  0.00  0.00    -0.046 A 
ATOM     14  C   LIG    1       19.204 -30.289  14.213  0.00  0.00    +0.044 C 
ATOM     15  C   LIG    1       19.586 -27.775  14.016  0.00  0.00    -0.047 A 
ATOM     16  C   LIG    1       18.199 -27.471  14.508  0.00  0.00    +0.044 C 
ATOM     17  C   LIG    1       20.445 -26.711  13.711  0.00  0.00    +0.005 A 
ATOM     18  C   LIG    1       21.739 -26.944  13.246  0.00  0.00    +0.026 A 
ENDBRANCH   9  11
ENDBRANCH   1   6
BRANCH   1  19
ATOM     19  C   LIG    1       25.231 -30.624   8.722  0.00  0.00    +0.090 A 
ATOM     20  C   LIG    1       25.338 -29.367   8.076  0.00  0.00    +0.147 A 
ATOM     21  C   LIG    1       24.809 -29.110   6.792  0.00  0.00    +0.025 A 
ATOM     22  C   LIG    1       24.140 -30.181   6.171  0.00  0.00    +0.012 A 
ATOM     23  C   LIG    1       23.990 -31.421   6.800  0.00  0.00    +0.003 A 
ATOM     24  C   LIG    1       24.528 -31.638   8.068  0.00  0.00    +0.028 A 
BRANCH  21  25
ATOM     25  C   LIG    1       24.945 -27.796   6.104  0.00  0.00    -0.014 A 
ATOM     26  C   LIG    1       24.415 -26.622   6.669  0.00  0.00    +0.023 A 
ATOM     27  C   LIG    1       24.485 -25.384   6.019  0.00  0.00    +0.059 A 
ATOM     28  C   LIG    1       25.170 -25.279   4.807  0.00  0.00    +0.015 A 
ATOM     29  C   LIG    1       25.744 -26.416   4.242  0.00  0.00    +0.001 A 
ATOM     30  C   LIG    1       25.620 -27.659   4.877  0.00  0.00    +0.008 A 
BRANCH  27  31
ATOM     31  C   LIG    1       23.888 -24.166   6.623  0.00  0.00    +0.337 C 
ATOM     32  O   LIG    1       24.561 -23.299   7.164  0.00  0.00    -0.245 OA
BRANCH  31  33
ATOM     33  O   LIG    1       22.548 -24.079   6.491  0.00  0.00    -0.477 OA
ATOM     34  H   LIG    1       22.190 -23.169   6.481  0.00  0.00    +0.295 HD
ENDBRANCH  31  33
ENDBRANCH  27  31
ENDBRANCH  21  25
BRANCH  20  35
ATOM     35  O   LIG    1       25.983 -28.355   8.757  0.00  0.00    -0.504 OA
ATOM     36  H   LIG    1       25.252 -27.961   9.284  0.00  0.00    +0.292 HD
ENDBRANCH  20  35
ENDBRANCH   1  19
TORSDOF 7
ENDMDL
MODEL 7
REMARK VINA RESULT:      -8.0      4.323      8.614
REMARK  Name = *****
REMARK                            x       y       z     vdW  Elec       q    Type
REMARK                         _______ _______ _______ _____ _____    ______ ____
ROOT
ATOM      1  N   LIG    1       26.326 -29.923   8.201  0.00  0.00    -0.234 N 
ATOM      2  H   LIG    1       27.302 -30.253   8.216  0.00  0.00    +0.174 HD
ENDROOT
BRANCH   1   6
ATOM      3  C   LIG    1       24.104 -29.349   4.510  0.00  0.00    +0.070 C 
ATOM      4  C   LIG    1       24.497 -28.302   5.476  0.00  0.00    +0.089 C 
ATOM      5  C   LIG    1       25.328 -28.603   6.666  0.00  0.00    +0.168 C 
ATOM      6  N   LIG    1       25.635 -29.798   7.038  0.00  0.00    -0.175 NA
ATOM      7  C   LIG    1       25.605 -27.284   7.303  0.00  0.00    +0.292 C 
ATOM      8  O   LIG    1       26.318 -27.159   8.289  0.00  0.00    -0.266 OA
ATOM      9  N   LIG    1       24.863 -26.418   6.522  0.00  0.00    -0.155 N 
ATOM     10  N   LIG    1       24.205 -27.026   5.440  0.00  0.00    -0.175 NA
BRANCH   9  11
ATOM     11  C   LIG    1       24.767 -25.022   6.669  0.00  0.00    +0.061 A 
ATOM     12  C   LIG    1       25.921 -24.254   6.898  0.00  0.00    +0.029 A 
ATOM     13  C   LIG    1       25.859 -22.854   7.020  0.00  0.00    -0.046 A 
ATOM     14  C   LIG    1       27.141 -22.096   7.228  0.00  0.00    +0.044 C 
ATOM     15  C   LIG    1       24.605 -22.218   6.995  0.00  0.00    -0.047 A 
ATOM     16  C   LIG    1       24.462 -20.734   7.184  0.00  0.00    +0.044 C 
ATOM     17  C   LIG    1       23.455 -22.985   6.765  0.00  0.00    +0.005 A 
ATOM     18  C   LIG    1       23.538 -24.366   6.589  0.00  0.00    +0.026 A 
ENDBRANCH   9  11
ENDBRANCH   1   6
BRANCH   1  19
ATOM     19  C   LIG    1       25.693 -29.796   9.457  0.00  0.00    +0.090 A 
ATOM     20  C   LIG    1       26.292 -29.136  10.558  0.00  0.00    +0.147 A 
ATOM     21  C   LIG    1       25.666 -29.007  11.817  0.00  0.00    +0.025 A 
ATOM     22  C   LIG    1       24.392 -29.592  11.939  0.00  0.00    +0.012 A 
ATOM     23  C   LIG    1       23.792 -30.280  10.879  0.00  0.00    +0.003 A 
ATOM     24  C   LIG    1       24.441 -30.384   9.649  0.00  0.00    +0.028 A 
BRANCH  21  25
ATOM     25  C   LIG    1       26.286 -28.290  12.966  0.00  0.00    -0.014 A 
ATOM     26  C   LIG    1       26.290 -26.885  13.029  0.00  0.00    +0.023 A 
ATOM     27  C   LIG    1       26.911 -26.186  14.071  0.00  0.00    +0.059 A 
ATOM     28  C   LIG    1       27.478 -26.893  15.132  0.00  0.00    +0.015 A 
ATOM     29  C   LIG    1       27.453 -28.286  15.122  0.00  0.00    +0.001 A 
ATOM     30  C   LIG    1       26.876 -28.973  14.045  0.00  0.00    +0.008 A 
BRANCH  27  31
ATOM     31  C   LIG    1       26.929 -24.702  14.095  0.00  0.00    +0.337 C 
ATOM     32  O   LIG    1       27.936 -24.057  14.358  0.00  0.00    -0.245 OA
BRANCH  31  33
ATOM     33  O   LIG    1       25.755 -24.125  13.767  0.00  0.00    -0.477 OA
ATOM     34  H   LIG    1       25.171 -24.665  13.197  0.00  0.00    +0.295 HD
ENDBRANCH  31  33
ENDBRANCH  27  31
ENDBRANCH  21  25
BRANCH  20  35
ATOM     35  O   LIG    1       27.555 -28.610  10.374  0.00  0.00    -0.504 OA
ATOM     36  H   LIG    1       27.674 -28.694   9.401  0.00  0.00    +0.292 HD
ENDBRANCH  20  35
ENDBRANCH   1  19
TORSDOF 7
ENDMDL
MODEL 8
REMARK VINA RESULT:      -7.9      3.101      9.794
REMARK  Name = *****
REMARK                            x       y       z     vdW  Elec       q    Type
REMARK                         _______ _______ _______ _____ _____    ______ ____
ROOT
ATOM      1  N   LIG    1       24.631 -26.673   5.597  0.00  0.00    -0.234 N 
ATOM      2  H   LIG    1       25.214 -26.620   4.749  0.00  0.00    +0.174 HD
ENDROOT
BRANCH   1   6
ATOM      3  C   LIG    1       22.029 -23.375   6.712  0.00  0.00    +0.070 C 
ATOM      4  C   LIG    1       23.507 -23.367   6.695  0.00  0.00    +0.089 C 
ATOM      5  C   LIG    1       24.293 -24.529   6.217  0.00  0.00    +0.168 C 
ATOM      6  N   LIG    1       23.774 -25.675   5.935  0.00  0.00    -0.175 NA
ATOM      7  C   LIG    1       25.715 -24.084   6.238  0.00  0.00    +0.292 C 
ATOM      8  O   LIG    1       26.638 -24.787   5.848  0.00  0.00    -0.266 OA
ATOM      9  N   LIG    1       25.621 -22.821   6.792  0.00  0.00    -0.155 N 
ATOM     10  N   LIG    1       24.308 -22.400   7.064  0.00  0.00    -0.175 NA
BRANCH   9  11
ATOM     11  C   LIG    1       26.679 -21.926   7.036  0.00  0.00    +0.061 A 
ATOM     12  C   LIG    1       26.995 -20.933   6.095  0.00  0.00    +0.029 A 
ATOM     13  C   LIG    1       28.028 -20.006   6.325  0.00  0.00    -0.046 A 
ATOM     14  C   LIG    1       28.285 -18.947   5.288  0.00  0.00    +0.044 C 
ATOM     15  C   LIG    1       28.814 -20.128   7.485  0.00  0.00    -0.047 A 
ATOM     16  C   LIG    1       29.973 -19.212   7.760  0.00  0.00    +0.044 C 
ATOM     17  C   LIG    1       28.496 -21.118   8.423  0.00  0.00    +0.005 A 
ATOM     18  C   LIG    1       27.433 -21.995   8.209  0.00  0.00    +0.026 A 
ENDBRANCH   9  11
ENDBRANCH   1   6
BRANCH   1  19
ATOM     19  C   LIG    1       24.630 -27.913   6.274  0.00  0.00    +0.090 A 
ATOM     20  C   LIG    1       25.273 -28.110   7.521  0.00  0.00    +0.147 A 
ATOM     21  C   LIG    1       25.277 -29.346   8.203  0.00  0.00    +0.025 A 
ATOM     22  C   LIG    1       24.610 -30.408   7.565  0.00  0.00    +0.012 A 
ATOM     23  C   LIG    1       23.997 -30.250   6.317  0.00  0.00    +0.003 A 
ATOM     24  C   LIG    1       24.011 -29.013   5.676  0.00  0.00    +0.028 A 
BRANCH  21  25
ATOM     25  C   LIG    1       25.931 -29.545   9.526  0.00  0.00    -0.014 A 
ATOM     26  C   LIG    1       25.351 -30.369  10.507  0.00  0.00    +0.023 A 
ATOM     27  C   LIG    1       25.919 -30.532  11.776  0.00  0.00    +0.059 A 
ATOM     28  C   LIG    1       27.143 -29.928  12.065  0.00  0.00    +0.015 A 
ATOM     29  C   LIG    1       27.766 -29.140  11.100  0.00  0.00    +0.001 A 
ATOM     30  C   LIG    1       27.160 -28.942   9.853  0.00  0.00    +0.008 A 
BRANCH  27  31
ATOM     31  C   LIG    1       25.268 -31.382  12.804  0.00  0.00    +0.337 C 
ATOM     32  O   LIG    1       24.107 -31.220  13.158  0.00  0.00    -0.245 OA
BRANCH  31  33
ATOM     33  O   LIG    1       26.049 -32.371  13.287  0.00  0.00    -0.477 OA
ATOM     34  H   LIG    1       25.683 -33.273  13.193  0.00  0.00    +0.295 HD
ENDBRANCH  31  33
ENDBRANCH  27  31
ENDBRANCH  21  25
BRANCH  20  35
ATOM     35  O   LIG    1       25.931 -27.030   8.075  0.00  0.00    -0.504 OA
ATOM     36  H   LIG    1       26.377 -26.636   7.291  0.00  0.00    +0.292 HD
ENDBRANCH  20  35
ENDBRANCH   1  19
TORSDOF 7
ENDMDL
MODEL 9
REMARK VINA RESULT:      -7.8      2.221      3.778
REMARK  Name = *****
REMARK                            x       y       z     vdW  Elec       q    Type
REMARK                         _______ _______ _______ _____ _____    ______ ____
ROOT
ATOM      1  N   LIG    1       24.565 -24.512   5.914  0.00  0.00    -0.234 N 
ATOM      2  H   LIG    1       23.570 -24.770   5.847  0.00  0.00    +0.174 HD
ENDROOT
BRANCH   1   6
ATOM      3  C   LIG    1       27.604 -27.093   4.185  0.00  0.00    +0.070 C 
ATOM      4  C   LIG    1       26.496 -27.505   5.071  0.00  0.00    +0.089 C 
ATOM      5  C   LIG    1       25.466 -26.547   5.539  0.00  0.00    +0.168 C 
ATOM      6  N   LIG    1       25.537 -25.274   5.349  0.00  0.00    -0.175 NA
ATOM      7  C   LIG    1       24.473 -27.365   6.292  0.00  0.00    +0.292 C 
ATOM      8  O   LIG    1       23.452 -26.893   6.773  0.00  0.00    -0.266 OA
ATOM      9  N   LIG    1       25.051 -28.621   6.274  0.00  0.00    -0.155 N 
ATOM     10  N   LIG    1       26.253 -28.699   5.550  0.00  0.00    -0.175 NA
BRANCH   9  11
ATOM     11  C   LIG    1       24.527 -29.798   6.838  0.00  0.00    +0.061 A 
ATOM     12  C   LIG    1       24.157 -30.873   6.013  0.00  0.00    +0.029 A 
ATOM     13  C   LIG    1       23.657 -32.073   6.550  0.00  0.00    -0.046 A 
ATOM     14  C   LIG    1       23.316 -33.194   5.606  0.00  0.00    +0.044 C 
ATOM     15  C   LIG    1       23.447 -32.169   7.938  0.00  0.00    -0.047 A 
ATOM     16  C   LIG    1       22.856 -33.398   8.569  0.00  0.00    +0.044 C 
ATOM     17  C   LIG    1       23.818 -31.097   8.759  0.00  0.00    +0.005 A 
ATOM     18  C   LIG    1       24.366 -29.934   8.218  0.00  0.00    +0.026 A 
ENDBRANCH   9  11
ENDBRANCH   1   6
BRANCH   1  19
ATOM     19  C   LIG    1       24.842 -23.235   6.451  0.00  0.00    +0.090 A 
ATOM     20  C   LIG    1       26.156 -22.721   6.575  0.00  0.00    +0.147 A 
ATOM     21  C   LIG    1       26.441 -21.447   7.112  0.00  0.00    +0.025 A 
ATOM     22  C   LIG    1       25.334 -20.695   7.546  0.00  0.00    +0.012 A 
ATOM     23  C   LIG    1       24.029 -21.192   7.468  0.00  0.00    +0.003 A 
ATOM     24  C   LIG    1       23.787 -22.455   6.928  0.00  0.00    +0.028 A 
BRANCH  21  25
ATOM     25  C   LIG    1       27.821 -20.897   7.217  0.00  0.00    -0.014 A 
ATOM     26  C   LIG    1       28.748 -21.430   8.132  0.00  0.00    +0.023 A 
ATOM     27  C   LIG    1       30.035 -20.900   8.286  0.00  0.00    +0.059 A 
ATOM     28  C   LIG    1       30.454 -19.859   7.456  0.00  0.00    +0.015 A 
ATOM     29  C   LIG    1       29.575 -19.337   6.509  0.00  0.00    +0.001 A 
ATOM     30  C   LIG    1       28.272 -19.842   6.403  0.00  0.00    +0.008 A 
BRANCH  27  31
ATOM     31  C   LIG    1       30.981 -21.461   9.282  0.00  0.00    +0.337 C 
ATOM     32  O   LIG    1       30.685 -22.387  10.026  0.00  0.00    -0.245 OA
BRANCH  31  33
ATOM     33  O   LIG    1       32.203 -20.891   9.272  0.00  0.00    -0.477 OA
ATOM     34  H   LIG    1       32.855 -21.315   8.678  0.00  0.00    +0.295 HD
ENDBRANCH  31  33
ENDBRANCH  27  31
ENDBRANCH  21  25
BRANCH  20  35
ATOM     35  O   LIG    1       27.196 -23.525   6.154  0.00  0.00    -0.504 OA
ATOM     36  H   LIG    1       26.872 -23.843   5.282  0.00  0.00    +0.292 HD
ENDBRANCH  20  35
ENDBRANCH   1  19
TORSDOF 7
ENDMDL
