MODEL 1
REMARK VINA RESULT:      -7.8      0.000      0.000
REMARK  Name = *****
REMARK                            x       y       z     vdW  Elec       q    Type
REMARK                         _______ _______ _______ _____ _____    ______ ____
ROOT
ATOM      1  C   LIG    1       24.129 -21.378   5.900  0.00  0.00    +0.129 C 
ATOM      2  C   LIG    1       24.841 -21.107   4.576  0.00  0.00    +0.236 C 
ATOM      3  O   LIG    1       24.293 -21.208   3.478  0.00  0.00    -0.274 OA
ATOM      4  N   LIG    1       26.165 -20.782   4.636  0.00  0.00    -0.239 N 
ATOM      5  H   LIG    1       26.615 -20.593   3.751  0.00  0.00    +0.159 HD
ATOM      6  C   LIG    1       26.800 -20.293   5.732  0.00  0.00    +0.312 C 
ATOM      7  O   LIG    1       27.862 -19.692   5.641  0.00  0.00    -0.252 OA
ATOM      8  N   LIG    1       26.163 -20.436   6.923  0.00  0.00    -0.239 N 
ATOM      9  H   LIG    1       26.612 -20.002   7.717  0.00  0.00    +0.159 HD
ATOM     10  C   LIG    1       24.845 -20.752   7.087  0.00  0.00    +0.236 C 
ATOM     11  O   LIG    1       24.313 -20.575   8.183  0.00  0.00    -0.274 OA
ENDROOT
BRANCH   1  12
ATOM     12  C   LIG    1       24.049 -22.951   6.103  0.00  0.00    +0.010 C 
ATOM     13  C   LIG    1       22.713 -23.415   6.716  0.00  0.00    +0.009 C 
BRANCH  12  14
ATOM     14  C   LIG    1       25.228 -23.524   6.942  0.00  0.00    +0.004 C 
BRANCH  14  15
ATOM     15  C   LIG    1       25.639 -24.953   6.564  0.00  0.00    -0.003 C 
ATOM     16  C   LIG    1       25.311 -25.260   5.109  0.00  0.00    +0.004 C 
ENDBRANCH  14  15
ENDBRANCH  12  14
ENDBRANCH   1  12
BRANCH   1  17
ATOM     17  C   LIG    1       22.706 -20.748   5.795  0.00  0.00    +0.052 C 
BRANCH  17  19
ATOM     18  C   LIG    1       22.108 -18.708   4.448  0.00  0.00    +0.004 C 
ATOM     19  C   LIG    1       22.684 -19.259   5.527  0.00  0.00    -0.033 C 
ENDBRANCH  17  19
ENDBRANCH   1  17
TORSDOF 5
ENDMDL
MODEL 2
REMARK VINA RESULT:      -7.4      2.103      4.071
REMARK  Name = *****
REMARK                            x       y       z     vdW  Elec       q    Type
REMARK                         _______ _______ _______ _____ _____    ______ ____
ROOT
ATOM      1  C   LIG    1       25.022 -21.834   6.648  0.00  0.00    +0.129 C 
ATOM      2  C   LIG    1       24.963 -22.422   5.240  0.00  0.00    +0.236 C 
ATOM      3  O   LIG    1       24.747 -21.748   4.232  0.00  0.00    -0.274 OA
ATOM      4  N   LIG    1       25.117 -23.773   5.121  0.00  0.00    -0.239 N 
ATOM      5  H   LIG    1       25.089 -24.141   4.180  0.00  0.00    +0.159 HD
ATOM      6  C   LIG    1       25.700 -24.576   6.047  0.00  0.00    +0.312 C 
ATOM      7  O   LIG    1       26.131 -25.683   5.753  0.00  0.00    -0.252 OA
ATOM      8  N   LIG    1       25.850 -24.062   7.295  0.00  0.00    -0.239 N 
ATOM      9  H   LIG    1       26.352 -24.643   7.952  0.00  0.00    +0.159 HD
ATOM     10  C   LIG    1       25.744 -22.743   7.631  0.00  0.00    +0.236 C 
ATOM     11  O   LIG    1       26.177 -22.359   8.718  0.00  0.00    -0.274 OA
ENDROOT
BRANCH   1  12
ATOM     12  C   LIG    1       23.532 -21.599   7.145  0.00  0.00    +0.010 C 
ATOM     13  C   LIG    1       22.570 -22.730   6.732  0.00  0.00    +0.009 C 
BRANCH  12  14
ATOM     14  C   LIG    1       22.941 -20.230   6.696  0.00  0.00    +0.004 C 
BRANCH  14  15
ATOM     15  C   LIG    1       22.257 -20.256   5.323  0.00  0.00    -0.003 C 
ATOM     16  C   LIG    1       22.449 -18.942   4.580  0.00  0.00    +0.004 C 
ENDBRANCH  14  15
ENDBRANCH  12  14
ENDBRANCH   1  12
BRANCH   1  17
ATOM     17  C   LIG    1       25.806 -20.489   6.554  0.00  0.00    +0.052 C 
BRANCH  17  19
ATOM     18  C   LIG    1       28.257 -20.058   6.928  0.00  0.00    +0.004 C 
ATOM     19  C   LIG    1       27.275 -20.627   6.215  0.00  0.00    -0.033 C 
ENDBRANCH  17  19
ENDBRANCH   1  17
TORSDOF 5
ENDMDL
MODEL 3
REMARK VINA RESULT:      -7.3      1.325      1.515
REMARK  Name = *****
REMARK                            x       y       z     vdW  Elec       q    Type
REMARK                         _______ _______ _______ _____ _____    ______ ____
ROOT
ATOM      1  C   LIG    1       24.193 -21.788   6.175  0.00  0.00    +0.129 C 
ATOM      2  C   LIG    1       25.448 -21.078   5.671  0.00  0.00    +0.236 C 
ATOM      3  O   LIG    1       25.658 -20.833   4.483  0.00  0.00    -0.274 OA
ATOM      4  N   LIG    1       26.393 -20.749   6.600  0.00  0.00    -0.239 N 
ATOM      5  H   LIG    1       27.209 -20.267   6.249  0.00  0.00    +0.159 HD
ATOM      6  C   LIG    1       26.166 -20.623   7.932  0.00  0.00    +0.312 C 
ATOM      7  O   LIG    1       26.927 -19.993   8.654  0.00  0.00    -0.252 OA
ATOM      8  N   LIG    1       25.018 -21.167   8.412  0.00  0.00    -0.239 N 
ATOM      9  H   LIG    1       24.828 -21.002   9.390  0.00  0.00    +0.159 HD
ATOM     10  C   LIG    1       23.949 -21.561   7.659  0.00  0.00    +0.236 C 
ATOM     11  O   LIG    1       22.866 -21.767   8.208  0.00  0.00    -0.274 OA
ENDROOT
BRANCH   1  12
ATOM     12  C   LIG    1       24.363 -23.343   5.901  0.00  0.00    +0.010 C 
ATOM     13  C   LIG    1       23.227 -24.191   6.505  0.00  0.00    +0.009 C 
BRANCH  12  14
ATOM     14  C   LIG    1       25.735 -23.905   6.377  0.00  0.00    +0.004 C 
BRANCH  14  15
ATOM     15  C   LIG    1       25.691 -25.363   6.851  0.00  0.00    -0.003 C 
ATOM     16  C   LIG    1       26.304 -26.303   5.822  0.00  0.00    +0.004 C 
ENDBRANCH  14  15
ENDBRANCH  12  14
ENDBRANCH   1  12
BRANCH   1  17
ATOM     17  C   LIG    1       22.983 -21.202   5.382  0.00  0.00    +0.052 C 
BRANCH  17  19
ATOM     18  C   LIG    1       22.342 -18.900   4.598  0.00  0.00    +0.004 C 
ATOM     19  C   LIG    1       22.747 -19.721   5.577  0.00  0.00    -0.033 C 
ENDBRANCH  17  19
ENDBRANCH   1  17
TORSDOF 5
ENDMDL
MODEL 4
REMARK VINA RESULT:      -7.2      1.140      4.289
REMARK  Name = *****
REMARK                            x       y       z     vdW  Elec       q    Type
REMARK                         _______ _______ _______ _____ _____    ______ ____
ROOT
ATOM      1  C   LIG    1       24.703 -22.225   6.892  0.00  0.00    +0.129 C 
ATOM      2  C   LIG    1       25.617 -21.556   7.916  0.00  0.00    +0.236 C 
ATOM      3  O   LIG    1       25.623 -21.847   9.113  0.00  0.00    -0.274 OA
ATOM      4  N   LIG    1       26.429 -20.555   7.467  0.00  0.00    -0.239 N 
ATOM      5  H   LIG    1       27.037 -20.134   8.156  0.00  0.00    +0.159 HD
ATOM      6  C   LIG    1       26.795 -20.369   6.173  0.00  0.00    +0.312 C 
ATOM      7  O   LIG    1       27.779 -19.706   5.875  0.00  0.00    -0.252 OA
ATOM      8  N   LIG    1       26.060 -21.014   5.230  0.00  0.00    -0.239 N 
ATOM      9  H   LIG    1       26.389 -20.926   4.279  0.00  0.00    +0.159 HD
ATOM     10  C   LIG    1       25.193 -22.043   5.464  0.00  0.00    +0.236 C 
ATOM     11  O   LIG    1       24.806 -22.733   4.520  0.00  0.00    -0.274 OA
ENDROOT
BRANCH   1  12
ATOM     12  C   LIG    1       23.255 -21.590   7.037  0.00  0.00    +0.010 C 
ATOM     13  C   LIG    1       22.136 -22.509   6.507  0.00  0.00    +0.009 C 
BRANCH  12  14
ATOM     14  C   LIG    1       23.128 -20.188   6.373  0.00  0.00    +0.004 C 
BRANCH  14  15
ATOM     15  C   LIG    1       22.321 -20.176   5.068  0.00  0.00    -0.003 C 
ATOM     16  C   LIG    1       22.258 -18.779   4.465  0.00  0.00    +0.004 C 
ENDBRANCH  14  15
ENDBRANCH  12  14
ENDBRANCH   1  12
BRANCH   1  17
ATOM     17  C   LIG    1       24.687 -23.751   7.216  0.00  0.00    +0.052 C 
BRANCH  17  19
ATOM     18  C   LIG    1       25.967 -25.715   6.303  0.00  0.00    +0.004 C 
ATOM     19  C   LIG    1       25.955 -24.495   6.857  0.00  0.00    -0.033 C 
ENDBRANCH  17  19
ENDBRANCH   1  17
TORSDOF 5
ENDMDL
MODEL 5
REMARK VINA RESULT:      -7.1      1.965      3.902
REMARK  Name = *****
REMARK                            x       y       z     vdW  Elec       q    Type
REMARK                         _______ _______ _______ _____ _____    ______ ____
ROOT
ATOM      1  C   LIG    1       23.922 -21.359   5.727  0.00  0.00    +0.129 C 
ATOM      2  C   LIG    1       23.773 -22.148   7.025  0.00  0.00    +0.236 C 
ATOM      3  O   LIG    1       23.145 -21.736   8.001  0.00  0.00    -0.274 OA
ATOM      4  N   LIG    1       24.414 -23.351   7.102  0.00  0.00    -0.239 N 
ATOM      5  H   LIG    1       24.292 -23.864   7.964  0.00  0.00    +0.159 HD
ATOM      6  C   LIG    1       24.825 -24.085   6.036  0.00  0.00    +0.312 C 
ATOM      7  O   LIG    1       25.059 -25.281   6.136  0.00  0.00    -0.252 OA
ATOM      8  N   LIG    1       24.892 -23.443   4.840  0.00  0.00    -0.239 N 
ATOM      9  H   LIG    1       25.127 -24.020   4.045  0.00  0.00    +0.159 HD
ATOM     10  C   LIG    1       24.319 -22.238   4.551  0.00  0.00    +0.236 C 
ATOM     11  O   LIG    1       24.199 -21.894   3.375  0.00  0.00    -0.274 OA
ENDROOT
BRANCH   1  12
ATOM     12  C   LIG    1       25.034 -20.248   5.951  0.00  0.00    +0.010 C 
ATOM     13  C   LIG    1       25.900 -19.997   4.701  0.00  0.00    +0.009 C 
BRANCH  12  14
ATOM     14  C   LIG    1       25.959 -20.539   7.169  0.00  0.00    +0.004 C 
BRANCH  14  15
ATOM     15  C   LIG    1       27.408 -20.880   6.797  0.00  0.00    -0.003 C 
ATOM     16  C   LIG    1       28.400 -20.127   7.672  0.00  0.00    +0.004 C 
ENDBRANCH  14  15
ENDBRANCH  12  14
ENDBRANCH   1  12
BRANCH   1  17
ATOM     17  C   LIG    1       22.535 -20.717   5.415  0.00  0.00    +0.052 C 
BRANCH  17  19
ATOM     18  C   LIG    1       22.168 -18.513   4.259  0.00  0.00    +0.004 C 
ATOM     19  C   LIG    1       22.530 -19.206   5.348  0.00  0.00    -0.033 C 
ENDBRANCH  17  19
ENDBRANCH   1  17
TORSDOF 5
ENDMDL
MODEL 6
REMARK VINA RESULT:      -6.6      1.883      3.773
REMARK  Name = *****
REMARK                            x       y       z     vdW  Elec       q    Type
REMARK                         _______ _______ _______ _____ _____    ______ ____
ROOT
ATOM      1  C   LIG    1       25.011 -21.039   6.356  0.00  0.00    +0.129 C 
ATOM      2  C   LIG    1       23.586 -20.878   6.876  0.00  0.00    +0.236 C 
ATOM      3  O   LIG    1       23.231 -21.223   8.004  0.00  0.00    -0.274 OA
ATOM      4  N   LIG    1       22.661 -20.362   6.014  0.00  0.00    -0.239 N 
ATOM      5  H   LIG    1       21.727 -20.250   6.381  0.00  0.00    +0.159 HD
ATOM      6  C   LIG    1       22.950 -19.624   4.911  0.00  0.00    +0.312 C 
ATOM      7  O   LIG    1       22.113 -18.901   4.389  0.00  0.00    -0.252 OA
ATOM      8  N   LIG    1       24.231 -19.672   4.461  0.00  0.00    -0.239 N 
ATOM      9  H   LIG    1       24.447 -19.061   3.686  0.00  0.00    +0.159 HD
ATOM     10  C   LIG    1       25.303 -20.143   5.162  0.00  0.00    +0.236 C 
ATOM     11  O   LIG    1       26.442 -19.876   4.776  0.00  0.00    -0.274 OA
ENDROOT
BRANCH   1  12
ATOM     12  C   LIG    1       25.213 -22.557   5.935  0.00  0.00    +0.010 C 
ATOM     13  C   LIG    1       24.566 -22.901   4.579  0.00  0.00    +0.009 C 
BRANCH  12  14
ATOM     14  C   LIG    1       24.717 -23.566   7.012  0.00  0.00    +0.004 C 
BRANCH  14  15
ATOM     15  C   LIG    1       23.662 -24.560   6.511  0.00  0.00    -0.003 C 
ATOM     16  C   LIG    1       24.266 -25.936   6.265  0.00  0.00    +0.004 C 
ENDBRANCH  14  15
ENDBRANCH  12  14
ENDBRANCH   1  12
BRANCH   1  17
ATOM     17  C   LIG    1       25.974 -20.641   7.517  0.00  0.00    +0.052 C 
BRANCH  17  19
ATOM     18  C   LIG    1       28.454 -21.060   7.451  0.00  0.00    +0.004 C 
ATOM     19  C   LIG    1       27.207 -21.508   7.652  0.00  0.00    -0.033 C 
ENDBRANCH  17  19
ENDBRANCH   1  17
TORSDOF 5
ENDMDL
MODEL 7
REMARK VINA RESULT:      -6.6      1.765      4.405
REMARK  Name = *****
REMARK                            x       y       z     vdW  Elec       q    Type
REMARK                         _______ _______ _______ _____ _____    ______ ____
ROOT
ATOM      1  C   LIG    1       24.538 -21.360   5.819  0.00  0.00    +0.129 C 
ATOM      2  C   LIG    1       23.878 -21.807   7.121  0.00  0.00    +0.236 C 
ATOM      3  O   LIG    1       22.941 -22.605   7.167  0.00  0.00    -0.274 OA
ATOM      4  N   LIG    1       24.336 -21.246   8.278  0.00  0.00    -0.239 N 
ATOM      5  H   LIG    1       23.896 -21.566   9.130  0.00  0.00    +0.159 HD
ATOM      6  C   LIG    1       25.549 -20.655   8.431  0.00  0.00    +0.312 C 
ATOM      7  O   LIG    1       26.049 -20.497   9.536  0.00  0.00    -0.252 OA
ATOM      8  N   LIG    1       26.212 -20.315   7.295  0.00  0.00    -0.239 N 
ATOM      9  H   LIG    1       27.143 -19.945   7.423  0.00  0.00    +0.159 HD
ATOM     10  C   LIG    1       25.921 -20.766   6.039  0.00  0.00    +0.236 C 
ATOM     11  O   LIG    1       26.750 -20.625   5.140  0.00  0.00    -0.274 OA
ENDROOT
BRANCH   1  12
ATOM     12  C   LIG    1       23.600 -20.272   5.140  0.00  0.00    +0.010 C 
ATOM     13  C   LIG    1       22.136 -20.735   5.006  0.00  0.00    +0.009 C 
BRANCH  12  14
ATOM     14  C   LIG    1       24.119 -19.793   3.753  0.00  0.00    +0.004 C 
BRANCH  14  15
ATOM     15  C   LIG    1       24.329 -18.277   3.645  0.00  0.00    -0.003 C 
ATOM     16  C   LIG    1       25.775 -17.938   3.312  0.00  0.00    +0.004 C 
ENDBRANCH  14  15
ENDBRANCH  12  14
ENDBRANCH   1  12
BRANCH   1  17
ATOM     17  C   LIG    1       24.684 -22.624   4.918  0.00  0.00    +0.052 C 
BRANCH  17  19
ATOM     18  C   LIG    1       25.070 -25.098   5.160  0.00  0.00    +0.004 C 
ATOM     19  C   LIG    1       25.233 -23.849   5.616  0.00  0.00    -0.033 C 
ENDBRANCH  17  19
ENDBRANCH   1  17
TORSDOF 5
ENDMDL
MODEL 8
REMARK VINA RESULT:      -6.4      2.238      4.609
REMARK  Name = *****
REMARK                            x       y       z     vdW  Elec       q    Type
REMARK                         _______ _______ _______ _____ _____    ______ ____
ROOT
ATOM      1  C   LIG    1       23.866 -21.734   6.232  0.00  0.00    +0.129 C 
ATOM      2  C   LIG    1       25.246 -22.078   5.679  0.00  0.00    +0.236 C 
ATOM      3  O   LIG    1       26.155 -21.255   5.561  0.00  0.00    -0.274 OA
ATOM      4  N   LIG    1       25.447 -23.360   5.256  0.00  0.00    -0.239 N 
ATOM      5  H   LIG    1       26.371 -23.572   4.905  0.00  0.00    +0.159 HD
ATOM      6  C   LIG    1       24.705 -24.432   5.636  0.00  0.00    +0.312 C 
ATOM      7  O   LIG    1       25.128 -25.575   5.525  0.00  0.00    -0.252 OA
ATOM      8  N   LIG    1       23.502 -24.171   6.212  0.00  0.00    -0.239 N 
ATOM      9  H   LIG    1       22.996 -24.974   6.556  0.00  0.00    +0.159 HD
ATOM     10  C   LIG    1       23.103 -22.962   6.705  0.00  0.00    +0.236 C 
ATOM     11  O   LIG    1       22.126 -22.908   7.453  0.00  0.00    -0.274 OA
ENDROOT
BRANCH   1  12
ATOM     12  C   LIG    1       23.040 -21.012   5.084  0.00  0.00    +0.010 C 
ATOM     13  C   LIG    1       23.817 -20.904   3.757  0.00  0.00    +0.009 C 
BRANCH  12  14
ATOM     14  C   LIG    1       22.520 -19.603   5.492  0.00  0.00    +0.004 C 
BRANCH  14  15
ATOM     15  C   LIG    1       22.073 -18.727   4.315  0.00  0.00    -0.003 C 
ATOM     16  C   LIG    1       22.295 -17.249   4.604  0.00  0.00    +0.004 C 
ENDBRANCH  14  15
ENDBRANCH  12  14
ENDBRANCH   1  12
BRANCH   1  17
ATOM     17  C   LIG    1       24.082 -20.788   7.454  0.00  0.00    +0.052 C 
BRANCH  17  19
ATOM     18  C   LIG    1       26.137 -20.498   8.877  0.00  0.00    +0.004 C 
ATOM     19  C   LIG    1       25.118 -21.258   8.452  0.00  0.00    -0.033 C 
ENDBRANCH  17  19
ENDBRANCH   1  17
TORSDOF 5
ENDMDL
MODEL 9
REMARK VINA RESULT:      -6.3      4.279      6.674
REMARK  Name = *****
REMARK                            x       y       z     vdW  Elec       q    Type
REMARK                         _______ _______ _______ _____ _____    ______ ____
ROOT
ATOM      1  C   LIG    1       29.804 -19.373   7.592  0.00  0.00    +0.129 C 
ATOM      2  C   LIG    1       31.292 -19.662   7.766  0.00  0.00    +0.236 C 
ATOM      3  O   LIG    1       32.176 -18.842   7.519  0.00  0.00    -0.274 OA
ATOM      4  N   LIG    1       31.640 -20.917   8.176  0.00  0.00    -0.239 N 
ATOM      5  H   LIG    1       32.629 -21.085   8.299  0.00  0.00    +0.159 HD
ATOM      6  C   LIG    1       30.815 -21.786   8.815  0.00  0.00    +0.312 C 
ATOM      7  O   LIG    1       31.254 -22.724   9.466  0.00  0.00    -0.252 OA
ATOM      8  N   LIG    1       29.484 -21.520   8.757  0.00  0.00    -0.239 N 
ATOM      9  H   LIG    1       28.890 -22.132   9.298  0.00  0.00    +0.159 HD
ATOM     10  C   LIG    1       28.925 -20.333   8.380  0.00  0.00    +0.236 C 
ATOM     11  O   LIG    1       27.741 -20.114   8.638  0.00  0.00    -0.274 OA
ENDROOT
BRANCH   1  12
ATOM     12  C   LIG    1       29.457 -19.491   6.047  0.00  0.00    +0.010 C 
ATOM     13  C   LIG    1       29.205 -18.126   5.377  0.00  0.00    +0.009 C 
BRANCH  12  14
ATOM     14  C   LIG    1       28.255 -20.437   5.756  0.00  0.00    +0.004 C 
BRANCH  14  15
ATOM     15  C   LIG    1       27.003 -19.726   5.226  0.00  0.00    -0.003 C 
ATOM     16  C   LIG    1       25.736 -20.496   5.572  0.00  0.00    +0.004 C 
ENDBRANCH  14  15
ENDBRANCH  12  14
ENDBRANCH   1  12
BRANCH   1  17
ATOM     17  C   LIG    1       29.550 -17.927   8.121  0.00  0.00    +0.052 C 
BRANCH  17  19
ATOM     18  C   LIG    1       30.752 -16.670   9.938  0.00  0.00    +0.004 C 
ATOM     19  C   LIG    1       29.968 -17.687   9.555  0.00  0.00    -0.033 C 
ENDBRANCH  17  19
ENDBRANCH   1  17
TORSDOF 5
ENDMDL
