MODEL 1
REMARK VINA RESULT:      -6.1      0.000      0.000
REMARK  Name = *****
REMARK                            x       y       z     vdW  Elec       q    Type
REMARK                         _______ _______ _______ _____ _____    ______ ____
ROOT
ATOM      1  CA  LIG    1       25.240 -28.139   5.992  0.00  0.00    +0.191 C 
ATOM      2  C   LIG    1       26.118 -28.930   7.015  0.00  0.00    +0.169 C 
ATOM      3  N   LIG    1       25.111 -29.970   6.983  0.00  0.00    -0.249 N 
ATOM      4  CA  LIG    1       25.017 -31.027   7.858  0.00  0.00    +0.123 C 
ATOM      5  C   LIG    1       25.732 -31.005   9.021  0.00  0.00    -0.021 C 
ATOM      6  C   LIG    1       26.581 -29.819   9.464  0.00  0.00    +0.104 C 
ATOM      7  S   LIG    1       26.188 -28.239   8.679  0.00  0.00    -0.131 S 
ATOM      8  C   LIG    1       24.284 -29.360   6.109  0.00  0.00    +0.244 C 
ATOM      9  O   LIG    1       23.190 -29.704   5.710  0.00  0.00    -0.273 OA
ENDROOT
BRANCH   1  11
ATOM     10  C   LIG    1       25.343 -25.650   6.173  0.00  0.00    +0.268 C 
ATOM     11  N   LIG    1       24.677 -26.835   6.416  0.00  0.00    -0.296 N 
ATOM     12  H   LIG    1       23.758 -26.760   6.852  0.00  0.00    +0.150 HD
ATOM     13  O   LIG    1       26.459 -25.602   5.678  0.00  0.00    -0.268 OA
BRANCH  10  15
ATOM     14  N   LIG    1       23.278 -24.551   6.730  0.00  0.00    -0.078 NA
ATOM     15  C   LIG    1       24.572 -24.381   6.596  0.00  0.00    +0.190 C 
BRANCH  15  16
ATOM     16  C   LIG    1       25.289 -23.120   6.845  0.00  0.00    +0.107 A 
ATOM     17  N   LIG    1       25.586 -22.211   5.826  0.00  0.00    -0.223 NA
ATOM     18  C   LIG    1       26.226 -21.171   6.288  0.00  0.00    +0.156 A 
ATOM     19  S   LIG    1       26.506 -21.175   7.977  0.00  0.00    -0.060 S 
ATOM     20  C   LIG    1       25.728 -22.696   8.090  0.00  0.00    +0.078 A 
BRANCH  18  21
ATOM     21  N   LIG    1       26.627 -20.155   5.511  0.00  0.00    -0.338 N 
ATOM     22  H   LIG    1       26.752 -20.375   4.530  0.00  0.00    +0.144 HD
ATOM     23  H   LIG    1       26.263 -19.231   5.699  0.00  0.00    +0.144 HD
ENDBRANCH  18  21
ENDBRANCH  15  16
BRANCH  14  25
ATOM     24  C   LIG    1       22.065 -22.779   5.884  0.00  0.00    +0.313 C 
ATOM     25  O   LIG    1       22.606 -23.366   7.055  0.00  0.00    -0.396 OA
ENDBRANCH  14  25
ENDBRANCH  10  15
ENDBRANCH   1  11
BRANCH   4  26
ATOM     26  C   LIG    1       24.120 -32.202   7.502  0.00  0.00    +0.351 C 
ATOM     27  O   LIG    1       24.494 -33.176   6.868  0.00  0.00    -0.244 OA
BRANCH  26  28
ATOM     28  OXT LIG    1       22.815 -32.075   7.823  0.00  0.00    -0.476 OA
ATOM     29  HXT LIG    1       22.242 -31.669   7.134  0.00  0.00    +0.295 HD
ENDBRANCH  26  28
ENDBRANCH   4  26
BRANCH   5  30
ATOM     30  C   LIG    1       25.830 -32.128  10.069  0.00  0.00    +0.111 C 
BRANCH  30  31
ATOM     31  S   LIG    1       25.326 -31.512  11.714  0.00  0.00    -0.082 S 
BRANCH  31  32
ATOM     32  C   LIG    1       23.600 -31.165  11.471  0.00  0.00    +0.189 A 
ATOM     33  N   LIG    1       23.081 -29.942  11.931  0.00  0.00    -0.241 N 
ATOM     34  C   LIG    1       23.894 -28.908  12.569  0.00  0.00    +0.175 C 
ATOM     35  N   LIG    1       21.753 -29.556  11.775  0.00  0.00    -0.126 NA
ATOM     36  C   LIG    1       21.018 -30.435  11.179  0.00  0.00    +0.298 A 
ATOM     37  C   LIG    1       21.582 -31.772  10.704  0.00  0.00    +0.336 A 
ATOM     38  O   LIG    1       20.771 -32.502  10.137  0.00  0.00    -0.260 OA
ATOM     39  N   LIG    1       22.905 -32.098  10.894  0.00  0.00    -0.179 NA
BRANCH  36  40
ATOM     40  O   LIG    1       19.717 -30.246  10.923  0.00  0.00    -0.488 OA
ATOM     41  H   LIG    1       19.217 -31.061  11.128  0.00  0.00    +0.294 HD
ENDBRANCH  36  40
ENDBRANCH  31  32
ENDBRANCH  30  31
ENDBRANCH   5  30
TORSDOF 11
ENDMDL
MODEL 2
REMARK VINA RESULT:      -5.8      1.864      2.363
REMARK  Name = *****
REMARK                            x       y       z     vdW  Elec       q    Type
REMARK                         _______ _______ _______ _____ _____    ______ ____
ROOT
ATOM      1  CA  LIG    1       26.383 -26.556   5.939  0.00  0.00    +0.191 C 
ATOM      2  C   LIG    1       26.690 -27.717   6.939  0.00  0.00    +0.169 C 
ATOM      3  N   LIG    1       25.542 -28.410   6.393  0.00  0.00    -0.249 N 
ATOM      4  CA  LIG    1       24.941 -29.524   6.932  0.00  0.00    +0.123 C 
ATOM      5  C   LIG    1       25.233 -29.893   8.214  0.00  0.00    -0.021 C 
ATOM      6  C   LIG    1       26.138 -29.084   9.137  0.00  0.00    +0.104 C 
ATOM      7  S   LIG    1       26.376 -27.353   8.677  0.00  0.00    -0.131 S 
ATOM      8  C   LIG    1       25.194 -27.458   5.502  0.00  0.00    +0.244 C 
ATOM      9  O   LIG    1       24.237 -27.409   4.756  0.00  0.00    -0.273 OA
ENDROOT
BRANCH   1  11
ATOM     10  C   LIG    1       25.349 -24.292   5.739  0.00  0.00    +0.268 C 
ATOM     11  N   LIG    1       26.018 -25.232   6.496  0.00  0.00    -0.296 N 
ATOM     12  H   LIG    1       26.199 -24.987   7.470  0.00  0.00    +0.150 HD
ATOM     13  O   LIG    1       25.091 -24.449   4.555  0.00  0.00    -0.268 OA
BRANCH  10  15
ATOM     14  N   LIG    1       25.360 -22.979   7.753  0.00  0.00    -0.078 NA
ATOM     15  C   LIG    1       24.965 -23.006   6.504  0.00  0.00    +0.190 C 
BRANCH  15  16
ATOM     16  C   LIG    1       24.239 -21.921   5.822  0.00  0.00    +0.107 A 
ATOM     17  N   LIG    1       24.874 -21.008   4.976  0.00  0.00    -0.223 NA
ATOM     18  C   LIG    1       24.026 -20.141   4.491  0.00  0.00    +0.156 A 
ATOM     19  S   LIG    1       22.401 -20.354   4.980  0.00  0.00    -0.060 S 
ATOM     20  C   LIG    1       22.875 -21.697   5.931  0.00  0.00    +0.078 A 
BRANCH  18  21
ATOM     21  N   LIG    1       24.386 -19.158   3.653  0.00  0.00    -0.338 N 
ATOM     22  H   LIG    1       25.383 -19.036   3.521  0.00  0.00    +0.144 HD
ATOM     23  H   LIG    1       23.823 -18.996   2.830  0.00  0.00    +0.144 HD
ENDBRANCH  18  21
ENDBRANCH  15  16
BRANCH  14  25
ATOM     24  C   LIG    1       26.044 -20.958   8.633  0.00  0.00    +0.313 C 
ATOM     25  O   LIG    1       24.942 -21.826   8.430  0.00  0.00    -0.396 OA
ENDBRANCH  14  25
ENDBRANCH  10  15
ENDBRANCH   1  11
BRANCH   4  26
ATOM     26  C   LIG    1       23.969 -30.324   6.080  0.00  0.00    +0.351 C 
ATOM     27  O   LIG    1       24.081 -31.520   5.859  0.00  0.00    -0.244 OA
BRANCH  26  28
ATOM     28  OXT LIG    1       23.002 -29.617   5.455  0.00  0.00    -0.476 OA
ATOM     29  HXT LIG    1       22.519 -30.091   4.741  0.00  0.00    +0.295 HD
ENDBRANCH  26  28
ENDBRANCH   4  26
BRANCH   5  30
ATOM     30  C   LIG    1       24.741 -31.152   8.950  0.00  0.00    +0.111 C 
BRANCH  30  31
ATOM     31  S   LIG    1       25.054 -31.005  10.745  0.00  0.00    -0.082 S 
BRANCH  31  32
ATOM     32  C   LIG    1       23.546 -30.268  11.328  0.00  0.00    +0.189 A 
ATOM     33  N   LIG    1       23.619 -29.153  12.181  0.00  0.00    -0.241 N 
ATOM     34  C   LIG    1       24.877 -28.529  12.589  0.00  0.00    +0.175 C 
ATOM     35  N   LIG    1       22.506 -28.484  12.680  0.00  0.00    -0.126 NA
ATOM     36  C   LIG    1       21.378 -28.990  12.305  0.00  0.00    +0.298 A 
ATOM     37  C   LIG    1       21.304 -30.217  11.400  0.00  0.00    +0.336 A 
ATOM     38  O   LIG    1       20.165 -30.576  11.109  0.00  0.00    -0.260 OA
ATOM     39  N   LIG    1       22.444 -30.839  10.943  0.00  0.00    -0.179 NA
BRANCH  36  40
ATOM     40  O   LIG    1       20.194 -28.482  12.667  0.00  0.00    -0.488 OA
ATOM     41  H   LIG    1       20.201 -27.511  12.553  0.00  0.00    +0.294 HD
ENDBRANCH  36  40
ENDBRANCH  31  32
ENDBRANCH  30  31
ENDBRANCH   5  30
TORSDOF 11
ENDMDL
MODEL 3
REMARK VINA RESULT:      -5.6      2.513      2.873
REMARK  Name = *****
REMARK                            x       y       z     vdW  Elec       q    Type
REMARK                         _______ _______ _______ _____ _____    ______ ____
ROOT
ATOM      1  CA  LIG    1       25.269 -28.165   6.071  0.00  0.00    +0.191 C 
ATOM      2  C   LIG    1       26.134 -28.966   7.096  0.00  0.00    +0.169 C 
ATOM      3  N   LIG    1       25.117 -29.996   7.058  0.00  0.00    -0.249 N 
ATOM      4  CA  LIG    1       25.009 -31.053   7.930  0.00  0.00    +0.123 C 
ATOM      5  C   LIG    1       25.719 -31.041   9.097  0.00  0.00    -0.021 C 
ATOM      6  C   LIG    1       26.578 -29.865   9.546  0.00  0.00    +0.104 C 
ATOM      7  S   LIG    1       26.204 -28.279   8.762  0.00  0.00    -0.131 S 
ATOM      8  C   LIG    1       24.301 -29.376   6.181  0.00  0.00    +0.244 C 
ATOM      9  O   LIG    1       23.205 -29.708   5.777  0.00  0.00    -0.273 OA
ENDROOT
BRANCH   1  11
ATOM     10  C   LIG    1       25.319 -25.668   6.129  0.00  0.00    +0.268 C 
ATOM     11  N   LIG    1       24.717 -26.855   6.495  0.00  0.00    -0.296 N 
ATOM     12  H   LIG    1       23.848 -26.782   7.024  0.00  0.00    +0.150 HD
ATOM     13  O   LIG    1       26.374 -25.616   5.515  0.00  0.00    -0.268 OA
BRANCH  10  15
ATOM     14  N   LIG    1       23.264 -24.554   6.691  0.00  0.00    -0.078 NA
ATOM     15  C   LIG    1       24.561 -24.400   6.577  0.00  0.00    +0.190 C 
BRANCH  15  16
ATOM     16  C   LIG    1       25.294 -23.155   6.867  0.00  0.00    +0.107 A 
ATOM     17  N   LIG    1       25.620 -22.227   5.874  0.00  0.00    -0.223 NA
ATOM     18  C   LIG    1       26.269 -21.209   6.371  0.00  0.00    +0.156 A 
ATOM     19  S   LIG    1       26.521 -21.257   8.063  0.00  0.00    -0.060 S 
ATOM     20  C   LIG    1       25.719 -22.768   8.128  0.00  0.00    +0.078 A 
BRANCH  18  21
ATOM     21  N   LIG    1       26.697 -20.181   5.625  0.00  0.00    -0.338 N 
ATOM     22  H   LIG    1       26.718 -19.280   6.088  0.00  0.00    +0.144 HD
ATOM     23  H   LIG    1       27.449 -20.342   4.969  0.00  0.00    +0.144 HD
ENDBRANCH  18  21
ENDBRANCH  15  16
BRANCH  14  25
ATOM     24  C   LIG    1       22.138 -22.713   5.873  0.00  0.00    +0.313 C 
ATOM     25  O   LIG    1       22.604 -23.368   7.040  0.00  0.00    -0.396 OA
ENDBRANCH  14  25
ENDBRANCH  10  15
ENDBRANCH   1  11
BRANCH   4  26
ATOM     26  C   LIG    1       24.102 -32.219   7.568  0.00  0.00    +0.351 C 
ATOM     27  O   LIG    1       24.458 -33.176   6.897  0.00  0.00    -0.244 OA
BRANCH  26  28
ATOM     28  OXT LIG    1       22.806 -32.102   7.928  0.00  0.00    -0.476 OA
ATOM     29  HXT LIG    1       22.202 -32.798   7.586  0.00  0.00    +0.295 HD
ENDBRANCH  26  28
ENDBRANCH   4  26
BRANCH   5  30
ATOM     30  C   LIG    1       25.801 -32.167  10.143  0.00  0.00    +0.111 C 
BRANCH  30  31
ATOM     31  S   LIG    1       24.546 -31.919  11.448  0.00  0.00    -0.082 S 
BRANCH  31  32
ATOM     32  C   LIG    1       25.462 -31.026  12.682  0.00  0.00    +0.189 A 
ATOM     33  N   LIG    1       25.090 -29.703  12.980  0.00  0.00    -0.241 N 
ATOM     34  C   LIG    1       23.954 -29.023  12.358  0.00  0.00    +0.175 C 
ATOM     35  N   LIG    1       25.720 -28.919  13.941  0.00  0.00    -0.126 NA
ATOM     36  C   LIG    1       26.704 -29.507  14.535  0.00  0.00    +0.298 A 
ATOM     37  C   LIG    1       27.120 -30.935  14.189  0.00  0.00    +0.336 A 
ATOM     38  O   LIG    1       28.061 -31.372  14.849  0.00  0.00    -0.260 OA
ATOM     39  N   LIG    1       26.459 -31.658  13.223  0.00  0.00    -0.179 NA
BRANCH  36  40
ATOM     40  O   LIG    1       27.428 -28.925  15.499  0.00  0.00    -0.488 OA
ATOM     41  H   LIG    1       27.406 -29.474  16.308  0.00  0.00    +0.294 HD
ENDBRANCH  36  40
ENDBRANCH  31  32
ENDBRANCH  30  31
ENDBRANCH   5  30
TORSDOF 11
ENDMDL
MODEL 4
REMARK VINA RESULT:      -5.6      4.646      8.166
REMARK  Name = *****
REMARK                            x       y       z     vdW  Elec       q    Type
REMARK                         _______ _______ _______ _____ _____    ______ ____
ROOT
ATOM      1  CA  LIG    1       24.145 -30.082  13.886  0.00  0.00    +0.191 C 
ATOM      2  C   LIG    1       24.796 -31.245  13.071  0.00  0.00    +0.169 C 
ATOM      3  N   LIG    1       25.538 -30.239  12.341  0.00  0.00    -0.249 N 
ATOM      4  CA  LIG    1       26.252 -30.445  11.184  0.00  0.00    +0.123 C 
ATOM      5  C   LIG    1       26.069 -31.598  10.475  0.00  0.00    -0.021 C 
ATOM      6  C   LIG    1       25.039 -32.658  10.846  0.00  0.00    +0.104 C 
ATOM      7  S   LIG    1       23.699 -32.103  11.925  0.00  0.00    -0.131 S 
ATOM      8  C   LIG    1       25.025 -29.170  12.985  0.00  0.00    +0.244 C 
ATOM      9  O   LIG    1       25.203 -27.986  12.782  0.00  0.00    -0.273 OA
ENDROOT
BRANCH   1  11
ATOM     10  C   LIG    1       22.037 -28.868  14.452  0.00  0.00    +0.268 C 
ATOM     11  N   LIG    1       22.681 -29.883  13.772  0.00  0.00    -0.296 N 
ATOM     12  H   LIG    1       22.105 -30.451  13.150  0.00  0.00    +0.150 HD
ATOM     13  O   LIG    1       22.605 -28.131  15.244  0.00  0.00    -0.268 OA
BRANCH  10  15
ATOM     14  N   LIG    1       19.987 -27.613  14.521  0.00  0.00    -0.078 NA
ATOM     15  C   LIG    1       20.528 -28.746  14.146  0.00  0.00    +0.190 C 
BRANCH  15  16
ATOM     16  C   LIG    1       19.816 -29.837  13.459  0.00  0.00    +0.107 A 
ATOM     17  N   LIG    1       20.089 -30.197  12.137  0.00  0.00    -0.223 NA
ATOM     18  C   LIG    1       19.332 -31.188  11.748  0.00  0.00    +0.156 A 
ATOM     19  S   LIG    1       18.252 -31.791  12.931  0.00  0.00    -0.060 S 
ATOM     20  C   LIG    1       18.830 -30.620  14.038  0.00  0.00    +0.078 A 
BRANCH  18  21
ATOM     21  N   LIG    1       19.397 -31.718  10.519  0.00  0.00    -0.338 N 
ATOM     22  H   LIG    1       18.513 -32.010  10.119  0.00  0.00    +0.144 HD
ATOM     23  H   LIG    1       20.056 -31.328   9.860  0.00  0.00    +0.144 HD
ENDBRANCH  18  21
ENDBRANCH  15  16
BRANCH  14  25
ATOM     24  C   LIG    1       18.207 -26.228  14.031  0.00  0.00    +0.313 C 
ATOM     25  O   LIG    1       18.608 -27.564  14.282  0.00  0.00    -0.396 OA
ENDBRANCH  14  25
ENDBRANCH  10  15
ENDBRANCH   1  11
BRANCH   4  26
ATOM     26  C   LIG    1       27.237 -29.381  10.725  0.00  0.00    +0.351 C 
ATOM     27  O   LIG    1       28.423 -29.378  11.020  0.00  0.00    -0.244 OA
BRANCH  26  28
ATOM     28  OXT LIG    1       26.715 -28.335  10.050  0.00  0.00    -0.476 OA
ATOM     29  HXT LIG    1       25.739 -28.350   9.925  0.00  0.00    +0.295 HD
ENDBRANCH  26  28
ENDBRANCH   4  26
BRANCH   5  30
ATOM     30  C   LIG    1       26.841 -32.046   9.221  0.00  0.00    +0.111 C 
BRANCH  30  31
ATOM     31  S   LIG    1       25.683 -32.643   7.939  0.00  0.00    -0.082 S 
BRANCH  31  32
ATOM     32  C   LIG    1       25.109 -31.124   7.217  0.00  0.00    +0.189 A 
ATOM     33  N   LIG    1       24.063 -31.170   6.279  0.00  0.00    -0.241 N 
ATOM     34  C   LIG    1       23.381 -32.403   5.888  0.00  0.00    +0.175 C 
ATOM     35  N   LIG    1       23.520 -30.044   5.667  0.00  0.00    -0.126 NA
ATOM     36  C   LIG    1       24.078 -28.935   6.022  0.00  0.00    +0.298 A 
ATOM     37  C   LIG    1       25.231 -28.893   7.022  0.00  0.00    +0.336 A 
ATOM     38  O   LIG    1       25.650 -27.766   7.280  0.00  0.00    -0.260 OA
ATOM     39  N   LIG    1       25.728 -30.044   7.589  0.00  0.00    -0.179 NA
BRANCH  36  40
ATOM     40  O   LIG    1       23.690 -27.741   5.556  0.00  0.00    -0.488 OA
ATOM     41  H   LIG    1       22.927 -27.852   4.956  0.00  0.00    +0.294 HD
ENDBRANCH  36  40
ENDBRANCH  31  32
ENDBRANCH  30  31
ENDBRANCH   5  30
TORSDOF 11
ENDMDL
MODEL 5
REMARK VINA RESULT:      -5.2      4.308     10.835
REMARK  Name = *****
REMARK                            x       y       z     vdW  Elec       q    Type
REMARK                         _______ _______ _______ _____ _____    ______ ____
ROOT
ATOM      1  CA  LIG    1       24.691 -23.185   6.727  0.00  0.00    +0.191 C 
ATOM      2  C   LIG    1       25.601 -22.029   7.253  0.00  0.00    +0.169 C 
ATOM      3  N   LIG    1       25.494 -21.428   5.940  0.00  0.00    -0.249 N 
ATOM      4  CA  LIG    1       26.259 -20.389   5.464  0.00  0.00    +0.123 C 
ATOM      5  C   LIG    1       27.396 -20.029   6.129  0.00  0.00    -0.021 C 
ATOM      6  C   LIG    1       27.932 -20.778   7.344  0.00  0.00    +0.104 C 
ATOM      7  S   LIG    1       27.324 -22.468   7.552  0.00  0.00    -0.131 S 
ATOM      8  C   LIG    1       24.711 -22.383   5.395  0.00  0.00    +0.244 C 
ATOM      9  O   LIG    1       24.312 -22.498   4.254  0.00  0.00    -0.273 OA
ENDROOT
BRANCH   1  11
ATOM     10  C   LIG    1       24.480 -25.646   6.356  0.00  0.00    +0.268 C 
ATOM     11  N   LIG    1       25.262 -24.552   6.667  0.00  0.00    -0.296 N 
ATOM     12  H   LIG    1       26.259 -24.727   6.800  0.00  0.00    +0.150 HD
ATOM     13  O   LIG    1       23.271 -25.578   6.196  0.00  0.00    -0.268 OA
BRANCH  10  15
ATOM     14  N   LIG    1       25.753 -27.219   5.057  0.00  0.00    -0.078 NA
ATOM     15  C   LIG    1       25.254 -26.978   6.245  0.00  0.00    +0.190 C 
BRANCH  15  16
ATOM     16  C   LIG    1       25.410 -27.850   7.422  0.00  0.00    +0.107 A 
ATOM     17  N   LIG    1       26.420 -27.659   8.369  0.00  0.00    -0.223 NA
ATOM     18  C   LIG    1       26.356 -28.555   9.318  0.00  0.00    +0.156 A 
ATOM     19  S   LIG    1       25.077 -29.682   9.175  0.00  0.00    -0.060 S 
ATOM     20  C   LIG    1       24.586 -28.923   7.721  0.00  0.00    +0.078 A 
BRANCH  18  21
ATOM     21  N   LIG    1       27.215 -28.592  10.346  0.00  0.00    -0.338 N 
ATOM     22  H   LIG    1       27.213 -27.777  10.949  0.00  0.00    +0.144 HD
ATOM     23  H   LIG    1       27.366 -29.473  10.817  0.00  0.00    +0.144 HD
ENDBRANCH  18  21
ENDBRANCH  15  16
BRANCH  14  25
ATOM     24  C   LIG    1       25.453 -29.474   4.667  0.00  0.00    +0.313 C 
ATOM     25  O   LIG    1       26.395 -28.462   4.980  0.00  0.00    -0.396 OA
ENDBRANCH  14  25
ENDBRANCH  10  15
ENDBRANCH   1  11
BRANCH   4  26
ATOM     26  C   LIG    1       25.811 -19.658   4.208  0.00  0.00    +0.351 C 
ATOM     27  O   LIG    1       25.361 -18.522   4.205  0.00  0.00    -0.244 OA
BRANCH  26  28
ATOM     28  OXT LIG    1       25.819 -20.376   3.065  0.00  0.00    -0.476 OA
ATOM     29  HXT LIG    1       25.059 -20.988   2.938  0.00  0.00    +0.295 HD
ENDBRANCH  26  28
ENDBRANCH   4  26
BRANCH   5  30
ATOM     30  C   LIG    1       28.320 -18.841   5.808  0.00  0.00    +0.111 C 
BRANCH  30  31
ATOM     31  S   LIG    1       30.070 -19.308   6.058  0.00  0.00    -0.082 S 
BRANCH  31  32
ATOM     32  C   LIG    1       30.350 -18.817   7.742  0.00  0.00    +0.189 A 
ATOM     33  N   LIG    1       30.823 -19.772   8.660  0.00  0.00    -0.241 N 
ATOM     34  C   LIG    1       31.142 -21.152   8.297  0.00  0.00    +0.175 C 
ATOM     35  N   LIG    1       31.099 -19.494   9.995  0.00  0.00    -0.126 NA
ATOM     36  C   LIG    1       30.863 -18.271  10.336  0.00  0.00    +0.298 A 
ATOM     37  C   LIG    1       30.325 -17.244   9.342  0.00  0.00    +0.336 A 
ATOM     38  O   LIG    1       30.166 -16.115   9.801  0.00  0.00    -0.260 OA
ATOM     39  N   LIG    1       30.066 -17.583   8.033  0.00  0.00    -0.179 NA
BRANCH  36  40
ATOM     40  O   LIG    1       31.076 -17.803  11.572  0.00  0.00    -0.488 OA
ATOM     41  H   LIG    1       30.703 -16.904  11.655  0.00  0.00    +0.294 HD
ENDBRANCH  36  40
ENDBRANCH  31  32
ENDBRANCH  30  31
ENDBRANCH   5  30
TORSDOF 11
ENDMDL
MODEL 6
REMARK VINA RESULT:      -5.2      3.474      8.745
REMARK  Name = *****
REMARK                            x       y       z     vdW  Elec       q    Type
REMARK                         _______ _______ _______ _____ _____    ______ ____
ROOT
ATOM      1  CA  LIG    1       23.775 -31.694  12.469  0.00  0.00    +0.191 C 
ATOM      2  C   LIG    1       24.045 -31.624  10.932  0.00  0.00    +0.169 C 
ATOM      3  N   LIG    1       25.073 -30.646  11.218  0.00  0.00    -0.249 N 
ATOM      4  CA  LIG    1       25.705 -29.847  10.294  0.00  0.00    +0.123 C 
ATOM      5  C   LIG    1       25.185 -29.730   9.037  0.00  0.00    -0.021 C 
ATOM      6  C   LIG    1       23.871 -30.373   8.606  0.00  0.00    +0.104 C 
ATOM      7  S   LIG    1       22.753 -30.840   9.948  0.00  0.00    -0.131 S 
ATOM      8  C   LIG    1       24.907 -30.632  12.557  0.00  0.00    +0.244 C 
ATOM      9  O   LIG    1       25.445 -29.939  13.396  0.00  0.00    -0.273 OA
ENDROOT
BRANCH   1  11
ATOM     10  C   LIG    1       22.179 -31.163  14.316  0.00  0.00    +0.268 C 
ATOM     11  N   LIG    1       22.445 -31.264  12.965  0.00  0.00    -0.296 N 
ATOM     12  H   LIG    1       21.699 -30.977  12.331  0.00  0.00    +0.150 HD
ATOM     13  O   LIG    1       22.976 -31.495  15.180  0.00  0.00    -0.268 OA
BRANCH  10  15
ATOM     14  N   LIG    1       19.874 -31.531  14.893  0.00  0.00    -0.078 NA
ATOM     15  C   LIG    1       20.777 -30.611  14.655  0.00  0.00    +0.190 C 
BRANCH  15  16
ATOM     16  C   LIG    1       20.543 -29.158  14.719  0.00  0.00    +0.107 A 
ATOM     17  N   LIG    1       19.529 -28.528  13.992  0.00  0.00    -0.223 NA
ATOM     18  C   LIG    1       19.518 -27.241  14.210  0.00  0.00    +0.156 A 
ATOM     19  S   LIG    1       20.694 -26.676  15.317  0.00  0.00    -0.060 S 
ATOM     20  C   LIG    1       21.274 -28.277  15.499  0.00  0.00    +0.078 A 
BRANCH  18  21
ATOM     21  N   LIG    1       18.642 -26.409  13.629  0.00  0.00    -0.338 N 
ATOM     22  H   LIG    1       18.997 -25.874  12.845  0.00  0.00    +0.144 HD
ATOM     23  H   LIG    1       17.679 -26.705  13.544  0.00  0.00    +0.144 HD
ENDBRANCH  18  21
ENDBRANCH  15  16
BRANCH  14  25
ATOM     24  C   LIG    1       17.647 -31.616  14.295  0.00  0.00    +0.313 C 
ATOM     25  O   LIG    1       18.603 -30.995  15.136  0.00  0.00    -0.396 OA
ENDBRANCH  14  25
ENDBRANCH  10  15
ENDBRANCH   1  11
BRANCH   4  26
ATOM     26  C   LIG    1       26.978 -29.119  10.695  0.00  0.00    +0.351 C 
ATOM     27  O   LIG    1       27.023 -27.932  10.979  0.00  0.00    -0.244 OA
BRANCH  26  28
ATOM     28  OXT LIG    1       28.123 -29.830  10.613  0.00  0.00    -0.476 OA
ATOM     29  HXT LIG    1       28.195 -30.439   9.843  0.00  0.00    +0.295 HD
ENDBRANCH  26  28
ENDBRANCH   4  26
BRANCH   5  30
ATOM     30  C   LIG    1       25.798 -28.968   7.848  0.00  0.00    +0.111 C 
BRANCH  30  31
ATOM     31  S   LIG    1       24.596 -28.852   6.476  0.00  0.00    -0.082 S 
BRANCH  31  32
ATOM     32  C   LIG    1       24.665 -27.125   6.063  0.00  0.00    +0.189 A 
ATOM     33  N   LIG    1       25.693 -26.668   5.218  0.00  0.00    -0.241 N 
ATOM     34  C   LIG    1       26.695 -27.547   4.617  0.00  0.00    +0.175 C 
ATOM     35  N   LIG    1       25.831 -25.345   4.811  0.00  0.00    -0.126 NA
ATOM     36  C   LIG    1       24.935 -24.551   5.297  0.00  0.00    +0.298 A 
ATOM     37  C   LIG    1       23.837 -25.048   6.234  0.00  0.00    +0.336 A 
ATOM     38  O   LIG    1       23.043 -24.184   6.602  0.00  0.00    -0.260 OA
ATOM     39  N   LIG    1       23.757 -26.371   6.605  0.00  0.00    -0.179 NA
BRANCH  36  40
ATOM     40  O   LIG    1       24.889 -23.243   5.014  0.00  0.00    -0.488 OA
ATOM     41  H   LIG    1       25.789 -22.864   5.052  0.00  0.00    +0.294 HD
ENDBRANCH  36  40
ENDBRANCH  31  32
ENDBRANCH  30  31
ENDBRANCH   5  30
TORSDOF 11
ENDMDL
MODEL 7
REMARK VINA RESULT:      -5.1      3.880      7.183
REMARK  Name = *****
REMARK                            x       y       z     vdW  Elec       q    Type
REMARK                         _______ _______ _______ _____ _____    ______ ____
ROOT
ATOM      1  CA  LIG    1       24.106 -31.520  10.267  0.00  0.00    +0.191 C 
ATOM      2  C   LIG    1       24.518 -30.644  11.493  0.00  0.00    +0.169 C 
ATOM      3  N   LIG    1       23.126 -30.261  11.612  0.00  0.00    -0.249 N 
ATOM      4  CA  LIG    1       22.635 -29.241  12.392  0.00  0.00    +0.123 C 
ATOM      5  C   LIG    1       23.493 -28.313  12.909  0.00  0.00    -0.021 C 
ATOM      6  C   LIG    1       24.986 -28.285  12.600  0.00  0.00    +0.104 C 
ATOM      7  S   LIG    1       25.493 -29.176  11.111  0.00  0.00    -0.131 S 
ATOM      8  C   LIG    1       22.678 -30.981  10.563  0.00  0.00    +0.244 C 
ATOM      9  O   LIG    1       21.564 -31.034  10.081  0.00  0.00    -0.273 OA
ENDROOT
BRANCH   1  11
ATOM     10  C   LIG    1       24.150 -31.707   7.777  0.00  0.00    +0.268 C 
ATOM     11  N   LIG    1       24.666 -31.171   8.939  0.00  0.00    -0.296 N 
ATOM     12  H   LIG    1       25.414 -30.485   8.832  0.00  0.00    +0.150 HD
ATOM     13  O   LIG    1       23.270 -32.554   7.767  0.00  0.00    -0.268 OA
BRANCH  10  15
ATOM     14  N   LIG    1       25.239 -32.090   5.668  0.00  0.00    -0.078 NA
ATOM     15  C   LIG    1       24.789 -31.165   6.480  0.00  0.00    +0.190 C 
BRANCH  15  16
ATOM     16  C   LIG    1       24.833 -29.716   6.220  0.00  0.00    +0.107 A 
ATOM     17  N   LIG    1       25.648 -28.846   6.949  0.00  0.00    -0.223 NA
ATOM     18  C   LIG    1       25.516 -27.614   6.538  0.00  0.00    +0.156 A 
ATOM     19  S   LIG    1       24.431 -27.390   5.233  0.00  0.00    -0.060 S 
ATOM     20  C   LIG    1       24.099 -29.070   5.237  0.00  0.00    +0.078 A 
BRANCH  18  21
ATOM     21  N   LIG    1       26.189 -26.587   7.077  0.00  0.00    -0.338 N 
ATOM     22  H   LIG    1       27.074 -26.364   6.639  0.00  0.00    +0.144 HD
ATOM     23  H   LIG    1       25.665 -25.791   7.414  0.00  0.00    +0.144 HD
ENDBRANCH  18  21
ENDBRANCH  15  16
BRANCH  14  25
ATOM     24  C   LIG    1       25.677 -32.425   3.427  0.00  0.00    +0.313 C 
ATOM     25  O   LIG    1       25.866 -31.559   4.533  0.00  0.00    -0.396 OA
ENDBRANCH  14  25
ENDBRANCH  10  15
ENDBRANCH   1  11
BRANCH   4  26
ATOM     26  C   LIG    1       21.140 -29.177  12.667  0.00  0.00    +0.351 C 
ATOM     27  O   LIG    1       20.630 -29.484  13.733  0.00  0.00    -0.244 OA
BRANCH  26  28
ATOM     28  OXT LIG    1       20.353 -28.867  11.615  0.00  0.00    -0.476 OA
ATOM     29  HXT LIG    1       20.822 -28.668  10.773  0.00  0.00    +0.295 HD
ENDBRANCH  26  28
ENDBRANCH   4  26
BRANCH   5  30
ATOM     30  C   LIG    1       23.145 -27.166  13.875  0.00  0.00    +0.111 C 
BRANCH  30  31
ATOM     31  S   LIG    1       24.045 -27.367  15.453  0.00  0.00    -0.082 S 
BRANCH  31  32
ATOM     32  C   LIG    1       25.303 -26.119  15.328  0.00  0.00    +0.189 A 
ATOM     33  N   LIG    1       26.653 -26.506  15.382  0.00  0.00    -0.241 N 
ATOM     34  C   LIG    1       27.091 -27.897  15.494  0.00  0.00    +0.175 C 
ATOM     35  N   LIG    1       27.719 -25.619  15.272  0.00  0.00    -0.126 NA
ATOM     36  C   LIG    1       27.363 -24.385  15.134  0.00  0.00    +0.298 A 
ATOM     37  C   LIG    1       25.895 -23.967  15.102  0.00  0.00    +0.336 A 
ATOM     38  O   LIG    1       25.704 -22.762  14.945  0.00  0.00    -0.260 OA
ATOM     39  N   LIG    1       24.884 -24.893  15.222  0.00  0.00    -0.179 NA
BRANCH  36  40
ATOM     40  O   LIG    1       28.240 -23.382  14.999  0.00  0.00    -0.488 OA
ATOM     41  H   LIG    1       28.744 -23.270  15.828  0.00  0.00    +0.294 HD
ENDBRANCH  36  40
ENDBRANCH  31  32
ENDBRANCH  30  31
ENDBRANCH   5  30
TORSDOF 11
ENDMDL
MODEL 8
REMARK VINA RESULT:      -4.9      3.734      5.625
REMARK  Name = *****
REMARK                            x       y       z     vdW  Elec       q    Type
REMARK                         _______ _______ _______ _____ _____    ______ ____
ROOT
ATOM      1  CA  LIG    1       25.224 -30.476   8.761  0.00  0.00    +0.191 C 
ATOM      2  C   LIG    1       26.037 -30.637  10.086  0.00  0.00    +0.169 C 
ATOM      3  N   LIG    1       24.836 -30.254  10.799  0.00  0.00    -0.249 N 
ATOM      4  CA  LIG    1       24.764 -29.913  12.129  0.00  0.00    +0.123 C 
ATOM      5  C   LIG    1       25.909 -29.636  12.818  0.00  0.00    -0.021 C 
ATOM      6  C   LIG    1       27.290 -29.597  12.173  0.00  0.00    +0.104 C 
ATOM      7  S   LIG    1       27.308 -29.391  10.377  0.00  0.00    -0.131 S 
ATOM      8  C   LIG    1       24.057 -30.083   9.711  0.00  0.00    +0.244 C 
ATOM      9  O   LIG    1       22.913 -29.683   9.634  0.00  0.00    -0.273 OA
ENDROOT
BRANCH   1  11
ATOM     10  C   LIG    1       24.794 -28.943   6.837  0.00  0.00    +0.268 C 
ATOM     11  N   LIG    1       25.654 -29.433   7.799  0.00  0.00    -0.296 N 
ATOM     12  H   LIG    1       26.579 -29.004   7.846  0.00  0.00    +0.150 HD
ATOM     13  O   LIG    1       23.670 -29.385   6.660  0.00  0.00    -0.268 OA
BRANCH  10  15
ATOM     14  N   LIG    1       26.090 -28.192   4.956  0.00  0.00    -0.078 NA
ATOM     15  C   LIG    1       25.376 -27.796   5.981  0.00  0.00    +0.190 C 
BRANCH  15  16
ATOM     16  C   LIG    1       25.091 -26.392   6.323  0.00  0.00    +0.107 A 
ATOM     17  N   LIG    1       23.825 -25.823   6.166  0.00  0.00    -0.223 NA
ATOM     18  C   LIG    1       23.819 -24.570   6.534  0.00  0.00    +0.156 A 
ATOM     19  S   LIG    1       25.311 -23.972   7.121  0.00  0.00    -0.060 S 
ATOM     20  C   LIG    1       26.022 -25.504   6.839  0.00  0.00    +0.078 A 
BRANCH  18  21
ATOM     21  N   LIG    1       22.724 -23.798   6.478  0.00  0.00    -0.338 N 
ATOM     22  H   LIG    1       22.156 -23.900   5.645  0.00  0.00    +0.144 HD
ATOM     23  H   LIG    1       22.208 -23.631   7.331  0.00  0.00    +0.144 HD
ENDBRANCH  18  21
ENDBRANCH  15  16
BRANCH  14  25
ATOM     24  C   LIG    1       28.063 -27.168   4.335  0.00  0.00    +0.313 C 
ATOM     25  O   LIG    1       26.649 -27.126   4.240  0.00  0.00    -0.396 OA
ENDBRANCH  14  25
ENDBRANCH  10  15
ENDBRANCH   1  11
BRANCH   4  26
ATOM     26  C   LIG    1       23.402 -29.860  12.804  0.00  0.00    +0.351 C 
ATOM     27  O   LIG    1       22.701 -30.841  13.002  0.00  0.00    -0.244 OA
BRANCH  26  28
ATOM     28  OXT LIG    1       22.922 -28.629  13.083  0.00  0.00    -0.476 OA
ATOM     29  HXT LIG    1       23.591 -27.909  13.132  0.00  0.00    +0.295 HD
ENDBRANCH  26  28
ENDBRANCH   4  26
BRANCH   5  30
ATOM     30  C   LIG    1       26.036 -29.334  14.322  0.00  0.00    +0.111 C 
BRANCH  30  31
ATOM     31  S   LIG    1       27.523 -28.321  14.646  0.00  0.00    -0.082 S 
BRANCH  31  32
ATOM     32  C   LIG    1       26.867 -26.670  14.603  0.00  0.00    +0.189 A 
ATOM     33  N   LIG    1       27.674 -25.606  15.043  0.00  0.00    -0.241 N 
ATOM     34  C   LIG    1       29.054 -25.773  15.499  0.00  0.00    +0.175 C 
ATOM     35  N   LIG    1       27.274 -24.274  15.033  0.00  0.00    -0.126 NA
ATOM     36  C   LIG    1       26.072 -24.091  14.598  0.00  0.00    +0.298 A 
ATOM     37  C   LIG    1       25.190 -25.252  14.146  0.00  0.00    +0.336 A 
ATOM     38  O   LIG    1       24.076 -24.927  13.738  0.00  0.00    -0.260 OA
ATOM     39  N   LIG    1       25.643 -26.551  14.186  0.00  0.00    -0.179 NA
BRANCH  36  40
ATOM     40  O   LIG    1       25.508 -22.880  14.499  0.00  0.00    -0.488 OA
ATOM     41  H   LIG    1       24.649 -22.952  14.037  0.00  0.00    +0.294 HD
ENDBRANCH  36  40
ENDBRANCH  31  32
ENDBRANCH  30  31
ENDBRANCH   5  30
TORSDOF 11
ENDMDL
MODEL 9
REMARK VINA RESULT:      -4.9      4.476      5.877
REMARK  Name = *****
REMARK                            x       y       z     vdW  Elec       q    Type
REMARK                         _______ _______ _______ _____ _____    ______ ____
ROOT
ATOM      1  CA  LIG    1       26.975 -28.675  10.592  0.00  0.00    +0.191 C 
ATOM      2  C   LIG    1       26.256 -30.060  10.665  0.00  0.00    +0.169 C 
ATOM      3  N   LIG    1       25.796 -29.826   9.312  0.00  0.00    -0.249 N 
ATOM      4  CA  LIG    1       24.829 -30.548   8.653  0.00  0.00    +0.123 C 
ATOM      5  C   LIG    1       24.016 -31.388   9.359  0.00  0.00    -0.021 C 
ATOM      6  C   LIG    1       24.056 -31.517  10.878  0.00  0.00    +0.104 C 
ATOM      7  S   LIG    1       24.824 -30.139  11.760  0.00  0.00    -0.131 S 
ATOM      8  C   LIG    1       26.376 -28.617   9.158  0.00  0.00    +0.244 C 
ATOM      9  O   LIG    1       26.306 -27.839   8.229  0.00  0.00    -0.273 OA
ENDROOT
BRANCH   1  11
ATOM     10  C   LIG    1       27.040 -27.512  12.801  0.00  0.00    +0.268 C 
ATOM     11  N   LIG    1       26.532 -27.608  11.521  0.00  0.00    -0.296 N 
ATOM     12  H   LIG    1       25.880 -26.878  11.233  0.00  0.00    +0.150 HD
ATOM     13  O   LIG    1       27.810 -28.332  13.276  0.00  0.00    -0.268 OA
BRANCH  10  15
ATOM     14  N   LIG    1       27.444 -25.357  13.788  0.00  0.00    -0.078 NA
ATOM     15  C   LIG    1       26.541 -26.288  13.599  0.00  0.00    +0.190 C 
BRANCH  15  16
ATOM     16  C   LIG    1       25.143 -26.217  14.058  0.00  0.00    +0.107 A 
ATOM     17  N   LIG    1       24.061 -26.490  13.218  0.00  0.00    -0.223 NA
ATOM     18  C   LIG    1       22.925 -26.361  13.848  0.00  0.00    +0.156 A 
ATOM     19  S   LIG    1       23.049 -25.929  15.500  0.00  0.00    -0.060 S 
ATOM     20  C   LIG    1       24.755 -25.892  15.349  0.00  0.00    +0.078 A 
BRANCH  18  21
ATOM     21  N   LIG    1       21.737 -26.565  13.262  0.00  0.00    -0.338 N 
ATOM     22  H   LIG    1       21.097 -27.170  13.765  0.00  0.00    +0.144 HD
ATOM     23  H   LIG    1       21.302 -25.796  12.772  0.00  0.00    +0.144 HD
ENDBRANCH  18  21
ENDBRANCH  15  16
BRANCH  14  25
ATOM     24  C   LIG    1       28.028 -23.757  15.346  0.00  0.00    +0.313 C 
ATOM     25  O   LIG    1       26.972 -24.292  14.567  0.00  0.00    -0.396 OA
ENDBRANCH  14  25
ENDBRANCH  10  15
ENDBRANCH   1  11
BRANCH   4  26
ATOM     26  C   LIG    1       24.694 -30.397   7.146  0.00  0.00    +0.351 C 
ATOM     27  O   LIG    1       23.672 -30.029   6.587  0.00  0.00    -0.244 OA
BRANCH  26  28
ATOM     28  OXT LIG    1       25.746 -30.811   6.409  0.00  0.00    -0.476 OA
ATOM     29  HXT LIG    1       25.703 -30.606   5.447  0.00  0.00    +0.295 HD
ENDBRANCH  26  28
ENDBRANCH   4  26
BRANCH   5  30
ATOM     30  C   LIG    1       22.951 -32.343   8.789  0.00  0.00    +0.111 C 
BRANCH  30  31
ATOM     31  S   LIG    1       22.349 -33.476  10.091  0.00  0.00    -0.082 S 
BRANCH  31  32
ATOM     32  C   LIG    1       20.880 -32.649  10.655  0.00  0.00    +0.189 A 
ATOM     33  N   LIG    1       20.627 -32.580  12.036  0.00  0.00    -0.241 N 
ATOM     34  C   LIG    1       21.532 -33.117  13.052  0.00  0.00    +0.175 C 
ATOM     35  N   LIG    1       19.523 -31.940  12.591  0.00  0.00    -0.126 NA
ATOM     36  C   LIG    1       18.724 -31.422  11.718  0.00  0.00    +0.298 A 
ATOM     37  C   LIG    1       18.990 -31.523  10.218  0.00  0.00    +0.336 A 
ATOM     38  O   LIG    1       18.155 -30.967   9.507  0.00  0.00    -0.260 OA
ATOM     39  N   LIG    1       20.099 -32.176   9.731  0.00  0.00    -0.179 NA
BRANCH  36  40
ATOM     40  O   LIG    1       17.613 -30.754  12.052  0.00  0.00    -0.488 OA
ATOM     41  H   LIG    1       16.930 -31.380  12.363  0.00  0.00    +0.294 HD
ENDBRANCH  36  40
ENDBRANCH  31  32
ENDBRANCH  30  31
ENDBRANCH   5  30
TORSDOF 11
ENDMDL
