MODEL 1
REMARK VINA RESULT:     -10.3      0.000      0.000
REMARK  Name = *****
REMARK                            x       y       z     vdW  Elec       q    Type
REMARK                         _______ _______ _______ _____ _____    ______ ____
ROOT
ATOM      1  C   LIG    1       24.394 -21.514   5.488  0.00  0.00    +0.021 C 
ATOM      2  C   LIG    1       23.042 -20.952   6.056  0.00  0.00    +0.016 C 
ATOM      3  C   LIG    1       22.777 -19.468   5.828  0.00  0.00    +0.001 C 
ATOM      4  C   LIG    1       22.898 -19.080   4.366  0.00  0.00    +0.000 C 
ATOM      5  C   LIG    1       24.209 -19.563   3.768  0.00  0.00    +0.001 C 
ATOM      6  C   LIG    1       24.407 -21.069   3.975  0.00  0.00    +0.016 C 
ENDROOT
BRANCH   1  10
ATOM      7  C   LIG    1       27.867 -19.860   7.690  0.00  0.00    +0.122 A 
ATOM      8  C   LIG    1       26.776 -20.409   8.349  0.00  0.00    +0.046 A 
ATOM      9  C   LIG    1       25.695 -20.964   7.653  0.00  0.00    +0.008 A 
ATOM     10  C   LIG    1       25.641 -20.976   6.252  0.00  0.00    -0.037 A 
ATOM     11  C   LIG    1       26.767 -20.449   5.593  0.00  0.00    +0.008 A 
ATOM     12  C   LIG    1       27.886 -19.946   6.298  0.00  0.00    +0.046 A 
BRANCH   7  13
ATOM     13  O   LIG    1       28.915 -19.215   8.310  0.00  0.00    -0.475 OA
BRANCH  13  14
ATOM     14  C   LIG    1       30.244 -19.803   8.256  0.00  0.00    +0.203 C 
ATOM     15  C   LIG    1       30.841 -19.423   6.879  0.00  0.00    +0.068 C 
BRANCH  14  17
ATOM     16  C   LIG    1       31.263 -22.040   9.177  0.00  0.00    +0.008 C 
ATOM     17  C   LIG    1       30.195 -21.357   8.326  0.00  0.00    +0.056 C 
ENDBRANCH  14  17
BRANCH  14  18
ATOM     18  C   LIG    1       31.192 -19.126   9.297  0.00  0.00    +0.349 C 
ATOM     19  O   LIG    1       32.351 -18.801   9.073  0.00  0.00    -0.246 OA
BRANCH  18  20
ATOM     20  O   LIG    1       30.620 -18.887  10.495  0.00  0.00    -0.478 OA
ATOM     21  H   LIG    1       31.255 -18.980  11.210  0.00  0.00    +0.295 HD
ENDBRANCH  18  20
ENDBRANCH  14  18
ENDBRANCH  13  14
ENDBRANCH   7  13
ENDBRANCH   1  10
BRANCH   1  22
ATOM     22  C   LIG    1       24.335 -23.078   5.597  0.00  0.00    -0.037 A 
ATOM     23  C   LIG    1       24.968 -23.909   4.666  0.00  0.00    +0.008 A 
ATOM     24  C   LIG    1       24.819 -25.306   4.708  0.00  0.00    +0.046 A 
ATOM     25  C   LIG    1       24.081 -25.942   5.703  0.00  0.00    +0.122 A 
ATOM     26  C   LIG    1       23.484 -25.138   6.671  0.00  0.00    +0.046 A 
ATOM     27  C   LIG    1       23.606 -23.734   6.613  0.00  0.00    +0.008 A 
BRANCH  25  28
ATOM     28  O   LIG    1       23.947 -27.300   5.865  0.00  0.00    -0.475 OA
BRANCH  28  29
ATOM     29  C   LIG    1       25.075 -28.118   6.245  0.00  0.00    +0.203 C 
ATOM     30  C   LIG    1       25.532 -28.981   5.061  0.00  0.00    +0.068 C 
BRANCH  29  31
ATOM     31  C   LIG    1       26.250 -27.371   6.890  0.00  0.00    +0.349 C 
ATOM     32  O   LIG    1       26.362 -27.138   8.117  0.00  0.00    -0.246 OA
BRANCH  31  33
ATOM     33  O   LIG    1       27.214 -26.986   6.025  0.00  0.00    -0.478 OA
ATOM     34  H   LIG    1       27.173 -27.496   5.172  0.00  0.00    +0.295 HD
ENDBRANCH  31  33
ENDBRANCH  29  31
BRANCH  29  35
ATOM     35  C   LIG    1       24.614 -29.075   7.392  0.00  0.00    +0.056 C 
ATOM     36  C   LIG    1       24.595 -30.563   7.058  0.00  0.00    +0.008 C 
ENDBRANCH  29  35
ENDBRANCH  28  29
ENDBRANCH  25  28
ENDBRANCH   1  22
TORSDOF 12
ENDMDL
MODEL 2
REMARK VINA RESULT:     -10.3      0.815      1.683
REMARK  Name = *****
REMARK                            x       y       z     vdW  Elec       q    Type
REMARK                         _______ _______ _______ _____ _____    ______ ____
ROOT
ATOM      1  C   LIG    1       24.321 -21.317   5.432  0.00  0.00    +0.021 C 
ATOM      2  C   LIG    1       22.985 -20.680   5.960  0.00  0.00    +0.016 C 
ATOM      3  C   LIG    1       22.803 -19.187   5.711  0.00  0.00    +0.001 C 
ATOM      4  C   LIG    1       22.981 -18.822   4.250  0.00  0.00    +0.000 C 
ATOM      5  C   LIG    1       24.279 -19.378   3.690  0.00  0.00    +0.001 C 
ATOM      6  C   LIG    1       24.394 -20.889   3.915  0.00  0.00    +0.016 C 
ENDROOT
BRANCH   1  10
ATOM      7  C   LIG    1       27.817 -19.823   7.710  0.00  0.00    +0.122 A 
ATOM      8  C   LIG    1       26.697 -20.341   8.345  0.00  0.00    +0.046 A 
ATOM      9  C   LIG    1       25.607 -20.846   7.624  0.00  0.00    +0.008 A 
ATOM     10  C   LIG    1       25.574 -20.836   6.223  0.00  0.00    -0.037 A 
ATOM     11  C   LIG    1       26.729 -20.340   5.589  0.00  0.00    +0.008 A 
ATOM     12  C   LIG    1       27.854 -19.889   6.318  0.00  0.00    +0.046 A 
BRANCH   7  13
ATOM     13  O   LIG    1       28.877 -19.225   8.356  0.00  0.00    -0.475 OA
BRANCH  13  14
ATOM     14  C   LIG    1       30.188 -19.853   8.301  0.00  0.00    +0.203 C 
ATOM     15  C   LIG    1       30.802 -19.477   6.930  0.00  0.00    +0.068 C 
BRANCH  14  17
ATOM     16  C   LIG    1       31.176 -22.134   9.144  0.00  0.00    +0.008 C 
ATOM     17  C   LIG    1       30.091 -21.405   8.354  0.00  0.00    +0.056 C 
ENDBRANCH  14  17
BRANCH  14  18
ATOM     18  C   LIG    1       31.152 -19.215   9.353  0.00  0.00    +0.349 C 
ATOM     19  O   LIG    1       32.348 -19.027   9.175  0.00  0.00    -0.246 OA
BRANCH  18  20
ATOM     20  O   LIG    1       30.552 -18.845  10.502  0.00  0.00    -0.478 OA
ATOM     21  H   LIG    1       31.170 -18.851  11.237  0.00  0.00    +0.295 HD
ENDBRANCH  18  20
ENDBRANCH  14  18
ENDBRANCH  13  14
ENDBRANCH   7  13
ENDBRANCH   1  10
BRANCH   1  22
ATOM     22  C   LIG    1       24.178 -22.875   5.554  0.00  0.00    -0.037 A 
ATOM     23  C   LIG    1       23.402 -23.470   6.555  0.00  0.00    +0.008 A 
ATOM     24  C   LIG    1       23.367 -24.864   6.725  0.00  0.00    +0.046 A 
ATOM     25  C   LIG    1       24.055 -25.731   5.879  0.00  0.00    +0.122 A 
ATOM     26  C   LIG    1       24.792 -25.163   4.843  0.00  0.00    +0.046 A 
ATOM     27  C   LIG    1       24.855 -23.762   4.690  0.00  0.00    +0.008 A 
BRANCH  25  28
ATOM     28  O   LIG    1       24.015 -27.103   5.924  0.00  0.00    -0.475 OA
BRANCH  28  29
ATOM     29  C   LIG    1       25.163 -27.867   6.353  0.00  0.00    +0.203 C 
ATOM     30  C   LIG    1       26.051 -27.023   7.277  0.00  0.00    +0.068 C 
BRANCH  29  31
ATOM     31  C   LIG    1       24.857 -29.242   6.960  0.00  0.00    +0.349 C 
ATOM     32  O   LIG    1       23.785 -29.873   6.800  0.00  0.00    -0.246 OA
BRANCH  31  33
ATOM     33  O   LIG    1       25.864 -29.771   7.689  0.00  0.00    -0.478 OA
ATOM     34  H   LIG    1       25.910 -30.761   7.596  0.00  0.00    +0.295 HD
ENDBRANCH  31  33
ENDBRANCH  29  31
BRANCH  29  35
ATOM     35  C   LIG    1       25.999 -28.238   5.085  0.00  0.00    +0.056 C 
ATOM     36  C   LIG    1       27.257 -27.410   4.844  0.00  0.00    +0.008 C 
ENDBRANCH  29  35
ENDBRANCH  28  29
ENDBRANCH  25  28
ENDBRANCH   1  22
TORSDOF 12
ENDMDL
MODEL 3
REMARK VINA RESULT:     -10.0      1.268      1.877
REMARK  Name = *****
REMARK                            x       y       z     vdW  Elec       q    Type
REMARK                         _______ _______ _______ _____ _____    ______ ____
ROOT
ATOM      1  C   LIG    1       24.793 -22.000   5.842  0.00  0.00    +0.021 C 
ATOM      2  C   LIG    1       23.485 -21.756   6.677  0.00  0.00    +0.016 C 
ATOM      3  C   LIG    1       22.899 -20.350   6.620  0.00  0.00    +0.001 C 
ATOM      4  C   LIG    1       22.671 -19.879   5.196  0.00  0.00    +0.000 C 
ATOM      5  C   LIG    1       23.918 -20.053   4.345  0.00  0.00    +0.001 C 
ATOM      6  C   LIG    1       24.440 -21.493   4.390  0.00  0.00    +0.016 C 
ENDROOT
BRANCH   1  10
ATOM      7  C   LIG    1       28.227 -19.755   7.519  0.00  0.00    +0.122 A 
ATOM      8  C   LIG    1       27.271 -20.346   8.333  0.00  0.00    +0.046 A 
ATOM      9  C   LIG    1       26.206 -21.086   7.804  0.00  0.00    +0.008 A 
ATOM     10  C   LIG    1       26.030 -21.252   6.423  0.00  0.00    -0.037 A 
ATOM     11  C   LIG    1       27.023 -20.678   5.608  0.00  0.00    +0.008 A 
ATOM     12  C   LIG    1       28.133 -19.985   6.147  0.00  0.00    +0.046 A 
BRANCH   7  13
ATOM     13  O   LIG    1       29.242 -18.938   7.968  0.00  0.00    -0.475 OA
BRANCH  13  14
ATOM     14  C   LIG    1       30.516 -19.529   8.346  0.00  0.00    +0.203 C 
ATOM     15  C   LIG    1       31.513 -19.197   7.210  0.00  0.00    +0.068 C 
BRANCH  14  17
ATOM     16  C   LIG    1       31.569 -21.785   9.178  0.00  0.00    +0.008 C 
ATOM     17  C   LIG    1       30.429 -21.079   8.447  0.00  0.00    +0.056 C 
ENDBRANCH  14  17
BRANCH  14  18
ATOM     18  C   LIG    1       31.103 -18.818   9.607  0.00  0.00    +0.349 C 
ATOM     19  O   LIG    1       30.559 -18.785  10.703  0.00  0.00    -0.246 OA
BRANCH  18  20
ATOM     20  O   LIG    1       32.308 -18.244   9.410  0.00  0.00    -0.478 OA
ATOM     21  H   LIG    1       32.220 -17.315   9.183  0.00  0.00    +0.295 HD
ENDBRANCH  18  20
ENDBRANCH  14  18
ENDBRANCH  13  14
ENDBRANCH   7  13
ENDBRANCH   1  10
BRANCH   1  22
ATOM     22  C   LIG    1       25.060 -23.546   5.830  0.00  0.00    -0.037 A 
ATOM     23  C   LIG    1       25.611 -24.209   6.933  0.00  0.00    +0.008 A 
ATOM     24  C   LIG    1       25.949 -25.572   6.876  0.00  0.00    +0.046 A 
ATOM     25  C   LIG    1       25.707 -26.348   5.745  0.00  0.00    +0.122 A 
ATOM     26  C   LIG    1       25.111 -25.721   4.653  0.00  0.00    +0.046 A 
ATOM     27  C   LIG    1       24.801 -24.346   4.696  0.00  0.00    +0.008 A 
BRANCH  25  28
ATOM     28  O   LIG    1       25.933 -27.698   5.629  0.00  0.00    -0.475 OA
BRANCH  28  29
ATOM     29  C   LIG    1       25.104 -28.653   6.328  0.00  0.00    +0.203 C 
ATOM     30  C   LIG    1       23.764 -28.013   6.717  0.00  0.00    +0.068 C 
BRANCH  29  31
ATOM     31  C   LIG    1       24.906 -30.001   5.623  0.00  0.00    +0.349 C 
ATOM     32  O   LIG    1       25.831 -30.708   5.156  0.00  0.00    -0.246 OA
BRANCH  31  33
ATOM     33  O   LIG    1       23.622 -30.416   5.554  0.00  0.00    -0.478 OA
ATOM     34  H   LIG    1       23.038 -29.925   6.193  0.00  0.00    +0.295 HD
ENDBRANCH  31  33
ENDBRANCH  29  31
BRANCH  29  35
ATOM     35  C   LIG    1       25.843 -29.066   7.642  0.00  0.00    +0.056 C 
ATOM     36  C   LIG    1       24.993 -29.759   8.701  0.00  0.00    +0.008 C 
ENDBRANCH  29  35
ENDBRANCH  28  29
ENDBRANCH  25  28
ENDBRANCH   1  22
TORSDOF 12
ENDMDL
MODEL 4
REMARK VINA RESULT:      -9.9      1.187      8.124
REMARK  Name = *****
REMARK                            x       y       z     vdW  Elec       q    Type
REMARK                         _______ _______ _______ _____ _____    ______ ____
ROOT
ATOM      1  C   LIG    1       24.765 -20.956   5.707  0.00  0.00    +0.021 C 
ATOM      2  C   LIG    1       24.967 -20.464   4.229  0.00  0.00    +0.016 C 
ATOM      3  C   LIG    1       23.749 -20.547   3.316  0.00  0.00    +0.001 C 
ATOM      4  C   LIG    1       22.538 -19.851   3.908  0.00  0.00    +0.000 C 
ATOM      5  C   LIG    1       22.266 -20.316   5.328  0.00  0.00    +0.001 C 
ATOM      6  C   LIG    1       23.502 -20.164   6.222  0.00  0.00    +0.016 C 
ENDROOT
BRANCH   1  10
ATOM      7  C   LIG    1       24.082 -25.332   5.873  0.00  0.00    +0.122 A 
ATOM      8  C   LIG    1       25.010 -24.769   5.008  0.00  0.00    +0.046 A 
ATOM      9  C   LIG    1       25.252 -23.389   4.981  0.00  0.00    +0.008 A 
ATOM     10  C   LIG    1       24.555 -22.496   5.808  0.00  0.00    -0.037 A 
ATOM     11  C   LIG    1       23.641 -23.081   6.705  0.00  0.00    +0.008 A 
ATOM     12  C   LIG    1       23.444 -24.481   6.775  0.00  0.00    +0.046 A 
BRANCH   7  13
ATOM     13  O   LIG    1       23.729 -26.664   5.884  0.00  0.00    -0.475 OA
BRANCH  13  14
ATOM     14  C   LIG    1       24.771 -27.675   5.984  0.00  0.00    +0.203 C 
ATOM     15  C   LIG    1       25.670 -27.267   7.176  0.00  0.00    +0.068 C 
BRANCH  14  17
ATOM     16  C   LIG    1       27.153 -27.396   4.916  0.00  0.00    +0.008 C 
ATOM     17  C   LIG    1       25.671 -27.708   4.715  0.00  0.00    +0.056 C 
ENDBRANCH  14  17
BRANCH  14  18
ATOM     18  C   LIG    1       24.166 -29.054   6.400  0.00  0.00    +0.349 C 
ATOM     19  O   LIG    1       24.414 -29.633   7.449  0.00  0.00    -0.246 OA
BRANCH  18  20
ATOM     20  O   LIG    1       23.297 -29.570   5.507  0.00  0.00    -0.478 OA
ATOM     21  H   LIG    1       22.787 -30.289   5.890  0.00  0.00    +0.295 HD
ENDBRANCH  18  20
ENDBRANCH  14  18
ENDBRANCH  13  14
ENDBRANCH   7  13
ENDBRANCH   1  10
BRANCH   1  22
ATOM     22  C   LIG    1       26.041 -20.537   6.519  0.00  0.00    -0.037 A 
ATOM     23  C   LIG    1       27.213 -20.110   5.886  0.00  0.00    +0.008 A 
ATOM     24  C   LIG    1       28.385 -19.842   6.613  0.00  0.00    +0.046 A 
ATOM     25  C   LIG    1       28.431 -19.934   8.002  0.00  0.00    +0.122 A 
ATOM     26  C   LIG    1       27.260 -20.307   8.659  0.00  0.00    +0.046 A 
ATOM     27  C   LIG    1       26.092 -20.608   7.928  0.00  0.00    +0.008 A 
BRANCH  25  28
ATOM     28  O   LIG    1       29.506 -19.617   8.797  0.00  0.00    -0.475 OA
BRANCH  28  29
ATOM     29  C   LIG    1       30.831 -19.485   8.238  0.00  0.00    +0.203 C 
ATOM     30  C   LIG    1       30.750 -19.227   6.727  0.00  0.00    +0.068 C 
BRANCH  29  31
ATOM     31  C   LIG    1       31.750 -18.475   8.938  0.00  0.00    +0.349 C 
ATOM     32  O   LIG    1       32.002 -18.469  10.166  0.00  0.00    -0.246 OA
BRANCH  31  33
ATOM     33  O   LIG    1       32.317 -17.567   8.114  0.00  0.00    -0.478 OA
ATOM     34  H   LIG    1       31.701 -16.812   7.912  0.00  0.00    +0.295 HD
ENDBRANCH  31  33
ENDBRANCH  29  31
BRANCH  29  35
ATOM     35  C   LIG    1       31.587 -20.835   8.458  0.00  0.00    +0.056 C 
ATOM     36  C   LIG    1       30.869 -21.876   9.312  0.00  0.00    +0.008 C 
ENDBRANCH  29  35
ENDBRANCH  28  29
ENDBRANCH  25  28
ENDBRANCH   1  22
TORSDOF 12
ENDMDL
MODEL 5
REMARK VINA RESULT:      -9.6      1.419      8.432
REMARK  Name = *****
REMARK                            x       y       z     vdW  Elec       q    Type
REMARK                         _______ _______ _______ _____ _____    ______ ____
ROOT
ATOM      1  C   LIG    1       25.036 -21.011   5.667  0.00  0.00    +0.021 C 
ATOM      2  C   LIG    1       24.792 -20.434   4.227  0.00  0.00    +0.016 C 
ATOM      3  C   LIG    1       23.344 -20.396   3.750  0.00  0.00    +0.001 C 
ATOM      4  C   LIG    1       22.435 -19.680   4.729  0.00  0.00    +0.000 C 
ATOM      5  C   LIG    1       22.596 -20.222   6.140  0.00  0.00    +0.001 C 
ATOM      6  C   LIG    1       24.059 -20.191   6.596  0.00  0.00    +0.016 C 
ENDROOT
BRANCH   1  10
ATOM      7  C   LIG    1       24.149 -25.350   5.835  0.00  0.00    +0.122 A 
ATOM      8  C   LIG    1       24.867 -24.790   4.788  0.00  0.00    +0.046 A 
ATOM      9  C   LIG    1       25.179 -23.424   4.753  0.00  0.00    +0.008 A 
ATOM     10  C   LIG    1       24.763 -22.542   5.760  0.00  0.00    -0.037 A 
ATOM     11  C   LIG    1       24.065 -23.126   6.834  0.00  0.00    +0.008 A 
ATOM     12  C   LIG    1       23.806 -24.515   6.899  0.00  0.00    +0.046 A 
BRANCH   7  13
ATOM     13  O   LIG    1       23.728 -26.662   5.884  0.00  0.00    -0.475 OA
BRANCH  13  14
ATOM     14  C   LIG    1       24.719 -27.722   5.986  0.00  0.00    +0.203 C 
ATOM     15  C   LIG    1       25.623 -27.370   7.193  0.00  0.00    +0.068 C 
BRANCH  14  17
ATOM     16  C   LIG    1       27.103 -27.431   4.928  0.00  0.00    +0.008 C 
ATOM     17  C   LIG    1       25.632 -27.786   4.727  0.00  0.00    +0.056 C 
ENDBRANCH  14  17
BRANCH  14  18
ATOM     18  C   LIG    1       24.043 -29.075   6.380  0.00  0.00    +0.349 C 
ATOM     19  O   LIG    1       24.155 -29.614   7.473  0.00  0.00    -0.246 OA
BRANCH  18  20
ATOM     20  O   LIG    1       23.275 -29.615   5.412  0.00  0.00    -0.478 OA
ATOM     21  H   LIG    1       22.353 -29.655   5.678  0.00  0.00    +0.295 HD
ENDBRANCH  18  20
ENDBRANCH  14  18
ENDBRANCH  13  14
ENDBRANCH   7  13
ENDBRANCH   1  10
BRANCH   1  22
ATOM     22  C   LIG    1       26.529 -20.711   6.046  0.00  0.00    -0.037 A 
ATOM     23  C   LIG    1       27.156 -21.333   7.131  0.00  0.00    +0.008 A 
ATOM     24  C   LIG    1       28.456 -20.979   7.530  0.00  0.00    +0.046 A 
ATOM     25  C   LIG    1       29.210 -20.033   6.840  0.00  0.00    +0.122 A 
ATOM     26  C   LIG    1       28.625 -19.438   5.724  0.00  0.00    +0.046 A 
ATOM     27  C   LIG    1       27.309 -19.768   5.341  0.00  0.00    +0.008 A 
BRANCH  25  28
ATOM     28  O   LIG    1       30.510 -19.683   7.111  0.00  0.00    -0.475 OA
BRANCH  28  29
ATOM     29  C   LIG    1       30.856 -18.995   8.333  0.00  0.00    +0.203 C 
ATOM     30  C   LIG    1       29.698 -18.095   8.785  0.00  0.00    +0.068 C 
BRANCH  29  31
ATOM     31  C   LIG    1       31.364 -19.885   9.475  0.00  0.00    +0.349 C 
ATOM     32  O   LIG    1       32.221 -20.792   9.350  0.00  0.00    -0.246 OA
BRANCH  31  33
ATOM     33  O   LIG    1       30.830 -19.605  10.685  0.00  0.00    -0.478 OA
ATOM     34  H   LIG    1       31.192 -20.199  11.396  0.00  0.00    +0.295 HD
ENDBRANCH  31  33
ENDBRANCH  29  31
BRANCH  29  35
ATOM     35  C   LIG    1       32.093 -18.084   8.042  0.00  0.00    +0.056 C 
ATOM     36  C   LIG    1       32.352 -16.963   9.045  0.00  0.00    +0.008 C 
ENDBRANCH  29  35
ENDBRANCH  28  29
ENDBRANCH  25  28
ENDBRANCH   1  22
TORSDOF 12
ENDMDL
MODEL 6
REMARK VINA RESULT:      -9.0      1.126      8.073
REMARK  Name = *****
REMARK                            x       y       z     vdW  Elec       q    Type
REMARK                         _______ _______ _______ _____ _____    ______ ____
ROOT
ATOM      1  C   LIG    1       24.633 -21.197   5.676  0.00  0.00    +0.021 C 
ATOM      2  C   LIG    1       24.883 -20.729   4.198  0.00  0.00    +0.016 C 
ATOM      3  C   LIG    1       23.722 -20.910   3.227  0.00  0.00    +0.001 C 
ATOM      4  C   LIG    1       22.441 -20.277   3.736  0.00  0.00    +0.000 C 
ATOM      5  C   LIG    1       22.124 -20.724   5.153  0.00  0.00    +0.001 C 
ATOM      6  C   LIG    1       23.299 -20.473   6.105  0.00  0.00    +0.016 C 
ENDROOT
BRANCH   1  10
ATOM      7  C   LIG    1       24.207 -25.601   5.930  0.00  0.00    +0.122 A 
ATOM      8  C   LIG    1       25.114 -25.003   5.068  0.00  0.00    +0.046 A 
ATOM      9  C   LIG    1       25.275 -23.612   5.014  0.00  0.00    +0.008 A 
ATOM     10  C   LIG    1       24.512 -22.744   5.809  0.00  0.00    -0.037 A 
ATOM     11  C   LIG    1       23.620 -23.363   6.704  0.00  0.00    +0.008 A 
ATOM     12  C   LIG    1       23.505 -24.770   6.803  0.00  0.00    +0.046 A 
BRANCH   7  13
ATOM     13  O   LIG    1       23.932 -26.951   5.965  0.00  0.00    -0.475 OA
BRANCH  13  14
ATOM     14  C   LIG    1       24.955 -27.872   6.437  0.00  0.00    +0.203 C 
ATOM     15  C   LIG    1       24.216 -29.012   7.180  0.00  0.00    +0.068 C 
BRANCH  14  17
ATOM     16  C   LIG    1       26.334 -28.040   8.664  0.00  0.00    +0.008 C 
ATOM     17  C   LIG    1       25.915 -27.199   7.460  0.00  0.00    +0.056 C 
ENDBRANCH  14  17
BRANCH  14  18
ATOM     18  C   LIG    1       25.662 -28.577   5.235  0.00  0.00    +0.349 C 
ATOM     19  O   LIG    1       25.241 -29.580   4.673  0.00  0.00    -0.246 OA
BRANCH  18  20
ATOM     20  O   LIG    1       26.793 -27.970   4.822  0.00  0.00    -0.478 OA
ATOM     21  H   LIG    1       27.463 -27.973   5.510  0.00  0.00    +0.295 HD
ENDBRANCH  18  20
ENDBRANCH  14  18
ENDBRANCH  13  14
ENDBRANCH   7  13
ENDBRANCH   1  10
BRANCH   1  22
ATOM     22  C   LIG    1       25.837 -20.680   6.541  0.00  0.00    -0.037 A 
ATOM     23  C   LIG    1       27.052 -20.297   5.963  0.00  0.00    +0.008 A 
ATOM     24  C   LIG    1       28.160 -19.940   6.751  0.00  0.00    +0.046 A 
ATOM     25  C   LIG    1       28.096 -19.896   8.141  0.00  0.00    +0.122 A 
ATOM     26  C   LIG    1       26.880 -20.223   8.737  0.00  0.00    +0.046 A 
ATOM     27  C   LIG    1       25.776 -20.612   7.950  0.00  0.00    +0.008 A 
BRANCH  25  28
ATOM     28  O   LIG    1       29.101 -19.485   8.983  0.00  0.00    -0.475 OA
BRANCH  28  29
ATOM     29  C   LIG    1       30.488 -19.634   8.612  0.00  0.00    +0.203 C 
ATOM     30  C   LIG    1       30.920 -21.101   8.736  0.00  0.00    +0.068 C 
BRANCH  29  31
ATOM     31  C   LIG    1       30.880 -19.040   7.252  0.00  0.00    +0.349 C 
ATOM     32  O   LIG    1       30.411 -17.980   6.772  0.00  0.00    -0.246 OA
BRANCH  31  33
ATOM     33  O   LIG    1       31.820 -19.742   6.582  0.00  0.00    -0.478 OA
ATOM     34  H   LIG    1       32.310 -20.370   7.179  0.00  0.00    +0.295 HD
ENDBRANCH  31  33
ENDBRANCH  29  31
BRANCH  29  35
ATOM     35  C   LIG    1       31.349 -18.789   9.607  0.00  0.00    +0.056 C 
ATOM     36  C   LIG    1       30.592 -17.769  10.452  0.00  0.00    +0.008 C 
ENDBRANCH  29  35
ENDBRANCH  28  29
ENDBRANCH  25  28
ENDBRANCH   1  22
TORSDOF 12
ENDMDL
MODEL 7
REMARK VINA RESULT:      -8.9      1.311      1.991
REMARK  Name = *****
REMARK                            x       y       z     vdW  Elec       q    Type
REMARK                         _______ _______ _______ _____ _____    ______ ____
ROOT
ATOM      1  C   LIG    1       24.708 -22.767   5.859  0.00  0.00    +0.021 C 
ATOM      2  C   LIG    1       23.356 -22.653   6.650  0.00  0.00    +0.016 C 
ATOM      3  C   LIG    1       22.677 -21.288   6.635  0.00  0.00    +0.001 C 
ATOM      4  C   LIG    1       22.472 -20.763   5.227  0.00  0.00    +0.000 C 
ATOM      5  C   LIG    1       23.759 -20.811   4.420  0.00  0.00    +0.001 C 
ATOM      6  C   LIG    1       24.377 -22.213   4.419  0.00  0.00    +0.016 C 
ENDROOT
BRANCH   1  10
ATOM      7  C   LIG    1       27.908 -20.417   7.828  0.00  0.00    +0.122 A 
ATOM      8  C   LIG    1       27.256 -21.455   8.479  0.00  0.00    +0.046 A 
ATOM      9  C   LIG    1       26.270 -22.221   7.844  0.00  0.00    +0.008 A 
ATOM     10  C   LIG    1       25.868 -21.969   6.525  0.00  0.00    -0.037 A 
ATOM     11  C   LIG    1       26.559 -20.937   5.863  0.00  0.00    +0.008 A 
ATOM     12  C   LIG    1       27.598 -20.205   6.485  0.00  0.00    +0.046 A 
BRANCH   7  13
ATOM     13  O   LIG    1       28.815 -19.566   8.422  0.00  0.00    -0.475 OA
BRANCH  13  14
ATOM     14  C   LIG    1       30.231 -19.718   8.126  0.00  0.00    +0.203 C 
ATOM     15  C   LIG    1       30.459 -19.099   6.725  0.00  0.00    +0.068 C 
BRANCH  14  17
ATOM     16  C   LIG    1       30.855 -21.942   9.372  0.00  0.00    +0.008 C 
ATOM     17  C   LIG    1       30.650 -21.214   8.045  0.00  0.00    +0.056 C 
ENDBRANCH  14  17
BRANCH  14  18
ATOM     18  C   LIG    1       31.095 -18.842   9.089  0.00  0.00    +0.349 C 
ATOM     19  O   LIG    1       32.257 -19.081   9.390  0.00  0.00    -0.246 OA
BRANCH  18  20
ATOM     20  O   LIG    1       30.463 -17.749   9.562  0.00  0.00    -0.478 OA
ATOM     21  H   LIG    1       29.509 -17.858   9.535  0.00  0.00    +0.295 HD
ENDBRANCH  18  20
ENDBRANCH  14  18
ENDBRANCH  13  14
ENDBRANCH   7  13
ENDBRANCH   1  10
BRANCH   1  22
ATOM     22  C   LIG    1       25.081 -24.290   5.786  0.00  0.00    -0.037 A 
ATOM     23  C   LIG    1       24.858 -25.051   4.633  0.00  0.00    +0.008 A 
ATOM     24  C   LIG    1       25.093 -26.437   4.611  0.00  0.00    +0.046 A 
ATOM     25  C   LIG    1       25.607 -27.118   5.712  0.00  0.00    +0.122 A 
ATOM     26  C   LIG    1       25.886 -26.371   6.854  0.00  0.00    +0.046 A 
ATOM     27  C   LIG    1       25.621 -24.986   6.889  0.00  0.00    +0.008 A 
BRANCH  25  28
ATOM     28  O   LIG    1       25.939 -28.450   5.754  0.00  0.00    -0.475 OA
BRANCH  28  29
ATOM     29  C   LIG    1       25.173 -29.382   6.548  0.00  0.00    +0.203 C 
ATOM     30  C   LIG    1       24.949 -28.823   7.959  0.00  0.00    +0.068 C 
BRANCH  29  31
ATOM     31  C   LIG    1       23.863 -29.872   5.917  0.00  0.00    +0.349 C 
ATOM     32  O   LIG    1       23.293 -30.953   6.200  0.00  0.00    -0.246 OA
BRANCH  31  33
ATOM     33  O   LIG    1       23.320 -29.023   5.017  0.00  0.00    -0.478 OA
ATOM     34  H   LIG    1       23.873 -28.951   4.193  0.00  0.00    +0.295 HD
ENDBRANCH  31  33
ENDBRANCH  29  31
BRANCH  29  35
ATOM     35  C   LIG    1       25.999 -30.703   6.675  0.00  0.00    +0.056 C 
ATOM     36  C   LIG    1       26.194 -31.500   5.389  0.00  0.00    +0.008 C 
ENDBRANCH  29  35
ENDBRANCH  28  29
ENDBRANCH  25  28
ENDBRANCH   1  22
TORSDOF 12
ENDMDL
MODEL 8
REMARK VINA RESULT:      -8.9      0.935      1.710
REMARK  Name = *****
REMARK                            x       y       z     vdW  Elec       q    Type
REMARK                         _______ _______ _______ _____ _____    ______ ____
ROOT
ATOM      1  C   LIG    1       24.293 -21.419   5.410  0.00  0.00    +0.021 C 
ATOM      2  C   LIG    1       22.914 -20.833   5.880  0.00  0.00    +0.016 C 
ATOM      3  C   LIG    1       22.704 -19.339   5.661  0.00  0.00    +0.001 C 
ATOM      4  C   LIG    1       22.950 -18.928   4.222  0.00  0.00    +0.000 C 
ATOM      5  C   LIG    1       24.292 -19.434   3.719  0.00  0.00    +0.001 C 
ATOM      6  C   LIG    1       24.437 -20.948   3.911  0.00  0.00    +0.016 C 
ENDROOT
BRANCH   1  10
ATOM      7  C   LIG    1       27.621 -19.895   7.909  0.00  0.00    +0.122 A 
ATOM      8  C   LIG    1       26.459 -20.406   8.470  0.00  0.00    +0.046 A 
ATOM      9  C   LIG    1       25.422 -20.921   7.681  0.00  0.00    +0.008 A 
ATOM     10  C   LIG    1       25.488 -20.928   6.280  0.00  0.00    -0.037 A 
ATOM     11  C   LIG    1       26.684 -20.439   5.723  0.00  0.00    +0.008 A 
ATOM     12  C   LIG    1       27.756 -19.977   6.523  0.00  0.00    +0.046 A 
BRANCH   7  13
ATOM     13  O   LIG    1       28.633 -19.288   8.620  0.00  0.00    -0.475 OA
BRANCH  13  14
ATOM     14  C   LIG    1       30.015 -19.633   8.324  0.00  0.00    +0.203 C 
ATOM     15  C   LIG    1       30.054 -21.168   8.120  0.00  0.00    +0.068 C 
BRANCH  14  17
ATOM     16  C   LIG    1       30.687 -18.002  10.267  0.00  0.00    +0.008 C 
ATOM     17  C   LIG    1       30.964 -19.300   9.511  0.00  0.00    +0.056 C 
ENDBRANCH  14  17
BRANCH  14  18
ATOM     18  C   LIG    1       30.450 -19.041   6.945  0.00  0.00    +0.349 C 
ATOM     19  O   LIG    1       30.061 -17.971   6.495  0.00  0.00    -0.246 OA
BRANCH  18  20
ATOM     20  O   LIG    1       31.337 -19.800   6.269  0.00  0.00    -0.478 OA
ATOM     21  H   LIG    1       31.134 -19.823   5.331  0.00  0.00    +0.295 HD
ENDBRANCH  18  20
ENDBRANCH  14  18
ENDBRANCH  13  14
ENDBRANCH   7  13
ENDBRANCH   1  10
BRANCH   1  22
ATOM     22  C   LIG    1       24.187 -22.983   5.482  0.00  0.00    -0.037 A 
ATOM     23  C   LIG    1       23.540 -23.632   6.540  0.00  0.00    +0.008 A 
ATOM     24  C   LIG    1       23.544 -25.033   6.655  0.00  0.00    +0.046 A 
ATOM     25  C   LIG    1       24.143 -25.852   5.701  0.00  0.00    +0.122 A 
ATOM     26  C   LIG    1       24.748 -25.230   4.611  0.00  0.00    +0.046 A 
ATOM     27  C   LIG    1       24.773 -23.823   4.511  0.00  0.00    +0.008 A 
BRANCH  25  28
ATOM     28  O   LIG    1       24.128 -27.226   5.692  0.00  0.00    -0.475 OA
BRANCH  28  29
ATOM     29  C   LIG    1       25.325 -27.984   5.971  0.00  0.00    +0.203 C 
ATOM     30  C   LIG    1       25.363 -29.256   5.113  0.00  0.00    +0.068 C 
BRANCH  29  31
ATOM     31  C   LIG    1       26.642 -27.201   5.885  0.00  0.00    +0.349 C 
ATOM     32  O   LIG    1       27.088 -26.449   6.785  0.00  0.00    -0.246 OA
BRANCH  31  33
ATOM     33  O   LIG    1       27.339 -27.398   4.745  0.00  0.00    -0.478 OA
ATOM     34  H   LIG    1       27.170 -26.679   4.078  0.00  0.00    +0.295 HD
ENDBRANCH  31  33
ENDBRANCH  29  31
BRANCH  29  35
ATOM     35  C   LIG    1       25.287 -28.414   7.473  0.00  0.00    +0.056 C 
ATOM     36  C   LIG    1       24.377 -29.591   7.813  0.00  0.00    +0.008 C 
ENDBRANCH  29  35
ENDBRANCH  28  29
ENDBRANCH  25  28
ENDBRANCH   1  22
TORSDOF 12
ENDMDL
MODEL 9
REMARK VINA RESULT:      -8.7      1.754      2.603
REMARK  Name = *****
REMARK                            x       y       z     vdW  Elec       q    Type
REMARK                         _______ _______ _______ _____ _____    ______ ____
ROOT
ATOM      1  C   LIG    1       25.066 -22.335   6.265  0.00  0.00    +0.021 C 
ATOM      2  C   LIG    1       23.784 -22.200   7.162  0.00  0.00    +0.016 C 
ATOM      3  C   LIG    1       23.195 -20.799   7.294  0.00  0.00    +0.001 C 
ATOM      4  C   LIG    1       22.925 -20.160   5.946  0.00  0.00    +0.000 C 
ATOM      5  C   LIG    1       24.145 -20.224   5.043  0.00  0.00    +0.001 C 
ATOM      6  C   LIG    1       24.669 -21.657   4.897  0.00  0.00    +0.016 C 
ENDROOT
BRANCH   1  10
ATOM      7  C   LIG    1       28.664 -20.538   8.128  0.00  0.00    +0.122 A 
ATOM      8  C   LIG    1       28.749 -21.349   7.005  0.00  0.00    +0.046 A 
ATOM      9  C   LIG    1       27.608 -21.888   6.395  0.00  0.00    +0.008 A 
ATOM     10  C   LIG    1       26.319 -21.659   6.896  0.00  0.00    -0.037 A 
ATOM     11  C   LIG    1       26.242 -20.807   8.014  0.00  0.00    +0.008 A 
ATOM     12  C   LIG    1       27.389 -20.213   8.591  0.00  0.00    +0.046 A 
BRANCH   7  13
ATOM     13  O   LIG    1       29.747 -20.057   8.830  0.00  0.00    -0.475 OA
BRANCH  13  14
ATOM     14  C   LIG    1       30.383 -18.822   8.397  0.00  0.00    +0.203 C 
ATOM     15  C   LIG    1       31.846 -18.876   8.903  0.00  0.00    +0.068 C 
BRANCH  14  17
ATOM     16  C   LIG    1       30.436 -16.946  10.232  0.00  0.00    +0.008 C 
ATOM     17  C   LIG    1       29.717 -17.571   9.037  0.00  0.00    +0.056 C 
ENDBRANCH  14  17
BRANCH  14  18
ATOM     18  C   LIG    1       30.506 -18.780   6.840  0.00  0.00    +0.349 C 
ATOM     19  O   LIG    1       31.359 -19.374   6.194  0.00  0.00    -0.246 OA
BRANCH  18  20
ATOM     20  O   LIG    1       29.557 -18.043   6.228  0.00  0.00    -0.478 OA
ATOM     21  H   LIG    1       29.268 -18.454   5.409  0.00  0.00    +0.295 HD
ENDBRANCH  18  20
ENDBRANCH  14  18
ENDBRANCH  13  14
ENDBRANCH   7  13
ENDBRANCH   1  10
BRANCH   1  22
ATOM     22  C   LIG    1       25.333 -23.867   6.058  0.00  0.00    -0.037 A 
ATOM     23  C   LIG    1       25.037 -24.513   4.852  0.00  0.00    +0.008 A 
ATOM     24  C   LIG    1       25.177 -25.904   4.711  0.00  0.00    +0.046 A 
ATOM     25  C   LIG    1       25.666 -26.707   5.739  0.00  0.00    +0.122 A 
ATOM     26  C   LIG    1       26.017 -26.078   6.931  0.00  0.00    +0.046 A 
ATOM     27  C   LIG    1       25.847 -24.687   7.086  0.00  0.00    +0.008 A 
BRANCH  25  28
ATOM     28  O   LIG    1       25.907 -28.058   5.663  0.00  0.00    -0.475 OA
BRANCH  28  29
ATOM     29  C   LIG    1       25.030 -29.007   6.306  0.00  0.00    +0.203 C 
ATOM     30  C   LIG    1       23.654 -28.376   6.560  0.00  0.00    +0.068 C 
BRANCH  29  31
ATOM     31  C   LIG    1       24.910 -30.373   5.618  0.00  0.00    +0.349 C 
ATOM     32  O   LIG    1       25.874 -31.031   5.159  0.00  0.00    -0.246 OA
BRANCH  31  33
ATOM     33  O   LIG    1       23.652 -30.861   5.554  0.00  0.00    -0.478 OA
ATOM     34  H   LIG    1       23.168 -30.537   4.747  0.00  0.00    +0.295 HD
ENDBRANCH  31  33
ENDBRANCH  29  31
BRANCH  29  35
ATOM     35  C   LIG    1       25.654 -29.382   7.690  0.00  0.00    +0.056 C 
ATOM     36  C   LIG    1       24.675 -29.849   8.763  0.00  0.00    +0.008 C 
ENDBRANCH  29  35
ENDBRANCH  28  29
ENDBRANCH  25  28
ENDBRANCH   1  22
TORSDOF 12
ENDMDL
