MODEL 1
REMARK VINA RESULT:     -10.2      0.000      0.000
REMARK  Name = *****
REMARK                            x       y       z     vdW  Elec       q    Type
REMARK                         _______ _______ _______ _____ _____    ______ ____
ROOT
ATOM      1  C   LIG    1       23.455 -20.443   5.630  0.00  0.00    +0.080 A 
ATOM      2  C   LIG    1       24.679 -20.302   4.930  0.00  0.00    +0.045 A 
ATOM      3  C   LIG    1       24.691 -19.357   3.895  0.00  0.00    +0.024 A 
ATOM      4  C   LIG    1       23.601 -18.506   3.647  0.00  0.00    +0.002 A 
ATOM      5  C   LIG    1       22.438 -18.615   4.395  0.00  0.00    +0.001 A 
ATOM      6  C   LIG    1       22.356 -19.588   5.378  0.00  0.00    +0.017 A 
ENDROOT
BRANCH   1   8
ATOM      7  O   LIG    1       23.189 -21.339   7.810  0.00  0.00    -0.245 OA
ATOM      8  C   LIG    1       23.264 -21.537   6.596  0.00  0.00    +0.341 C 
BRANCH   8   9
ATOM      9  O   LIG    1       23.310 -22.721   5.969  0.00  0.00    -0.458 OA
BRANCH   9  10
ATOM     10  C   LIG    1       23.144 -23.886   6.785  0.00  0.00    +0.266 C 
BRANCH  10  11
ATOM     11  C   LIG    1       24.087 -25.023   6.402  0.00  0.00    +0.177 C 
BRANCH  11  12
ATOM     12  O   LIG    1       23.393 -25.970   5.572  0.00  0.00    -0.386 OA
ATOM     13  H   LIG    1       22.474 -25.661   5.491  0.00  0.00    +0.210 HD
ENDBRANCH  11  12
BRANCH  11  14
ATOM     14  C   LIG    1       25.315 -24.528   5.635  0.00  0.00    +0.190 C 
BRANCH  14  15
ATOM     15  O   LIG    1       24.927 -24.124   4.321  0.00  0.00    -0.392 OA
ATOM     16  H   LIG    1       25.559 -24.577   3.729  0.00  0.00    +0.209 HD
ENDBRANCH  14  15
ENDBRANCH  11  14
ENDBRANCH  10  11
ENDBRANCH   9  10
ENDBRANCH   8   9
ENDBRANCH   1   8
BRANCH   2  17
ATOM     17  N   LIG    1       25.826 -21.125   5.164  0.00  0.00    -0.313 N 
ATOM     18  H   LIG    1       25.685 -22.094   4.849  0.00  0.00    +0.152 HD
BRANCH  17  19
ATOM     19  C   LIG    1       26.763 -21.086   6.254  0.00  0.00    +0.042 A 
ATOM     20  C   LIG    1       27.864 -20.165   6.265  0.00  0.00    +0.022 A 
ATOM     21  C   LIG    1       28.105 -19.216   5.243  0.00  0.00    +0.012 A 
ATOM     22  C   LIG    1       29.216 -18.370   5.272  0.00  0.00    +0.001 A 
ATOM     23  C   LIG    1       30.099 -18.439   6.337  0.00  0.00    +0.014 A 
ATOM     24  C   LIG    1       29.879 -19.352   7.386  0.00  0.00    +0.081 A 
ATOM     25  C   LIG    1       28.762 -20.191   7.375  0.00  0.00    +0.084 A 
ATOM     26  N   LIG    1       28.546 -20.998   8.421  0.00  0.00    -0.254 NA
ATOM     27  C   LIG    1       27.498 -21.842   8.399  0.00  0.00    +0.113 A 
ATOM     28  C   LIG    1       26.622 -21.953   7.341  0.00  0.00    +0.043 A 
BRANCH  24  29
ATOM     29  C   LIG    1       30.918 -19.390   8.481  0.00  0.00    +0.419 C 
ATOM     30  F   LIG    1       30.471 -18.786   9.625  0.00  0.00    -0.166 F 
ATOM     31  F   LIG    1       32.033 -18.677   8.129  0.00  0.00    -0.166 F 
ATOM     32  F   LIG    1       31.387 -20.604   8.875  0.00  0.00    -0.166 F 
ENDBRANCH  24  29
ENDBRANCH  17  19
ENDBRANCH   2  17
TORSDOF 10
ENDMDL
MODEL 2
REMARK VINA RESULT:      -9.2      1.430      2.381
REMARK  Name = *****
REMARK                            x       y       z     vdW  Elec       q    Type
REMARK                         _______ _______ _______ _____ _____    ______ ____
ROOT
ATOM      1  C   LIG    1       24.169 -20.672   5.740  0.00  0.00    +0.080 A 
ATOM      2  C   LIG    1       25.098 -20.117   4.825  0.00  0.00    +0.045 A 
ATOM      3  C   LIG    1       24.563 -19.288   3.830  0.00  0.00    +0.024 A 
ATOM      4  C   LIG    1       23.207 -18.920   3.813  0.00  0.00    +0.002 A 
ATOM      5  C   LIG    1       22.329 -19.419   4.765  0.00  0.00    +0.001 A 
ATOM      6  C   LIG    1       22.802 -20.303   5.721  0.00  0.00    +0.017 A 
ENDROOT
BRANCH   1   8
ATOM      7  O   LIG    1       24.464 -21.569   7.916  0.00  0.00    -0.245 OA
ATOM      8  C   LIG    1       24.585 -21.709   6.698  0.00  0.00    +0.341 C 
BRANCH   8   9
ATOM      9  O   LIG    1       25.195 -22.715   6.054  0.00  0.00    -0.458 OA
BRANCH   9  10
ATOM     10  C   LIG    1       25.560 -23.853   6.843  0.00  0.00    +0.266 C 
BRANCH  10  11
ATOM     11  C   LIG    1       25.523 -25.161   6.056  0.00  0.00    +0.177 C 
BRANCH  11  12
ATOM     12  O   LIG    1       26.245 -26.177   6.772  0.00  0.00    -0.386 OA
ATOM     13  H   LIG    1       26.392 -25.844   7.675  0.00  0.00    +0.210 HD
ENDBRANCH  11  12
BRANCH  11  14
ATOM     14  C   LIG    1       24.096 -25.663   5.828  0.00  0.00    +0.190 C 
BRANCH  14  15
ATOM     15  O   LIG    1       23.170 -24.770   6.447  0.00  0.00    -0.392 OA
ATOM     16  H   LIG    1       22.313 -24.971   6.020  0.00  0.00    +0.209 HD
ENDBRANCH  14  15
ENDBRANCH  11  14
ENDBRANCH  10  11
ENDBRANCH   9  10
ENDBRANCH   8   9
ENDBRANCH   1   8
BRANCH   2  17
ATOM     17  N   LIG    1       26.492 -20.440   4.818  0.00  0.00    -0.313 N 
ATOM     18  H   LIG    1       26.666 -21.436   5.006  0.00  0.00    +0.152 HD
BRANCH  17  19
ATOM     19  C   LIG    1       27.609 -19.647   5.257  0.00  0.00    +0.042 A 
ATOM     20  C   LIG    1       28.454 -20.074   6.336  0.00  0.00    +0.022 A 
ATOM     21  C   LIG    1       28.288 -21.296   7.030  0.00  0.00    +0.012 A 
ATOM     22  C   LIG    1       29.105 -21.649   8.104  0.00  0.00    +0.001 A 
ATOM     23  C   LIG    1       30.126 -20.797   8.495  0.00  0.00    +0.014 A 
ATOM     24  C   LIG    1       30.340 -19.584   7.813  0.00  0.00    +0.081 A 
ATOM     25  C   LIG    1       29.538 -19.229   6.725  0.00  0.00    +0.084 A 
ATOM     26  N   LIG    1       29.812 -18.103   6.056  0.00  0.00    -0.254 NA
ATOM     27  C   LIG    1       29.018 -17.729   5.036  0.00  0.00    +0.113 A 
ATOM     28  C   LIG    1       27.901 -18.430   4.636  0.00  0.00    +0.043 A 
BRANCH  24  29
ATOM     29  C   LIG    1       31.444 -18.697   8.337  0.00  0.00    +0.419 C 
ATOM     30  F   LIG    1       32.044 -19.234   9.443  0.00  0.00    -0.166 F 
ATOM     31  F   LIG    1       30.949 -17.494   8.765  0.00  0.00    -0.166 F 
ATOM     32  F   LIG    1       32.462 -18.379   7.494  0.00  0.00    -0.166 F 
ENDBRANCH  24  29
ENDBRANCH  17  19
ENDBRANCH   2  17
TORSDOF 10
ENDMDL
MODEL 3
REMARK VINA RESULT:      -8.0      3.244      4.951
REMARK  Name = *****
REMARK                            x       y       z     vdW  Elec       q    Type
REMARK                         _______ _______ _______ _____ _____    ______ ____
ROOT
ATOM      1  C   LIG    1       24.356 -18.857   3.911  0.00  0.00    +0.080 A 
ATOM      2  C   LIG    1       24.618 -19.978   4.738  0.00  0.00    +0.045 A 
ATOM      3  C   LIG    1       23.551 -20.421   5.531  0.00  0.00    +0.024 A 
ATOM      4  C   LIG    1       22.260 -19.876   5.421  0.00  0.00    +0.002 A 
ATOM      5  C   LIG    1       22.012 -18.825   4.550  0.00  0.00    +0.001 A 
ATOM      6  C   LIG    1       23.057 -18.305   3.803  0.00  0.00    +0.017 A 
ENDROOT
BRANCH   1   8
ATOM      7  O   LIG    1       26.263 -18.799   2.503  0.00  0.00    -0.245 OA
ATOM      8  C   LIG    1       25.448 -18.182   3.191  0.00  0.00    +0.341 C 
BRANCH   8   9
ATOM      9  O   LIG    1       25.469 -16.878   3.500  0.00  0.00    -0.458 OA
BRANCH   9  10
ATOM     10  C   LIG    1       26.750 -16.237   3.485  0.00  0.00    +0.266 C 
BRANCH  10  11
ATOM     11  C   LIG    1       26.655 -14.719   3.354  0.00  0.00    +0.177 C 
BRANCH  11  12
ATOM     12  O   LIG    1       26.367 -14.368   1.990  0.00  0.00    -0.386 OA
ATOM     13  H   LIG    1       25.427 -14.567   1.834  0.00  0.00    +0.210 HD
ENDBRANCH  11  12
BRANCH  11  14
ATOM     14  C   LIG    1       25.559 -14.124   4.240  0.00  0.00    +0.190 C 
BRANCH  14  15
ATOM     15  O   LIG    1       24.286 -14.318   3.621  0.00  0.00    -0.392 OA
ATOM     16  H   LIG    1       23.688 -13.705   4.093  0.00  0.00    +0.209 HD
ENDBRANCH  14  15
ENDBRANCH  11  14
ENDBRANCH  10  11
ENDBRANCH   9  10
ENDBRANCH   8   9
ENDBRANCH   1   8
BRANCH   2  17
ATOM     17  N   LIG    1       25.907 -20.586   4.864  0.00  0.00    -0.313 N 
ATOM     18  H   LIG    1       26.024 -21.392   4.237  0.00  0.00    +0.152 HD
BRANCH  17  19
ATOM     19  C   LIG    1       26.726 -20.742   6.036  0.00  0.00    +0.042 A 
ATOM     20  C   LIG    1       27.926 -19.976   6.221  0.00  0.00    +0.022 A 
ATOM     21  C   LIG    1       28.386 -19.001   5.304  0.00  0.00    +0.012 A 
ATOM     22  C   LIG    1       29.584 -18.312   5.501  0.00  0.00    +0.001 A 
ATOM     23  C   LIG    1       30.339 -18.566   6.635  0.00  0.00    +0.014 A 
ATOM     24  C   LIG    1       29.901 -19.510   7.585  0.00  0.00    +0.081 A 
ATOM     25  C   LIG    1       28.695 -20.192   7.404  0.00  0.00    +0.084 A 
ATOM     26  N   LIG    1       28.274 -21.031   8.359  0.00  0.00    -0.254 NA
ATOM     27  C   LIG    1       27.137 -21.727   8.174  0.00  0.00    +0.113 A 
ATOM     28  C   LIG    1       26.368 -21.652   7.033  0.00  0.00    +0.043 A 
BRANCH  24  29
ATOM     29  C   LIG    1       30.809 -19.756   8.765  0.00  0.00    +0.419 C 
ATOM     30  F   LIG    1       30.362 -19.118   9.891  0.00  0.00    -0.166 F 
ATOM     31  F   LIG    1       32.056 -19.232   8.547  0.00  0.00    -0.166 F 
ATOM     32  F   LIG    1       31.030 -21.042   9.144  0.00  0.00    -0.166 F 
ENDBRANCH  24  29
ENDBRANCH  17  19
ENDBRANCH   2  17
TORSDOF 10
ENDMDL
MODEL 4
REMARK VINA RESULT:      -7.5      1.539      3.465
REMARK  Name = *****
REMARK                            x       y       z     vdW  Elec       q    Type
REMARK                         _______ _______ _______ _____ _____    ______ ____
ROOT
ATOM      1  C   LIG    1       23.840 -22.620   6.589  0.00  0.00    +0.080 A 
ATOM      2  C   LIG    1       25.133 -22.831   6.050  0.00  0.00    +0.045 A 
ATOM      3  C   LIG    1       25.474 -24.161   5.767  0.00  0.00    +0.024 A 
ATOM      4  C   LIG    1       24.548 -25.211   5.885  0.00  0.00    +0.002 A 
ATOM      5  C   LIG    1       23.262 -24.968   6.347  0.00  0.00    +0.001 A 
ATOM      6  C   LIG    1       22.908 -23.679   6.711  0.00  0.00    +0.017 A 
ENDROOT
BRANCH   1   8
ATOM      7  O   LIG    1       22.972 -21.151   8.236  0.00  0.00    -0.245 OA
ATOM      8  C   LIG    1       23.448 -21.300   7.110  0.00  0.00    +0.341 C 
BRANCH   8   9
ATOM      9  O   LIG    1       23.578 -20.370   6.153  0.00  0.00    -0.458 OA
BRANCH   9  10
ATOM     10  C   LIG    1       22.495 -20.253   5.223  0.00  0.00    +0.266 C 
BRANCH  10  11
ATOM     11  C   LIG    1       22.736 -19.185   4.159  0.00  0.00    +0.177 C 
BRANCH  11  12
ATOM     12  O   LIG    1       22.267 -17.912   4.636  0.00  0.00    -0.386 OA
ATOM     13  H   LIG    1       23.010 -17.486   5.097  0.00  0.00    +0.210 HD
ENDBRANCH  11  12
BRANCH  11  14
ATOM     14  C   LIG    1       24.217 -19.042   3.801  0.00  0.00    +0.190 C 
BRANCH  14  15
ATOM     15  O   LIG    1       24.773 -20.332   3.542  0.00  0.00    -0.392 OA
ATOM     16  H   LIG    1       24.007 -20.940   3.578  0.00  0.00    +0.209 HD
ENDBRANCH  14  15
ENDBRANCH  11  14
ENDBRANCH  10  11
ENDBRANCH   9  10
ENDBRANCH   8   9
ENDBRANCH   1   8
BRANCH   2  17
ATOM     17  N   LIG    1       26.103 -21.791   5.885  0.00  0.00    -0.313 N 
ATOM     18  H   LIG    1       26.367 -21.653   4.901  0.00  0.00    +0.152 HD
BRANCH  17  19
ATOM     19  C   LIG    1       27.188 -21.418   6.751  0.00  0.00    +0.042 A 
ATOM     20  C   LIG    1       28.030 -20.292   6.457  0.00  0.00    +0.022 A 
ATOM     21  C   LIG    1       27.855 -19.452   5.332  0.00  0.00    +0.012 A 
ATOM     22  C   LIG    1       28.726 -18.396   5.060  0.00  0.00    +0.001 A 
ATOM     23  C   LIG    1       29.781 -18.141   5.921  0.00  0.00    +0.014 A 
ATOM     24  C   LIG    1       29.973 -18.939   7.066  0.00  0.00    +0.081 A 
ATOM     25  C   LIG    1       29.097 -19.988   7.356  0.00  0.00    +0.084 A 
ATOM     26  N   LIG    1       29.268 -20.682   8.488  0.00  0.00    -0.254 NA
ATOM     27  C   LIG    1       28.457 -21.723   8.754  0.00  0.00    +0.113 A 
ATOM     28  C   LIG    1       27.452 -22.149   7.912  0.00  0.00    +0.043 A 
BRANCH  24  29
ATOM     29  C   LIG    1       31.175 -18.618   7.922  0.00  0.00    +0.419 C 
ATOM     30  F   LIG    1       31.105 -17.354   8.441  0.00  0.00    -0.166 F 
ATOM     31  F   LIG    1       32.326 -18.622   7.179  0.00  0.00    -0.166 F 
ATOM     32  F   LIG    1       31.438 -19.428   8.982  0.00  0.00    -0.166 F 
ENDBRANCH  24  29
ENDBRANCH  17  19
ENDBRANCH   2  17
TORSDOF 10
ENDMDL
MODEL 5
REMARK VINA RESULT:      -7.3      5.430      8.231
REMARK  Name = *****
REMARK                            x       y       z     vdW  Elec       q    Type
REMARK                         _______ _______ _______ _____ _____    ______ ____
ROOT
ATOM      1  C   LIG    1       25.777 -21.965   7.361  0.00  0.00    +0.080 A 
ATOM      2  C   LIG    1       25.236 -23.236   7.045  0.00  0.00    +0.045 A 
ATOM      3  C   LIG    1       23.839 -23.304   6.949  0.00  0.00    +0.024 A 
ATOM      4  C   LIG    1       23.028 -22.159   7.030  0.00  0.00    +0.002 A 
ATOM      5  C   LIG    1       23.590 -20.913   7.268  0.00  0.00    +0.001 A 
ATOM      6  C   LIG    1       24.960 -20.813   7.445  0.00  0.00    +0.017 A 
ENDROOT
BRANCH   1   8
ATOM      7  O   LIG    1       27.656 -22.054   8.806  0.00  0.00    -0.245 OA
ATOM      8  C   LIG    1       27.206 -21.817   7.684  0.00  0.00    +0.341 C 
BRANCH   8   9
ATOM      9  O   LIG    1       27.863 -21.289   6.641  0.00  0.00    -0.458 OA
BRANCH   9  10
ATOM     10  C   LIG    1       28.326 -19.942   6.790  0.00  0.00    +0.266 C 
BRANCH  10  11
ATOM     11  C   LIG    1       29.841 -19.815   6.658  0.00  0.00    +0.177 C 
BRANCH  11  12
ATOM     12  O   LIG    1       30.183 -18.470   6.279  0.00  0.00    -0.386 OA
ATOM     13  H   LIG    1       30.731 -18.100   6.993  0.00  0.00    +0.210 HD
ENDBRANCH  11  12
BRANCH  11  14
ATOM     14  C   LIG    1       30.570 -20.140   7.964  0.00  0.00    +0.190 C 
BRANCH  14  15
ATOM     15  O   LIG    1       30.569 -21.553   8.173  0.00  0.00    -0.392 OA
ATOM     16  H   LIG    1       29.622 -21.799   8.175  0.00  0.00    +0.209 HD
ENDBRANCH  14  15
ENDBRANCH  11  14
ENDBRANCH  10  11
ENDBRANCH   9  10
ENDBRANCH   8   9
ENDBRANCH   1   8
BRANCH   2  17
ATOM     17  N   LIG    1       26.022 -24.426   6.926  0.00  0.00    -0.313 N 
ATOM     18  H   LIG    1       27.026 -24.225   6.832  0.00  0.00    +0.152 HD
BRANCH  17  19
ATOM     19  C   LIG    1       25.698 -25.666   6.273  0.00  0.00    +0.042 A 
ATOM     20  C   LIG    1       25.765 -26.920   6.968  0.00  0.00    +0.022 A 
ATOM     21  C   LIG    1       26.120 -27.045   8.333  0.00  0.00    +0.012 A 
ATOM     22  C   LIG    1       26.218 -28.290   8.957  0.00  0.00    +0.001 A 
ATOM     23  C   LIG    1       25.939 -29.439   8.235  0.00  0.00    +0.014 A 
ATOM     24  C   LIG    1       25.557 -29.354   6.882  0.00  0.00    +0.081 A 
ATOM     25  C   LIG    1       25.440 -28.112   6.253  0.00  0.00    +0.084 A 
ATOM     26  N   LIG    1       25.008 -28.063   4.987  0.00  0.00    -0.254 NA
ATOM     27  C   LIG    1       24.935 -26.876   4.358  0.00  0.00    +0.113 A 
ATOM     28  C   LIG    1       25.305 -25.679   4.933  0.00  0.00    +0.043 A 
BRANCH  24  29
ATOM     29  C   LIG    1       25.318 -30.660   6.161  0.00  0.00    +0.419 C 
ATOM     30  F   LIG    1       23.993 -30.844   5.872  0.00  0.00    -0.166 F 
ATOM     31  F   LIG    1       25.649 -31.728   6.953  0.00  0.00    -0.166 F 
ATOM     32  F   LIG    1       25.976 -30.873   4.991  0.00  0.00    -0.166 F 
ENDBRANCH  24  29
ENDBRANCH  17  19
ENDBRANCH   2  17
TORSDOF 10
ENDMDL
