MODEL 1
REMARK VINA RESULT:     -10.4      0.000      0.000
REMARK  Name = *****
REMARK                            x       y       z     vdW  Elec       q    Type
REMARK                         _______ _______ _______ _____ _____    ______ ____
ROOT
ATOM      1  C   LIG    1       27.142 -20.942   6.650  0.00  0.00    +0.272 C 
ATOM      2  C   LIG    1       25.869 -21.675   6.053  0.00  0.00    +0.144 C 
ATOM      3  N   LIG    1       25.224 -22.541   7.100  0.00  0.00    -0.282 NA
ATOM      4  C   LIG    1       24.931 -21.731   8.313  0.00  0.00    +0.113 C 
ATOM      5  C   LIG    1       26.042 -20.774   8.781  0.00  0.00    +0.178 C 
ATOM      6  O   LIG    1       26.728 -20.083   7.729  0.00  0.00    -0.348 OA
ENDROOT
BRANCH   2   7
ATOM      7  C   LIG    1       24.856 -20.708   5.378  0.00  0.00    -0.025 A 
ATOM      8  C   LIG    1       23.570 -20.520   5.917  0.00  0.00    +0.008 A 
ATOM      9  C   LIG    1       22.623 -19.692   5.315  0.00  0.00    +0.039 A 
ATOM     10  C   LIG    1       22.940 -19.044   4.138  0.00  0.00    +0.123 A 
ATOM     11  F   LIG    1       22.023 -18.277   3.539  0.00  0.00    -0.205 F 
ATOM     12  C   LIG    1       24.205 -19.170   3.587  0.00  0.00    +0.039 A 
ATOM     13  C   LIG    1       25.169 -19.953   4.231  0.00  0.00    +0.008 A 
ENDBRANCH   2   7
BRANCH   1  14
ATOM     14  O   LIG    1       27.943 -20.173   5.737  0.00  0.00    -0.342 OA
BRANCH  14  16
ATOM     15  C   LIG    1       29.019 -18.084   5.003  0.00  0.00    +0.043 C 
ATOM     16  C   LIG    1       28.440 -18.893   6.154  0.00  0.00    +0.148 C 
BRANCH  16  17
ATOM     17  C   LIG    1       29.508 -19.096   7.237  0.00  0.00    -0.018 A 
ATOM     18  C   LIG    1       29.885 -20.393   7.642  0.00  0.00    +0.018 A 
ATOM     19  C   LIG    1       30.806 -20.600   8.690  0.00  0.00    +0.056 A 
ATOM     20  C   LIG    1       31.349 -19.484   9.343  0.00  0.00    +0.024 A 
ATOM     21  C   LIG    1       31.021 -18.182   8.939  0.00  0.00    +0.056 A 
ATOM     22  C   LIG    1       30.100 -18.001   7.891  0.00  0.00    +0.018 A 
BRANCH  19  23
ATOM     23  C   LIG    1       31.209 -21.998   9.109  0.00  0.00    +0.417 C 
ATOM     24  F   LIG    1       32.561 -22.153   9.176  0.00  0.00    -0.166 F 
ATOM     25  F   LIG    1       30.763 -22.953   8.247  0.00  0.00    -0.166 F 
ATOM     26  F   LIG    1       30.735 -22.356  10.336  0.00  0.00    -0.166 F 
ENDBRANCH  19  23
BRANCH  21  27
ATOM     27  C   LIG    1       31.622 -16.991   9.650  0.00  0.00    +0.417 C 
ATOM     28  F   LIG    1       32.467 -17.344  10.661  0.00  0.00    -0.166 F 
ATOM     29  F   LIG    1       30.672 -16.200  10.221  0.00  0.00    -0.166 F 
ATOM     30  F   LIG    1       32.344 -16.183   8.828  0.00  0.00    -0.166 F 
ENDBRANCH  21  27
ENDBRANCH  16  17
ENDBRANCH  14  16
ENDBRANCH   1  14
BRANCH   3  31
ATOM     31  C   LIG    1       25.996 -23.740   7.491  0.00  0.00    +0.161 C 
BRANCH  31  32
ATOM     32  C   LIG    1       25.616 -24.986   6.721  0.00  0.00    +0.146 C 
ATOM     33  N   LIG    1       25.804 -25.001   5.368  0.00  0.00    -0.292 N 
ATOM     34  H   LIG    1       26.215 -24.301   4.777  0.00  0.00    +0.172 HD
ATOM     35  C   LIG    1       25.472 -26.240   4.953  0.00  0.00    +0.353 C 
ATOM     36  O   LIG    1       25.550 -26.605   3.781  0.00  0.00    -0.244 OA
ATOM     37  N   LIG    1       25.046 -26.923   6.070  0.00  0.00    -0.113 N 
ATOM     38  N   LIG    1       25.179 -26.097   7.196  0.00  0.00    -0.143 NA
BRANCH  37  39
ATOM     39  P   LIG    1       24.657 -28.551   6.101  0.00  0.00    +0.457 P 
ATOM     40  O   LIG    1       24.282 -29.199   7.386  0.00  0.00    -0.233 OA
BRANCH  39  41
ATOM     41  O   LIG    1       25.877 -29.350   5.424  0.00  0.00    -0.307 OA
ATOM     42  H   LIG    1       25.940 -29.184   4.468  0.00  0.00    +0.222 HD
ENDBRANCH  39  41
BRANCH  39  43
ATOM     43  O   LIG    1       23.504 -28.809   5.008  0.00  0.00    -0.307 OA
ATOM     44  H   LIG    1       23.222 -27.980   4.585  0.00  0.00    +0.222 HD
ENDBRANCH  39  43
ENDBRANCH  37  39
ENDBRANCH  31  32
ENDBRANCH   3  31
TORSDOF 11
ENDMDL
MODEL 2
REMARK VINA RESULT:     -10.3      0.095      2.835
REMARK  Name = *****
REMARK                            x       y       z     vdW  Elec       q    Type
REMARK                         _______ _______ _______ _____ _____    ______ ____
ROOT
ATOM      1  C   LIG    1       27.103 -20.944   6.617  0.00  0.00    +0.272 C 
ATOM      2  C   LIG    1       25.848 -21.700   6.010  0.00  0.00    +0.144 C 
ATOM      3  N   LIG    1       25.217 -22.587   7.049  0.00  0.00    -0.282 NA
ATOM      4  C   LIG    1       24.902 -21.791   8.266  0.00  0.00    +0.113 C 
ATOM      5  C   LIG    1       25.991 -20.815   8.745  0.00  0.00    +0.178 C 
ATOM      6  O   LIG    1       26.666 -20.101   7.700  0.00  0.00    -0.348 OA
ENDROOT
BRANCH   2   7
ATOM      7  C   LIG    1       24.817 -20.749   5.338  0.00  0.00    -0.025 A 
ATOM      8  C   LIG    1       25.177 -19.962   4.229  0.00  0.00    +0.008 A 
ATOM      9  C   LIG    1       24.291 -19.068   3.629  0.00  0.00    +0.039 A 
ATOM     10  C   LIG    1       23.018 -18.929   4.144  0.00  0.00    +0.123 A 
ATOM     11  F   LIG    1       22.176 -18.048   3.592  0.00  0.00    -0.205 F 
ATOM     12  C   LIG    1       22.605 -19.707   5.213  0.00  0.00    +0.039 A 
ATOM     13  C   LIG    1       23.481 -20.645   5.769  0.00  0.00    +0.008 A 
ENDBRANCH   2   7
BRANCH   1  14
ATOM     14  O   LIG    1       27.891 -20.152   5.713  0.00  0.00    -0.342 OA
BRANCH  14  16
ATOM     15  C   LIG    1       29.056 -18.091   5.039  0.00  0.00    +0.043 C 
ATOM     16  C   LIG    1       28.397 -18.885   6.157  0.00  0.00    +0.148 C 
BRANCH  16  17
ATOM     17  C   LIG    1       29.399 -19.113   7.296  0.00  0.00    -0.018 A 
ATOM     18  C   LIG    1       29.995 -18.021   7.960  0.00  0.00    +0.018 A 
ATOM     19  C   LIG    1       30.978 -18.209   8.955  0.00  0.00    +0.056 A 
ATOM     20  C   LIG    1       31.368 -19.516   9.280  0.00  0.00    +0.024 A 
ATOM     21  C   LIG    1       30.768 -20.623   8.663  0.00  0.00    +0.056 A 
ATOM     22  C   LIG    1       29.791 -20.409   7.673  0.00  0.00    +0.018 A 
BRANCH  19  23
ATOM     23  C   LIG    1       31.603 -17.027   9.666  0.00  0.00    +0.417 C 
ATOM     24  F   LIG    1       32.494 -17.408  10.623  0.00  0.00    -0.166 F 
ATOM     25  F   LIG    1       30.682 -16.247  10.296  0.00  0.00    -0.166 F 
ATOM     26  F   LIG    1       32.288 -16.193   8.834  0.00  0.00    -0.166 F 
ENDBRANCH  19  23
BRANCH  21  27
ATOM     27  C   LIG    1       31.197 -22.024   9.032  0.00  0.00    +0.417 C 
ATOM     28  F   LIG    1       30.740 -22.969   8.163  0.00  0.00    -0.166 F 
ATOM     29  F   LIG    1       30.739 -22.397  10.259  0.00  0.00    -0.166 F 
ATOM     30  F   LIG    1       32.548 -22.179   9.070  0.00  0.00    -0.166 F 
ENDBRANCH  21  27
ENDBRANCH  16  17
ENDBRANCH  14  16
ENDBRANCH   1  14
BRANCH   3  31
ATOM     31  C   LIG    1       26.012 -23.772   7.434  0.00  0.00    +0.161 C 
BRANCH  31  32
ATOM     32  C   LIG    1       25.633 -25.030   6.684  0.00  0.00    +0.146 C 
ATOM     33  N   LIG    1       25.820 -25.064   5.331  0.00  0.00    -0.292 N 
ATOM     34  H   LIG    1       26.230 -24.373   4.729  0.00  0.00    +0.172 HD
ATOM     35  C   LIG    1       25.489 -26.310   4.935  0.00  0.00    +0.353 C 
ATOM     36  O   LIG    1       25.566 -26.693   3.768  0.00  0.00    -0.244 OA
ATOM     37  N   LIG    1       25.065 -26.977   6.062  0.00  0.00    -0.113 N 
ATOM     38  N   LIG    1       25.197 -26.133   7.176  0.00  0.00    -0.143 NA
BRANCH  37  39
ATOM     39  P   LIG    1       24.677 -28.604   6.118  0.00  0.00    +0.457 P 
ATOM     40  O   LIG    1       24.302 -29.232   7.413  0.00  0.00    -0.233 OA
BRANCH  39  41
ATOM     41  O   LIG    1       25.898 -29.412   5.454  0.00  0.00    -0.307 OA
ATOM     42  H   LIG    1       26.034 -30.281   5.871  0.00  0.00    +0.222 HD
ENDBRANCH  39  41
BRANCH  39  43
ATOM     43  O   LIG    1       23.524 -28.881   5.029  0.00  0.00    -0.307 OA
ATOM     44  H   LIG    1       23.289 -29.824   4.991  0.00  0.00    +0.222 HD
ENDBRANCH  39  43
ENDBRANCH  37  39
ENDBRANCH  31  32
ENDBRANCH   3  31
TORSDOF 11
ENDMDL
MODEL 3
REMARK VINA RESULT:      -9.0      5.197      9.359
REMARK  Name = *****
REMARK                            x       y       z     vdW  Elec       q    Type
REMARK                         _______ _______ _______ _____ _____    ______ ____
ROOT
ATOM      1  C   LIG    1       25.105 -20.743   6.536  0.00  0.00    +0.272 C 
ATOM      2  C   LIG    1       26.124 -21.909   6.195  0.00  0.00    +0.144 C 
ATOM      3  N   LIG    1       27.396 -21.741   6.981  0.00  0.00    -0.282 NA
ATOM      4  C   LIG    1       27.082 -21.630   8.431  0.00  0.00    +0.113 C 
ATOM      5  C   LIG    1       25.899 -20.719   8.806  0.00  0.00    +0.178 C 
ATOM      6  O   LIG    1       24.764 -20.811   7.934  0.00  0.00    -0.348 OA
ENDROOT
BRANCH   2   7
ATOM      7  C   LIG    1       25.516 -23.331   6.352  0.00  0.00    -0.025 A 
ATOM      8  C   LIG    1       26.344 -24.465   6.440  0.00  0.00    +0.008 A 
ATOM      9  C   LIG    1       25.831 -25.758   6.540  0.00  0.00    +0.039 A 
ATOM     10  C   LIG    1       24.463 -25.945   6.535  0.00  0.00    +0.123 A 
ATOM     11  F   LIG    1       23.967 -27.186   6.596  0.00  0.00    -0.205 F 
ATOM     12  C   LIG    1       23.606 -24.858   6.485  0.00  0.00    +0.039 A 
ATOM     13  C   LIG    1       24.130 -23.562   6.448  0.00  0.00    +0.008 A 
ENDBRANCH   2   7
BRANCH   1  14
ATOM     14  O   LIG    1       23.888 -20.693   5.773  0.00  0.00    -0.342 OA
BRANCH  14  16
ATOM     15  C   LIG    1       25.371 -20.064   3.911  0.00  0.00    +0.043 C 
ATOM     16  C   LIG    1       23.953 -20.356   4.380  0.00  0.00    +0.148 C 
BRANCH  16  17
ATOM     17  C   LIG    1       23.054 -19.142   4.112  0.00  0.00    -0.018 A 
ATOM     18  C   LIG    1       23.534 -17.832   4.319  0.00  0.00    +0.018 A 
ATOM     19  C   LIG    1       22.700 -16.706   4.155  0.00  0.00    +0.056 A 
ATOM     20  C   LIG    1       21.363 -16.905   3.782  0.00  0.00    +0.024 A 
ATOM     21  C   LIG    1       20.867 -18.193   3.533  0.00  0.00    +0.056 A 
ATOM     22  C   LIG    1       21.718 -19.300   3.704  0.00  0.00    +0.018 A 
BRANCH  19  23
ATOM     23  C   LIG    1       23.230 -15.305   4.373  0.00  0.00    +0.417 C 
ATOM     24  F   LIG    1       24.592 -15.256   4.364  0.00  0.00    -0.166 F 
ATOM     25  F   LIG    1       22.842 -14.776   5.566  0.00  0.00    -0.166 F 
ATOM     26  F   LIG    1       22.822 -14.416   3.423  0.00  0.00    -0.166 F 
ENDBRANCH  19  23
BRANCH  21  27
ATOM     27  C   LIG    1       19.424 -18.386   3.125  0.00  0.00    +0.417 C 
ATOM     28  F   LIG    1       18.554 -17.653   3.877  0.00  0.00    -0.166 F 
ATOM     29  F   LIG    1       19.023 -19.681   3.252  0.00  0.00    -0.166 F 
ATOM     30  F   LIG    1       19.181 -18.039   1.833  0.00  0.00    -0.166 F 
ENDBRANCH  21  27
ENDBRANCH  16  17
ENDBRANCH  14  16
ENDBRANCH   1  14
BRANCH   3  31
ATOM     31  C   LIG    1       28.240 -20.596   6.577  0.00  0.00    +0.161 C 
BRANCH  31  32
ATOM     32  C   LIG    1       29.224 -20.159   7.640  0.00  0.00    +0.146 C 
ATOM     33  N   LIG    1       30.322 -20.938   7.873  0.00  0.00    -0.292 N 
ATOM     34  H   LIG    1       30.621 -21.771   7.399  0.00  0.00    +0.172 HD
ATOM     35  C   LIG    1       31.063 -20.283   8.790  0.00  0.00    +0.353 C 
ATOM     36  O   LIG    1       32.142 -20.699   9.210  0.00  0.00    -0.244 OA
ATOM     37  N   LIG    1       30.360 -19.147   9.119  0.00  0.00    -0.113 N 
ATOM     38  N   LIG    1       29.194 -19.082   8.340  0.00  0.00    -0.143 NA
BRANCH  37  39
ATOM     39  P   LIG    1       30.928 -17.930  10.117  0.00  0.00    +0.457 P 
ATOM     40  O   LIG    1       30.405 -16.546   9.970  0.00  0.00    -0.233 OA
BRANCH  39  41
ATOM     41  O   LIG    1       32.532 -17.921  10.000  0.00  0.00    -0.307 OA
ATOM     42  H   LIG    1       32.834 -18.010   9.080  0.00  0.00    +0.222 HD
ENDBRANCH  39  41
BRANCH  39  43
ATOM     43  O   LIG    1       30.755 -18.414  11.643  0.00  0.00    -0.307 OA
ATOM     44  H   LIG    1       31.500 -18.972  11.926  0.00  0.00    +0.222 HD
ENDBRANCH  39  43
ENDBRANCH  37  39
ENDBRANCH  31  32
ENDBRANCH   3  31
TORSDOF 11
ENDMDL
MODEL 4
REMARK VINA RESULT:      -9.0      5.183      9.140
REMARK  Name = *****
REMARK                            x       y       z     vdW  Elec       q    Type
REMARK                         _______ _______ _______ _____ _____    ______ ____
ROOT
ATOM      1  C   LIG    1       25.026 -20.845   6.618  0.00  0.00    +0.272 C 
ATOM      2  C   LIG    1       26.069 -21.974   6.225  0.00  0.00    +0.144 C 
ATOM      3  N   LIG    1       27.358 -21.781   6.977  0.00  0.00    -0.282 NA
ATOM      4  C   LIG    1       27.084 -21.704   8.436  0.00  0.00    +0.113 C 
ATOM      5  C   LIG    1       25.887 -20.836   8.863  0.00  0.00    +0.178 C 
ATOM      6  O   LIG    1       24.729 -20.947   8.024  0.00  0.00    -0.348 OA
ENDROOT
BRANCH   2   7
ATOM      7  C   LIG    1       25.507 -23.416   6.375  0.00  0.00    -0.025 A 
ATOM      8  C   LIG    1       26.372 -24.521   6.478  0.00  0.00    +0.008 A 
ATOM      9  C   LIG    1       25.903 -25.830   6.571  0.00  0.00    +0.039 A 
ATOM     10  C   LIG    1       24.543 -26.065   6.545  0.00  0.00    +0.123 A 
ATOM     11  F   LIG    1       24.089 -27.323   6.599  0.00  0.00    -0.205 F 
ATOM     12  C   LIG    1       23.650 -25.008   6.480  0.00  0.00    +0.039 A 
ATOM     13  C   LIG    1       24.128 -23.694   6.449  0.00  0.00    +0.008 A 
ENDBRANCH   2   7
BRANCH   1  14
ATOM     14  O   LIG    1       23.786 -20.818   5.892  0.00  0.00    -0.342 OA
BRANCH  14  16
ATOM     15  C   LIG    1       25.205 -20.216   3.973  0.00  0.00    +0.043 C 
ATOM     16  C   LIG    1       23.801 -20.475   4.499  0.00  0.00    +0.148 C 
BRANCH  16  17
ATOM     17  C   LIG    1       22.924 -19.235   4.275  0.00  0.00    -0.018 A 
ATOM     18  C   LIG    1       21.593 -19.366   3.827  0.00  0.00    +0.018 A 
ATOM     19  C   LIG    1       20.797 -18.238   3.541  0.00  0.00    +0.056 A 
ATOM     20  C   LIG    1       21.352 -16.961   3.702  0.00  0.00    +0.024 A 
ATOM     21  C   LIG    1       22.660 -16.797   4.181  0.00  0.00    +0.056 A 
ATOM     22  C   LIG    1       23.435 -17.938   4.459  0.00  0.00    +0.018 A 
BRANCH  19  23
ATOM     23  C   LIG    1       19.367 -18.393   3.069  0.00  0.00    +0.417 C 
ATOM     24  F   LIG    1       19.199 -18.000   1.776  0.00  0.00    -0.166 F 
ATOM     25  F   LIG    1       18.489 -17.657   3.804  0.00  0.00    -0.166 F 
ATOM     26  F   LIG    1       18.912 -19.677   3.126  0.00  0.00    -0.166 F 
ENDBRANCH  19  23
BRANCH  21  27
ATOM     27  C   LIG    1       23.239 -15.412   4.354  0.00  0.00    +0.417 C 
ATOM     28  F   LIG    1       22.792 -14.526   3.420  0.00  0.00    -0.166 F 
ATOM     29  F   LIG    1       24.596 -15.405   4.251  0.00  0.00    -0.166 F 
ATOM     30  F   LIG    1       22.948 -14.857   5.561  0.00  0.00    -0.166 F 
ENDBRANCH  21  27
ENDBRANCH  16  17
ENDBRANCH  14  16
ENDBRANCH   1  14
BRANCH   3  31
ATOM     31  C   LIG    1       28.155 -20.604   6.569  0.00  0.00    +0.161 C 
BRANCH  31  32
ATOM     32  C   LIG    1       29.153 -20.153   7.612  0.00  0.00    +0.146 C 
ATOM     33  N   LIG    1       30.257 -20.925   7.838  0.00  0.00    -0.292 N 
ATOM     34  H   LIG    1       30.551 -21.762   7.368  0.00  0.00    +0.172 HD
ATOM     35  C   LIG    1       31.008 -20.258   8.736  0.00  0.00    +0.353 C 
ATOM     36  O   LIG    1       32.095 -20.665   9.145  0.00  0.00    -0.244 OA
ATOM     37  N   LIG    1       30.306 -19.120   9.063  0.00  0.00    -0.113 N 
ATOM     38  N   LIG    1       29.129 -19.068   8.300  0.00  0.00    -0.143 NA
BRANCH  37  39
ATOM     39  P   LIG    1       30.885 -17.890  10.039  0.00  0.00    +0.457 P 
ATOM     40  O   LIG    1       30.294 -16.529   9.945  0.00  0.00    -0.233 OA
BRANCH  39  41
ATOM     41  O   LIG    1       32.475 -17.810   9.821  0.00  0.00    -0.307 OA
ATOM     42  H   LIG    1       32.832 -18.619   9.413  0.00  0.00    +0.222 HD
ENDBRANCH  39  41
BRANCH  39  43
ATOM     43  O   LIG    1       30.831 -18.398  11.567  0.00  0.00    -0.307 OA
ATOM     44  H   LIG    1       31.470 -17.920  12.123  0.00  0.00    +0.222 HD
ENDBRANCH  39  43
ENDBRANCH  37  39
ENDBRANCH  31  32
ENDBRANCH   3  31
TORSDOF 11
ENDMDL
MODEL 5
REMARK VINA RESULT:      -8.3      8.375     11.830
REMARK  Name = *****
REMARK                            x       y       z     vdW  Elec       q    Type
REMARK                         _______ _______ _______ _____ _____    ______ ____
ROOT
ATOM      1  C   LIG    1       24.466 -30.551  11.580  0.00  0.00    +0.272 C 
ATOM      2  C   LIG    1       23.520 -29.844  12.639  0.00  0.00    +0.144 C 
ATOM      3  N   LIG    1       23.366 -30.706  13.863  0.00  0.00    -0.282 NA
ATOM      4  C   LIG    1       24.707 -31.057  14.403  0.00  0.00    +0.113 C 
ATOM      5  C   LIG    1       25.769 -31.483  13.373  0.00  0.00    +0.178 C 
ATOM      6  O   LIG    1       25.774 -30.721  12.159  0.00  0.00    -0.348 OA
ENDROOT
BRANCH   2   7
ATOM      7  C   LIG    1       23.954 -28.393  12.987  0.00  0.00    -0.025 A 
ATOM      8  C   LIG    1       23.003 -27.423  13.353  0.00  0.00    +0.008 A 
ATOM      9  C   LIG    1       23.354 -26.102  13.631  0.00  0.00    +0.039 A 
ATOM     10  C   LIG    1       24.675 -25.717  13.530  0.00  0.00    +0.123 A 
ATOM     11  F   LIG    1       25.011 -24.443  13.762  0.00  0.00    -0.205 F 
ATOM     12  C   LIG    1       25.653 -26.643  13.207  0.00  0.00    +0.039 A 
ATOM     13  C   LIG    1       25.300 -27.979  12.990  0.00  0.00    +0.008 A 
ENDBRANCH   2   7
BRANCH   1  14
ATOM     14  O   LIG    1       24.613 -29.910  10.302  0.00  0.00    -0.342 OA
BRANCH  14  16
ATOM     15  C   LIG    1       23.110 -31.613   9.354  0.00  0.00    +0.043 C 
ATOM     16  C   LIG    1       23.666 -30.200   9.264  0.00  0.00    +0.148 C 
BRANCH  16  17
ATOM     17  C   LIG    1       24.335 -29.990   7.899  0.00  0.00    -0.018 A 
ATOM     18  C   LIG    1       24.488 -28.693   7.364  0.00  0.00    +0.018 A 
ATOM     19  C   LIG    1       25.027 -28.485   6.078  0.00  0.00    +0.056 A 
ATOM     20  C   LIG    1       25.412 -29.598   5.318  0.00  0.00    +0.024 A 
ATOM     21  C   LIG    1       25.307 -30.897   5.836  0.00  0.00    +0.056 A 
ATOM     22  C   LIG    1       24.765 -31.080   7.122  0.00  0.00    +0.018 A 
BRANCH  19  23
ATOM     23  C   LIG    1       25.194 -27.087   5.520  0.00  0.00    +0.417 C 
ATOM     24  F   LIG    1       25.781 -27.083   4.291  0.00  0.00    -0.166 F 
ATOM     25  F   LIG    1       25.969 -26.295   6.311  0.00  0.00    -0.166 F 
ATOM     26  F   LIG    1       24.015 -26.418   5.369  0.00  0.00    -0.166 F 
ENDBRANCH  19  23
BRANCH  21  27
ATOM     27  C   LIG    1       25.733 -32.084   5.004  0.00  0.00    +0.417 C 
ATOM     28  F   LIG    1       24.915 -33.165   5.156  0.00  0.00    -0.166 F 
ATOM     29  F   LIG    1       26.983 -32.518   5.329  0.00  0.00    -0.166 F 
ATOM     30  F   LIG    1       25.758 -31.823   3.670  0.00  0.00    -0.166 F 
ENDBRANCH  21  27
ENDBRANCH  16  17
ENDBRANCH  14  16
ENDBRANCH   1  14
BRANCH   3  31
ATOM     31  C   LIG    1       22.581 -31.943  13.668  0.00  0.00    +0.161 C 
BRANCH  31  32
ATOM     32  C   LIG    1       21.171 -31.699  13.179  0.00  0.00    +0.146 C 
ATOM     33  N   LIG    1       20.332 -30.947  13.951  0.00  0.00    -0.292 N 
ATOM     34  H   LIG    1       20.523 -30.468  14.813  0.00  0.00    +0.172 HD
ATOM     35  C   LIG    1       19.188 -30.815  13.251  0.00  0.00    +0.353 C 
ATOM     36  O   LIG    1       18.220 -30.168  13.649  0.00  0.00    -0.244 OA
ATOM     37  N   LIG    1       19.356 -31.538  12.091  0.00  0.00    -0.113 N 
ATOM     38  N   LIG    1       20.654 -32.071  12.062  0.00  0.00    -0.143 NA
BRANCH  37  39
ATOM     39  P   LIG    1       18.265 -31.573  10.823  0.00  0.00    +0.457 P 
ATOM     40  O   LIG    1       17.949 -32.861  10.152  0.00  0.00    -0.233 OA
BRANCH  39  41
ATOM     41  O   LIG    1       18.760 -30.499   9.733  0.00  0.00    -0.307 OA
ATOM     42  H   LIG    1       18.369 -30.657   8.856  0.00  0.00    +0.222 HD
ENDBRANCH  39  41
BRANCH  39  43
ATOM     43  O   LIG    1       16.902 -30.872  11.317  0.00  0.00    -0.307 OA
ATOM     44  H   LIG    1       16.487 -31.372  12.040  0.00  0.00    +0.222 HD
ENDBRANCH  39  43
ENDBRANCH  37  39
ENDBRANCH  31  32
ENDBRANCH   3  31
TORSDOF 11
ENDMDL
MODEL 6
REMARK VINA RESULT:      -8.0      8.384     11.595
REMARK  Name = *****
REMARK                            x       y       z     vdW  Elec       q    Type
REMARK                         _______ _______ _______ _____ _____    ______ ____
ROOT
ATOM      1  C   LIG    1       24.602 -30.811  11.610  0.00  0.00    +0.272 C 
ATOM      2  C   LIG    1       23.699 -30.008  12.638  0.00  0.00    +0.144 C 
ATOM      3  N   LIG    1       23.503 -30.807  13.898  0.00  0.00    -0.282 NA
ATOM      4  C   LIG    1       24.824 -31.208  14.451  0.00  0.00    +0.113 C 
ATOM      5  C   LIG    1       25.858 -31.735  13.440  0.00  0.00    +0.178 C 
ATOM      6  O   LIG    1       25.901 -31.027  12.194  0.00  0.00    -0.348 OA
ENDROOT
BRANCH   2   7
ATOM      7  C   LIG    1       24.214 -28.570  12.923  0.00  0.00    -0.025 A 
ATOM      8  C   LIG    1       23.339 -27.568  13.385  0.00  0.00    +0.008 A 
ATOM      9  C   LIG    1       23.759 -26.258  13.611  0.00  0.00    +0.039 A 
ATOM     10  C   LIG    1       25.072 -25.914  13.360  0.00  0.00    +0.123 A 
ATOM     11  F   LIG    1       25.469 -24.650  13.543  0.00  0.00    -0.205 F 
ATOM     12  C   LIG    1       25.979 -26.873  12.938  0.00  0.00    +0.039 A 
ATOM     13  C   LIG    1       25.564 -28.198  12.773  0.00  0.00    +0.008 A 
ENDBRANCH   2   7
BRANCH   1  14
ATOM     14  O   LIG    1       24.780 -30.234  10.305  0.00  0.00    -0.342 OA
BRANCH  14  16
ATOM     15  C   LIG    1       22.912 -31.582   9.439  0.00  0.00    +0.043 C 
ATOM     16  C   LIG    1       23.693 -30.279   9.369  0.00  0.00    +0.148 C 
BRANCH  16  17
ATOM     17  C   LIG    1       24.242 -30.075   7.950  0.00  0.00    -0.018 A 
ATOM     18  C   LIG    1       24.596 -31.180   7.149  0.00  0.00    +0.018 A 
ATOM     19  C   LIG    1       25.175 -31.012   5.875  0.00  0.00    +0.056 A 
ATOM     20  C   LIG    1       25.405 -29.712   5.403  0.00  0.00    +0.024 A 
ATOM     21  C   LIG    1       25.030 -28.592   6.161  0.00  0.00    +0.056 A 
ATOM     22  C   LIG    1       24.455 -28.786   7.430  0.00  0.00    +0.018 A 
BRANCH  19  23
ATOM     23  C   LIG    1       25.542 -32.208   5.022  0.00  0.00    +0.417 C 
ATOM     24  F   LIG    1       26.290 -31.863   3.937  0.00  0.00    -0.166 F 
ATOM     25  F   LIG    1       24.451 -32.861   4.535  0.00  0.00    -0.166 F 
ATOM     26  F   LIG    1       26.270 -33.148   5.689  0.00  0.00    -0.166 F 
ENDBRANCH  19  23
BRANCH  21  27
ATOM     27  C   LIG    1       25.280 -27.199   5.633  0.00  0.00    +0.417 C 
ATOM     28  F   LIG    1       26.058 -26.446   6.461  0.00  0.00    -0.166 F 
ATOM     29  F   LIG    1       24.125 -26.496   5.469  0.00  0.00    -0.166 F 
ATOM     30  F   LIG    1       25.905 -27.187   4.425  0.00  0.00    -0.166 F 
ENDBRANCH  21  27
ENDBRANCH  16  17
ENDBRANCH  14  16
ENDBRANCH   1  14
BRANCH   3  31
ATOM     31  C   LIG    1       22.650 -32.007  13.757  0.00  0.00    +0.161 C 
BRANCH  31  32
ATOM     32  C   LIG    1       21.253 -31.707  13.259  0.00  0.00    +0.146 C 
ATOM     33  N   LIG    1       20.474 -30.848  13.981  0.00  0.00    -0.292 N 
ATOM     34  H   LIG    1       20.704 -30.322  14.804  0.00  0.00    +0.172 HD
ATOM     35  C   LIG    1       19.333 -30.692  13.279  0.00  0.00    +0.353 C 
ATOM     36  O   LIG    1       18.413 -29.956  13.635  0.00  0.00    -0.244 OA
ATOM     37  N   LIG    1       19.442 -31.505  12.173  0.00  0.00    -0.113 N 
ATOM     38  N   LIG    1       20.702 -32.122  12.175  0.00  0.00    -0.143 NA
BRANCH  37  39
ATOM     39  P   LIG    1       18.338 -31.559  10.917  0.00  0.00    +0.457 P 
ATOM     40  O   LIG    1       18.007 -32.859  10.276  0.00  0.00    -0.233 OA
BRANCH  39  41
ATOM     41  O   LIG    1       18.828 -30.512   9.800  0.00  0.00    -0.307 OA
ATOM     42  H   LIG    1       19.633 -30.036  10.070  0.00  0.00    +0.222 HD
ENDBRANCH  39  41
BRANCH  39  43
ATOM     43  O   LIG    1       16.985 -30.839  11.410  0.00  0.00    -0.307 OA
ATOM     44  H   LIG    1       16.572 -30.327  10.692  0.00  0.00    +0.222 HD
ENDBRANCH  39  43
ENDBRANCH  37  39
ENDBRANCH  31  32
ENDBRANCH   3  31
TORSDOF 11
ENDMDL
MODEL 7
REMARK VINA RESULT:      -7.6      6.245     10.385
REMARK  Name = *****
REMARK                            x       y       z     vdW  Elec       q    Type
REMARK                         _______ _______ _______ _____ _____    ______ ____
ROOT
ATOM      1  C   LIG    1       24.713 -29.127   8.583  0.00  0.00    +0.272 C 
ATOM      2  C   LIG    1       24.609 -29.244   7.004  0.00  0.00    +0.144 C 
ATOM      3  N   LIG    1       24.981 -27.938   6.356  0.00  0.00    -0.282 NA
ATOM      4  C   LIG    1       26.321 -27.503   6.834  0.00  0.00    +0.113 C 
ATOM      5  C   LIG    1       26.585 -27.637   8.345  0.00  0.00    +0.178 C 
ATOM      6  O   LIG    1       26.077 -28.836   8.944  0.00  0.00    -0.348 OA
ENDROOT
BRANCH   2   7
ATOM      7  C   LIG    1       25.404 -30.444   6.418  0.00  0.00    -0.025 A 
ATOM      8  C   LIG    1       25.408 -30.700   5.034  0.00  0.00    +0.008 A 
ATOM      9  C   LIG    1       26.076 -31.791   4.479  0.00  0.00    +0.039 A 
ATOM     10  C   LIG    1       26.744 -32.669   5.309  0.00  0.00    +0.123 A 
ATOM     11  F   LIG    1       27.357 -33.736   4.784  0.00  0.00    -0.205 F 
ATOM     12  C   LIG    1       26.798 -32.441   6.674  0.00  0.00    +0.039 A 
ATOM     13  C   LIG    1       26.177 -31.310   7.215  0.00  0.00    +0.008 A 
ENDBRANCH   2   7
BRANCH   1  14
ATOM     14  O   LIG    1       24.268 -30.256   9.354  0.00  0.00    -0.342 OA
BRANCH  14  16
ATOM     15  C   LIG    1       24.516 -31.865  11.199  0.00  0.00    +0.043 C 
ATOM     16  C   LIG    1       24.844 -30.486  10.647  0.00  0.00    +0.148 C 
BRANCH  16  17
ATOM     17  C   LIG    1       24.351 -29.405  11.619  0.00  0.00    -0.018 A 
ATOM     18  C   LIG    1       22.980 -29.283  11.925  0.00  0.00    +0.018 A 
ATOM     19  C   LIG    1       22.498 -28.248  12.752  0.00  0.00    +0.056 A 
ATOM     20  C   LIG    1       23.410 -27.320  13.274  0.00  0.00    +0.024 A 
ATOM     21  C   LIG    1       24.784 -27.436  13.018  0.00  0.00    +0.056 A 
ATOM     22  C   LIG    1       25.240 -28.477  12.188  0.00  0.00    +0.018 A 
BRANCH  19  23
ATOM     23  C   LIG    1       21.024 -28.134  13.079  0.00  0.00    +0.417 C 
ATOM     24  F   LIG    1       20.298 -29.175  12.583  0.00  0.00    -0.166 F 
ATOM     25  F   LIG    1       20.459 -27.005  12.571  0.00  0.00    -0.166 F 
ATOM     26  F   LIG    1       20.765 -28.108  14.418  0.00  0.00    -0.166 F 
ENDBRANCH  19  23
BRANCH  21  27
ATOM     27  C   LIG    1       25.753 -26.429  13.594  0.00  0.00    +0.417 C 
ATOM     28  F   LIG    1       26.103 -26.703  14.883  0.00  0.00    -0.166 F 
ATOM     29  F   LIG    1       25.236 -25.170  13.611  0.00  0.00    -0.166 F 
ATOM     30  F   LIG    1       26.920 -26.350  12.901  0.00  0.00    -0.166 F 
ENDBRANCH  21  27
ENDBRANCH  16  17
ENDBRANCH  14  16
ENDBRANCH   1  14
BRANCH   3  31
ATOM     31  C   LIG    1       24.014 -26.838   6.552  0.00  0.00    +0.161 C 
BRANCH  31  32
ATOM     32  C   LIG    1       24.614 -25.460   6.378  0.00  0.00    +0.146 C 
ATOM     33  N   LIG    1       24.314 -24.755   5.248  0.00  0.00    -0.292 N 
ATOM     34  H   LIG    1       23.692 -24.995   4.497  0.00  0.00    +0.172 HD
ATOM     35  C   LIG    1       24.898 -23.548   5.388  0.00  0.00    +0.353 C 
ATOM     36  O   LIG    1       24.805 -22.649   4.552  0.00  0.00    -0.244 OA
ATOM     37  N   LIG    1       25.577 -23.581   6.584  0.00  0.00    -0.113 N 
ATOM     38  N   LIG    1       25.351 -24.816   7.211  0.00  0.00    -0.143 NA
BRANCH  37  39
ATOM     39  P   LIG    1       26.353 -22.270   7.278  0.00  0.00    +0.457 P 
ATOM     40  O   LIG    1       27.828 -22.130   7.154  0.00  0.00    -0.233 OA
BRANCH  39  41
ATOM     41  O   LIG    1       25.930 -22.226   8.828  0.00  0.00    -0.307 OA
ATOM     42  H   LIG    1       26.620 -22.593   9.408  0.00  0.00    +0.222 HD
ENDBRANCH  39  41
BRANCH  39  43
ATOM     43  O   LIG    1       25.636 -20.929   6.748  0.00  0.00    -0.307 OA
ATOM     44  H   LIG    1       25.430 -20.987   5.798  0.00  0.00    +0.222 HD
ENDBRANCH  39  43
ENDBRANCH  37  39
ENDBRANCH  31  32
ENDBRANCH   3  31
TORSDOF 11
ENDMDL
MODEL 8
REMARK VINA RESULT:      -7.4      7.245     11.459
REMARK  Name = *****
REMARK                            x       y       z     vdW  Elec       q    Type
REMARK                         _______ _______ _______ _____ _____    ______ ____
ROOT
ATOM      1  C   LIG    1       24.406 -29.484   8.397  0.00  0.00    +0.272 C 
ATOM      2  C   LIG    1       24.567 -29.484   6.820  0.00  0.00    +0.144 C 
ATOM      3  N   LIG    1       25.014 -28.130   6.339  0.00  0.00    -0.282 NA
ATOM      4  C   LIG    1       26.247 -27.720   7.063  0.00  0.00    +0.113 C 
ATOM      5  C   LIG    1       26.260 -27.965   8.583  0.00  0.00    +0.178 C 
ATOM      6  O   LIG    1       25.685 -29.210   9.000  0.00  0.00    -0.348 OA
ENDROOT
BRANCH   2   7
ATOM      7  C   LIG    1       25.473 -30.630   6.288  0.00  0.00    -0.025 A 
ATOM      8  C   LIG    1       25.531 -30.926   4.914  0.00  0.00    +0.008 A 
ATOM      9  C   LIG    1       26.300 -31.973   4.408  0.00  0.00    +0.039 A 
ATOM     10  C   LIG    1       27.020 -32.766   5.279  0.00  0.00    +0.123 A 
ATOM     11  F   LIG    1       27.732 -33.793   4.800  0.00  0.00    -0.205 F 
ATOM     12  C   LIG    1       27.023 -32.493   6.637  0.00  0.00    +0.039 A 
ATOM     13  C   LIG    1       26.298 -31.403   7.128  0.00  0.00    +0.008 A 
ENDBRANCH   2   7
BRANCH   1  14
ATOM     14  O   LIG    1       23.864 -30.671   9.000  0.00  0.00    -0.342 OA
BRANCH  14  16
ATOM     15  C   LIG    1       24.250 -32.411  10.698  0.00  0.00    +0.043 C 
ATOM     16  C   LIG    1       24.120 -30.927  10.388  0.00  0.00    +0.148 C 
BRANCH  16  17
ATOM     17  C   LIG    1       22.991 -30.316  11.230  0.00  0.00    -0.018 A 
ATOM     18  C   LIG    1       21.736 -30.952  11.321  0.00  0.00    +0.018 A 
ATOM     19  C   LIG    1       20.662 -30.367  12.024  0.00  0.00    +0.056 A 
ATOM     20  C   LIG    1       20.855 -29.122  12.638  0.00  0.00    +0.024 A 
ATOM     21  C   LIG    1       22.103 -28.482  12.597  0.00  0.00    +0.056 A 
ATOM     22  C   LIG    1       23.158 -29.085  11.889  0.00  0.00    +0.018 A 
BRANCH  19  23
ATOM     23  C   LIG    1       19.322 -31.065  12.121  0.00  0.00    +0.417 C 
ATOM     24  F   LIG    1       19.436 -32.356  12.542  0.00  0.00    -0.166 F 
ATOM     25  F   LIG    1       18.668 -31.115  10.928  0.00  0.00    -0.166 F 
ATOM     26  F   LIG    1       18.460 -30.467  12.991  0.00  0.00    -0.166 F 
ENDBRANCH  19  23
BRANCH  21  27
ATOM     27  C   LIG    1       22.293 -27.143  13.271  0.00  0.00    +0.417 C 
ATOM     28  F   LIG    1       23.529 -26.609  13.059  0.00  0.00    -0.166 F 
ATOM     29  F   LIG    1       22.151 -27.223  14.623  0.00  0.00    -0.166 F 
ATOM     30  F   LIG    1       21.406 -26.201  12.853  0.00  0.00    -0.166 F 
ENDBRANCH  21  27
ENDBRANCH  16  17
ENDBRANCH  14  16
ENDBRANCH   1  14
BRANCH   3  31
ATOM     31  C   LIG    1       24.005 -27.056   6.450  0.00  0.00    +0.161 C 
BRANCH  31  32
ATOM     32  C   LIG    1       24.580 -25.663   6.318  0.00  0.00    +0.146 C 
ATOM     33  N   LIG    1       24.363 -24.974   5.158  0.00  0.00    -0.292 N 
ATOM     34  H   LIG    1       23.819 -25.237   4.357  0.00  0.00    +0.172 HD
ATOM     35  C   LIG    1       24.899 -23.750   5.339  0.00  0.00    +0.353 C 
ATOM     36  O   LIG    1       24.858 -22.860   4.491  0.00  0.00    -0.244 OA
ATOM     37  N   LIG    1       25.468 -23.756   6.593  0.00  0.00    -0.113 N 
ATOM     38  N   LIG    1       25.220 -24.992   7.208  0.00  0.00    -0.143 NA
BRANCH  37  39
ATOM     39  P   LIG    1       26.141 -22.418   7.341  0.00  0.00    +0.457 P 
ATOM     40  O   LIG    1       26.051 -22.271   8.817  0.00  0.00    -0.233 OA
BRANCH  39  41
ATOM     41  O   LIG    1       25.536 -21.112   6.625  0.00  0.00    -0.307 OA
ATOM     42  H   LIG    1       26.169 -20.702   6.011  0.00  0.00    +0.222 HD
ENDBRANCH  39  41
BRANCH  39  43
ATOM     43  O   LIG    1       27.680 -22.310   6.879  0.00  0.00    -0.307 OA
ATOM     44  H   LIG    1       28.002 -21.393   6.928  0.00  0.00    +0.222 HD
ENDBRANCH  39  43
ENDBRANCH  37  39
ENDBRANCH  31  32
ENDBRANCH   3  31
TORSDOF 11
ENDMDL
