MODEL 1
REMARK VINA RESULT:      -5.2      0.000      0.000
REMARK  Name = *****
REMARK                            x       y       z     vdW  Elec       q    Type
REMARK                         _______ _______ _______ _____ _____    ______ ____
ROOT
ATOM      1  C   LIG    1       25.634 -19.323   4.148  0.00  0.00    +0.213 C 
ENDROOT
BRANCH   1   2
ATOM      2  C   LIG    1       24.608 -20.124   4.967  0.00  0.00    -0.001 A 
ATOM      3  C   LIG    1       24.910 -20.561   6.271  0.00  0.00    +0.007 A 
ATOM      4  C   LIG    1       23.976 -21.273   7.030  0.00  0.00    +0.000 A 
ATOM      5  C   LIG    1       22.724 -21.572   6.497  0.00  0.00    +0.000 A 
ATOM      6  C   LIG    1       22.408 -21.164   5.205  0.00  0.00    +0.000 A 
ATOM      7  C   LIG    1       23.340 -20.447   4.448  0.00  0.00    +0.007 A 
ENDBRANCH   1   2
BRANCH   1   8
ATOM      8  C   LIG    1       27.000 -19.236   4.858  0.00  0.00    -0.001 A 
ATOM      9  C   LIG    1       27.315 -20.158   5.880  0.00  0.00    +0.007 A 
ATOM     10  C   LIG    1       28.539 -20.111   6.553  0.00  0.00    +0.000 A 
ATOM     11  C   LIG    1       29.475 -19.134   6.233  0.00  0.00    +0.000 A 
ATOM     12  C   LIG    1       29.180 -18.198   5.249  0.00  0.00    +0.000 A 
ATOM     13  C   LIG    1       27.955 -18.242   4.580  0.00  0.00    +0.007 A 
ENDBRANCH   1   8
BRANCH   1  14
ATOM     14  C   LIG    1       25.007 -17.935   3.754  0.00  0.00    +0.349 C 
ATOM     15  O   LIG    1       23.885 -17.729   3.320  0.00  0.00    -0.247 OA
BRANCH  14  16
ATOM     16  O   LIG    1       25.926 -16.916   3.881  0.00  0.00    -0.453 OA
BRANCH  16  20
ATOM     17  C   LIG    1       24.196 -12.789   5.007  0.00  0.00    +0.192 C 
ATOM     18  N   LIG    1       25.226 -13.588   4.229  0.00  0.00    +0.244 N 
ATOM     19  C   LIG    1       24.594 -14.902   3.713  0.00  0.00    +0.178 C 
ATOM     20  C   LIG    1       25.682 -15.770   3.045  0.00  0.00    +0.225 C 
ATOM     21  C   LIG    1       26.979 -14.945   2.906  0.00  0.00    +0.045 C 
ATOM     22  C   LIG    1       26.648 -13.639   2.176  0.00  0.00    +0.058 C 
ATOM     23  C   LIG    1       27.511 -14.589   4.304  0.00  0.00    +0.058 C 
ATOM     24  C   LIG    1       25.728 -12.766   3.031  0.00  0.00    +0.133 C 
ATOM     25  C   LIG    1       26.411 -13.940   5.145  0.00  0.00    +0.133 C 
ENDBRANCH  16  20
ENDBRANCH  14  16
ENDBRANCH   1  14
BRANCH   1  26
ATOM     26  O   LIG    1       25.859 -19.996   2.880  0.00  0.00    -0.370 OA
ATOM     27  H   LIG    1       26.636 -20.569   3.006  0.00  0.00    +0.212 HD
ENDBRANCH   1  26
TORSDOF 6
ENDMDL
MODEL 2
REMARK VINA RESULT:      -4.4      1.467      2.721
REMARK  Name = *****
REMARK                            x       y       z     vdW  Elec       q    Type
REMARK                         _______ _______ _______ _____ _____    ______ ____
ROOT
ATOM      1  C   LIG    1       25.761 -18.760   3.885  0.00  0.00    +0.213 C 
ENDROOT
BRANCH   1   2
ATOM      2  C   LIG    1       24.294 -18.321   4.032  0.00  0.00    -0.001 A 
ATOM      3  C   LIG    1       23.252 -19.267   3.988  0.00  0.00    +0.007 A 
ATOM      4  C   LIG    1       21.917 -18.879   4.141  0.00  0.00    +0.000 A 
ATOM      5  C   LIG    1       21.596 -17.537   4.329  0.00  0.00    +0.000 A 
ATOM      6  C   LIG    1       22.608 -16.583   4.361  0.00  0.00    +0.000 A 
ATOM      7  C   LIG    1       23.943 -16.970   4.214  0.00  0.00    +0.007 A 
ENDBRANCH   1   2
BRANCH   1   8
ATOM      8  C   LIG    1       26.186 -19.743   4.994  0.00  0.00    -0.001 A 
ATOM      9  C   LIG    1       27.522 -19.746   5.450  0.00  0.00    +0.007 A 
ATOM     10  C   LIG    1       27.949 -20.625   6.450  0.00  0.00    +0.000 A 
ATOM     11  C   LIG    1       27.058 -21.533   7.009  0.00  0.00    +0.000 A 
ATOM     12  C   LIG    1       25.744 -21.570   6.560  0.00  0.00    +0.000 A 
ATOM     13  C   LIG    1       25.317 -20.695   5.558  0.00  0.00    +0.007 A 
ENDBRANCH   1   8
BRANCH   1  14
ATOM     14  C   LIG    1       26.669 -17.482   3.755  0.00  0.00    +0.349 C 
ATOM     15  O   LIG    1       27.852 -17.385   4.041  0.00  0.00    -0.247 OA
BRANCH  14  16
ATOM     16  O   LIG    1       25.942 -16.391   3.330  0.00  0.00    -0.453 OA
BRANCH  16  20
ATOM     17  C   LIG    1       24.578 -12.149   2.133  0.00  0.00    +0.192 C 
ATOM     18  N   LIG    1       25.578 -13.024   2.868  0.00  0.00    +0.244 N 
ATOM     19  C   LIG    1       25.822 -14.328   2.072  0.00  0.00    +0.178 C 
ATOM     20  C   LIG    1       26.729 -15.269   2.891  0.00  0.00    +0.225 C 
ATOM     21  C   LIG    1       27.278 -14.510   4.119  0.00  0.00    +0.045 C 
ATOM     22  C   LIG    1       27.947 -13.221   3.634  0.00  0.00    +0.058 C 
ATOM     23  C   LIG    1       26.112 -14.125   5.044  0.00  0.00    +0.058 C 
ATOM     24  C   LIG    1       26.909 -12.274   3.028  0.00  0.00    +0.133 C 
ATOM     25  C   LIG    1       25.024 -13.394   4.256  0.00  0.00    +0.133 C 
ENDBRANCH  16  20
ENDBRANCH  14  16
ENDBRANCH   1  14
BRANCH   1  26
ATOM     26  O   LIG    1       25.924 -19.455   2.619  0.00  0.00    -0.370 OA
ATOM     27  H   LIG    1       25.206 -20.110   2.569  0.00  0.00    +0.212 HD
ENDBRANCH   1  26
TORSDOF 6
ENDMDL
MODEL 3
REMARK VINA RESULT:      -3.9      0.857      2.143
REMARK  Name = *****
REMARK                            x       y       z     vdW  Elec       q    Type
REMARK                         _______ _______ _______ _____ _____    ______ ____
ROOT
ATOM      1  C   LIG    1       25.717 -19.310   4.084  0.00  0.00    +0.213 C 
ENDROOT
BRANCH   1   2
ATOM      2  C   LIG    1       24.602 -20.078   4.814  0.00  0.00    -0.001 A 
ATOM      3  C   LIG    1       23.389 -20.376   4.164  0.00  0.00    +0.007 A 
ATOM      4  C   LIG    1       22.378 -21.091   4.814  0.00  0.00    +0.000 A 
ATOM      5  C   LIG    1       22.553 -21.510   6.131  0.00  0.00    +0.000 A 
ATOM      6  C   LIG    1       23.737 -21.213   6.799  0.00  0.00    +0.000 A 
ATOM      7  C   LIG    1       24.751 -20.504   6.148  0.00  0.00    +0.007 A 
ENDBRANCH   1   2
BRANCH   1   8
ATOM      8  C   LIG    1       27.027 -19.280   4.897  0.00  0.00    -0.001 A 
ATOM      9  C   LIG    1       28.029 -18.340   4.571  0.00  0.00    +0.007 A 
ATOM     10  C   LIG    1       29.233 -18.283   5.280  0.00  0.00    +0.000 A 
ATOM     11  C   LIG    1       29.473 -19.172   6.321  0.00  0.00    +0.000 A 
ATOM     12  C   LIG    1       28.515 -20.124   6.646  0.00  0.00    +0.000 A 
ATOM     13  C   LIG    1       27.314 -20.184   5.935  0.00  0.00    +0.007 A 
ENDBRANCH   1   8
BRANCH   1  14
ATOM     14  C   LIG    1       25.174 -17.896   3.658  0.00  0.00    +0.349 C 
ATOM     15  O   LIG    1       24.017 -17.594   3.412  0.00  0.00    -0.247 OA
BRANCH  14  16
ATOM     16  O   LIG    1       26.200 -16.989   3.507  0.00  0.00    -0.453 OA
BRANCH  16  20
ATOM     17  C   LIG    1       28.915 -13.261   3.642  0.00  0.00    +0.192 C 
ATOM     18  N   LIG    1       27.511 -13.837   3.683  0.00  0.00    +0.244 N 
ATOM     19  C   LIG    1       27.518 -15.187   4.440  0.00  0.00    +0.178 C 
ATOM     20  C   LIG    1       26.118 -15.831   4.357  0.00  0.00    +0.225 C 
ATOM     21  C   LIG    1       25.123 -14.816   3.754  0.00  0.00    +0.045 C 
ATOM     22  C   LIG    1       25.197 -13.521   4.569  0.00  0.00    +0.058 C 
ATOM     23  C   LIG    1       25.535 -14.494   2.308  0.00  0.00    +0.058 C 
ATOM     24  C   LIG    1       26.567 -12.861   4.403  0.00  0.00    +0.133 C 
ATOM     25  C   LIG    1       27.005 -14.081   2.251  0.00  0.00    +0.133 C 
ENDBRANCH  16  20
ENDBRANCH  14  16
ENDBRANCH   1  14
BRANCH   1  26
ATOM     26  O   LIG    1       26.014 -19.981   2.830  0.00  0.00    -0.370 OA
ATOM     27  H   LIG    1       25.741 -20.909   2.942  0.00  0.00    +0.212 HD
ENDBRANCH   1  26
TORSDOF 6
ENDMDL
MODEL 4
REMARK VINA RESULT:      -3.3      1.345      2.503
REMARK  Name = *****
REMARK                            x       y       z     vdW  Elec       q    Type
REMARK                         _______ _______ _______ _____ _____    ______ ____
ROOT
ATOM      1  C   LIG    1       25.689 -18.862   3.734  0.00  0.00    +0.213 C 
ENDROOT
BRANCH   1   2
ATOM      2  C   LIG    1       24.170 -18.853   3.979  0.00  0.00    -0.001 A 
ATOM      3  C   LIG    1       23.449 -20.059   4.071  0.00  0.00    +0.007 A 
ATOM      4  C   LIG    1       22.071 -20.061   4.313  0.00  0.00    +0.000 A 
ATOM      5  C   LIG    1       21.386 -18.857   4.456  0.00  0.00    +0.000 A 
ATOM      6  C   LIG    1       22.074 -17.652   4.354  0.00  0.00    +0.000 A 
ATOM      7  C   LIG    1       23.453 -17.650   4.118  0.00  0.00    +0.007 A 
ENDBRANCH   1   2
BRANCH   1   8
ATOM      8  C   LIG    1       26.454 -19.576   4.866  0.00  0.00    -0.001 A 
ATOM      9  C   LIG    1       25.753 -20.410   5.763  0.00  0.00    +0.007 A 
ATOM     10  C   LIG    1       26.408 -21.071   6.807  0.00  0.00    +0.000 A 
ATOM     11  C   LIG    1       27.775 -20.904   6.990  0.00  0.00    +0.000 A 
ATOM     12  C   LIG    1       28.485 -20.068   6.138  0.00  0.00    +0.000 A 
ATOM     13  C   LIG    1       27.830 -19.403   5.098  0.00  0.00    +0.007 A 
ENDBRANCH   1   8
BRANCH   1  14
ATOM     14  C   LIG    1       26.170 -17.393   3.437  0.00  0.00    +0.349 C 
ATOM     15  O   LIG    1       27.322 -16.996   3.359  0.00  0.00    -0.247 OA
BRANCH  14  16
ATOM     16  O   LIG    1       25.104 -16.527   3.339  0.00  0.00    -0.453 OA
BRANCH  16  20
ATOM     17  C   LIG    1       28.335 -13.259   3.756  0.00  0.00    +0.192 C 
ATOM     18  N   LIG    1       26.860 -13.618   3.710  0.00  0.00    +0.244 N 
ATOM     19  C   LIG    1       26.627 -14.979   4.407  0.00  0.00    +0.178 C 
ATOM     20  C   LIG    1       25.152 -15.401   4.234  0.00  0.00    +0.225 C 
ATOM     21  C   LIG    1       24.352 -14.225   3.632  0.00  0.00    +0.045 C 
ATOM     22  C   LIG    1       24.577 -12.986   4.504  0.00  0.00    +0.058 C 
ATOM     23  C   LIG    1       24.880 -13.918   2.220  0.00  0.00    +0.058 C 
ATOM     24  C   LIG    1       26.037 -12.537   4.428  0.00  0.00    +0.133 C 
ATOM     25  C   LIG    1       26.397 -13.731   2.247  0.00  0.00    +0.133 C 
ENDBRANCH  16  20
ENDBRANCH  14  16
ENDBRANCH   1  14
BRANCH   1  26
ATOM     26  O   LIG    1       25.968 -19.593   2.509  0.00  0.00    -0.370 OA
ATOM     27  H   LIG    1       25.133 -19.626   2.011  0.00  0.00    +0.212 HD
ENDBRANCH   1  26
TORSDOF 6
ENDMDL
