MODEL 1
REMARK VINA RESULT:      -7.0      0.000      0.000
REMARK  Name = *****
REMARK                            x       y       z     vdW  Elec       q    Type
REMARK                         _______ _______ _______ _____ _____    ______ ____
ROOT
ATOM      1  C   LIG    1       23.774 -21.774   6.429  0.00  0.00    +0.132 C 
ATOM      2  C   LIG    1       25.311 -22.083   6.577  0.00  0.00    +0.014 C 
ATOM      3  C   LIG    1       25.998 -20.953   5.738  0.00  0.00    +0.002 C 
ATOM      4  C   LIG    1       26.711 -19.795   6.494  0.00  0.00    -0.003 C 
ATOM      5  C   LIG    1       27.356 -20.228   7.831  0.00  0.00    -0.000 C 
ATOM      6  C   LIG    1       26.259 -20.859   8.685  0.00  0.00    +0.005 C 
ATOM      7  C   LIG    1       28.612 -21.108   7.587  0.00  0.00    +0.019 C 
ATOM      8  C   LIG    1       29.586 -20.297   6.752  0.00  0.00    -0.063 C 
ATOM      9  C   LIG    1       30.793 -19.894   7.188  0.00  0.00    +0.045 C 
ATOM     10  C   LIG    1       31.212 -20.129   8.590  0.00  0.00    +0.156 C 
ATOM     11  C   LIG    1       30.181 -20.672   9.552  0.00  0.00    +0.079 C 
ATOM     12  O   LIG    1       32.337 -19.799   8.948  0.00  0.00    -0.293 OA
ATOM     13  C   LIG    1       29.051 -19.896   5.405  0.00  0.00    +0.031 C 
ATOM     14  C   LIG    1       29.282 -21.678   8.850  0.00  0.00    +0.016 C 
ATOM     15  C   LIG    1       27.754 -19.095   5.584  0.00  0.00    +0.008 C 
ATOM     16  C   LIG    1       24.900 -20.383   4.804  0.00  0.00    +0.008 C 
ATOM     17  C   LIG    1       25.736 -22.149   8.080  0.00  0.00    +0.011 C 
ATOM     18  C   LIG    1       23.632 -21.202   5.021  0.00  0.00    +0.049 C 
ENDROOT
BRANCH   1  20
ATOM     19  C   LIG    1       22.312 -23.929   6.828  0.00  0.00    +0.007 C 
ATOM     20  C   LIG    1       22.973 -22.955   6.648  0.00  0.00    -0.070 C 
ENDBRANCH   1  20
BRANCH   2  21
ATOM     21  C   LIG    1       25.745 -23.488   5.985  0.00  0.00    +0.007 C 
ATOM     22  C   LIG    1       25.976 -24.665   6.923  0.00  0.00    +0.004 C 
ENDBRANCH   2  21
BRANCH   1  23
ATOM     23  O   LIG    1       23.387 -20.755   7.349  0.00  0.00    -0.376 OA
ATOM     24  H   LIG    1       23.338 -19.924   6.845  0.00  0.00    +0.211 HD
ENDBRANCH   1  23
TORSDOF 3
ENDMDL
MODEL 2
REMARK VINA RESULT:      -5.6      7.932     10.030
REMARK  Name = *****
REMARK                            x       y       z     vdW  Elec       q    Type
REMARK                         _______ _______ _______ _____ _____    ______ ____
ROOT
ATOM      1  C   LIG    1       25.408 -31.486  10.959  0.00  0.00    +0.132 C 
ATOM      2  C   LIG    1       25.476 -29.913  11.027  0.00  0.00    +0.014 C 
ATOM      3  C   LIG    1       24.219 -29.527  11.879  0.00  0.00    +0.002 C 
ATOM      4  C   LIG    1       24.432 -29.058  13.347  0.00  0.00    -0.003 C 
ATOM      5  C   LIG    1       25.751 -28.282  13.568  0.00  0.00    -0.000 C 
ATOM      6  C   LIG    1       26.894 -29.179  13.098  0.00  0.00    +0.005 C 
ATOM      7  C   LIG    1       25.687 -26.873  12.919  0.00  0.00    +0.019 C 
ATOM      8  C   LIG    1       24.513 -26.136  13.536  0.00  0.00    -0.063 C 
ATOM      9  C   LIG    1       24.636 -25.032  14.295  0.00  0.00    +0.045 C 
ATOM     10  C   LIG    1       25.972 -24.517  14.677  0.00  0.00    +0.156 C 
ATOM     11  C   LIG    1       27.177 -25.364  14.338  0.00  0.00    +0.079 C 
ATOM     12  O   LIG    1       26.059 -23.479  15.324  0.00  0.00    -0.293 OA
ATOM     13  C   LIG    1       23.183 -26.798  13.304  0.00  0.00    +0.031 C 
ATOM     14  C   LIG    1       26.982 -26.045  12.992  0.00  0.00    +0.016 C 
ATOM     15  C   LIG    1       23.220 -28.232  13.850  0.00  0.00    +0.008 C 
ATOM     16  C   LIG    1       23.279 -30.759  11.844  0.00  0.00    +0.008 C 
ATOM     17  C   LIG    1       26.846 -29.427  11.601  0.00  0.00    +0.011 C 
ATOM     18  C   LIG    1       23.916 -31.805  10.935  0.00  0.00    +0.049 C 
ENDROOT
BRANCH   1  20
ATOM     19  C   LIG    1       26.706 -32.418   8.864  0.00  0.00    +0.007 C 
ATOM     20  C   LIG    1       26.119 -31.997   9.811  0.00  0.00    -0.070 C 
ENDBRANCH   1  20
BRANCH   2  21
ATOM     21  C   LIG    1       25.367 -29.203   9.614  0.00  0.00    +0.007 C 
ATOM     22  C   LIG    1       26.510 -28.327   9.119  0.00  0.00    +0.004 C 
ENDBRANCH   2  21
BRANCH   1  23
ATOM     23  O   LIG    1       25.951 -32.052  12.150  0.00  0.00    -0.376 OA
ATOM     24  H   LIG    1       26.173 -32.977  11.947  0.00  0.00    +0.211 HD
ENDBRANCH   1  23
TORSDOF 3
ENDMDL
MODEL 3
REMARK VINA RESULT:      -5.5      7.725     10.176
REMARK  Name = *****
REMARK                            x       y       z     vdW  Elec       q    Type
REMARK                         _______ _______ _______ _____ _____    ______ ____
ROOT
ATOM      1  C   LIG    1       25.086 -31.706   7.497  0.00  0.00    +0.132 C 
ATOM      2  C   LIG    1       25.065 -30.364   8.323  0.00  0.00    +0.014 C 
ATOM      3  C   LIG    1       24.028 -30.649   9.462  0.00  0.00    +0.002 C 
ATOM      4  C   LIG    1       24.556 -30.893  10.904  0.00  0.00    -0.003 C 
ATOM      5  C   LIG    1       25.836 -30.094  11.243  0.00  0.00    -0.000 C 
ATOM      6  C   LIG    1       26.889 -30.450  10.195  0.00  0.00    +0.005 C 
ATOM      7  C   LIG    1       25.525 -28.581  11.401  0.00  0.00    +0.019 C 
ATOM      8  C   LIG    1       24.489 -28.438  12.500  0.00  0.00    -0.063 C 
ATOM      9  C   LIG    1       24.717 -27.816  13.671  0.00  0.00    +0.045 C 
ATOM     10  C   LIG    1       26.069 -27.315  14.014  0.00  0.00    +0.156 C 
ATOM     11  C   LIG    1       27.210 -27.679  13.091  0.00  0.00    +0.079 C 
ATOM     12  O   LIG    1       26.241 -26.704  15.063  0.00  0.00    -0.293 OA
ATOM     13  C   LIG    1       23.188 -29.135  12.210  0.00  0.00    +0.031 C 
ATOM     14  C   LIG    1       26.743 -27.672  11.644  0.00  0.00    +0.016 C 
ATOM     15  C   LIG    1       23.449 -30.626  11.957  0.00  0.00    +0.008 C 
ATOM     16  C   LIG    1       23.190 -31.864   8.988  0.00  0.00    +0.008 C 
ATOM     17  C   LIG    1       26.497 -29.971   8.809  0.00  0.00    +0.011 C 
ATOM     18  C   LIG    1       23.657 -32.232   7.583  0.00  0.00    +0.049 C 
ENDROOT
BRANCH   1  20
ATOM     19  C   LIG    1       25.900 -31.304   5.024  0.00  0.00    +0.007 C 
ATOM     20  C   LIG    1       25.532 -31.486   6.141  0.00  0.00    -0.070 C 
ENDBRANCH   1  20
BRANCH   2  21
ATOM     21  C   LIG    1       24.573 -29.106   7.493  0.00  0.00    +0.007 C 
ATOM     22  C   LIG    1       25.525 -27.942   7.250  0.00  0.00    +0.004 C 
ENDBRANCH   2  21
BRANCH   1  23
ATOM     23  O   LIG    1       25.936 -32.659   8.133  0.00  0.00    -0.376 OA
ATOM     24  H   LIG    1       25.911 -33.465   7.589  0.00  0.00    +0.211 HD
ENDBRANCH   1  23
TORSDOF 3
ENDMDL
MODEL 4
REMARK VINA RESULT:      -5.5      7.407     10.583
REMARK  Name = *****
REMARK                            x       y       z     vdW  Elec       q    Type
REMARK                         _______ _______ _______ _____ _____    ______ ____
ROOT
ATOM      1  C   LIG    1       23.730 -32.820  10.939  0.00  0.00    +0.132 C 
ATOM      2  C   LIG    1       23.599 -31.453  10.167  0.00  0.00    +0.014 C 
ATOM      3  C   LIG    1       24.964 -30.737  10.451  0.00  0.00    +0.002 C 
ATOM      4  C   LIG    1       26.015 -30.661   9.307  0.00  0.00    -0.003 C 
ATOM      5  C   LIG    1       25.393 -30.549   7.896  0.00  0.00    -0.000 C 
ATOM      6  C   LIG    1       24.456 -31.740   7.713  0.00  0.00    +0.005 C 
ATOM      7  C   LIG    1       24.758 -29.149   7.674  0.00  0.00    +0.019 C 
ATOM      8  C   LIG    1       25.850 -28.113   7.871  0.00  0.00    -0.063 C 
ATOM      9  C   LIG    1       26.304 -27.307   6.894  0.00  0.00    +0.045 C 
ATOM     10  C   LIG    1       25.831 -27.463   5.498  0.00  0.00    +0.156 C 
ATOM     11  C   LIG    1       24.963 -28.659   5.179  0.00  0.00    +0.079 C 
ATOM     12  O   LIG    1       26.219 -26.684   4.636  0.00  0.00    -0.293 OA
ATOM     13  C   LIG    1       26.458 -28.117   9.246  0.00  0.00    +0.031 C 
ATOM     14  C   LIG    1       24.023 -28.955   6.336  0.00  0.00    +0.016 C 
ATOM     15  C   LIG    1       27.024 -29.510   9.554  0.00  0.00    +0.008 C 
ATOM     16  C   LIG    1       25.573 -31.446  11.688  0.00  0.00    +0.008 C 
ATOM     17  C   LIG    1       23.268 -31.681   8.657  0.00  0.00    +0.011 C 
ATOM     18  C   LIG    1       24.567 -32.487  12.170  0.00  0.00    +0.049 C 
ENDROOT
BRANCH   1  20
ATOM     19  C   LIG    1       21.367 -33.825  11.529  0.00  0.00    +0.007 C 
ATOM     20  C   LIG    1       22.435 -33.371  11.262  0.00  0.00    -0.070 C 
ENDBRANCH   1  20
BRANCH   2  21
ATOM     21  C   LIG    1       22.424 -30.527  10.691  0.00  0.00    +0.007 C 
ATOM     22  C   LIG    1       22.731 -29.391  11.657  0.00  0.00    +0.004 C 
ENDBRANCH   2  21
BRANCH   1  23
ATOM     23  O   LIG    1       24.468 -33.757  10.156  0.00  0.00    -0.376 OA
ATOM     24  H   LIG    1       25.306 -33.917  10.625  0.00  0.00    +0.211 HD
ENDBRANCH   1  23
TORSDOF 3
ENDMDL
MODEL 5
REMARK VINA RESULT:      -5.5      8.327     10.779
REMARK  Name = *****
REMARK                            x       y       z     vdW  Elec       q    Type
REMARK                         _______ _______ _______ _____ _____    ______ ____
ROOT
ATOM      1  C   LIG    1       24.830 -32.930   6.280  0.00  0.00    +0.132 C 
ATOM      2  C   LIG    1       24.828 -31.542   7.025  0.00  0.00    +0.014 C 
ATOM      3  C   LIG    1       23.877 -31.781   8.247  0.00  0.00    +0.002 C 
ATOM      4  C   LIG    1       24.507 -31.927   9.661  0.00  0.00    -0.003 C 
ATOM      5  C   LIG    1       25.785 -31.080   9.865  0.00  0.00    -0.000 C 
ATOM      6  C   LIG    1       26.774 -31.475   8.771  0.00  0.00    +0.005 C 
ATOM      7  C   LIG    1       25.445 -29.567   9.956  0.00  0.00    +0.019 C 
ATOM      8  C   LIG    1       24.481 -29.382  11.112  0.00  0.00    -0.063 C 
ATOM      9  C   LIG    1       24.770 -28.686  12.226  0.00  0.00    +0.045 C 
ATOM     10  C   LIG    1       26.128 -28.135  12.447  0.00  0.00    +0.156 C 
ATOM     11  C   LIG    1       27.214 -28.528  11.472  0.00  0.00    +0.079 C 
ATOM     12  O   LIG    1       26.353 -27.459  13.444  0.00  0.00    -0.293 OA
ATOM     13  C   LIG    1       23.182 -30.125  10.953  0.00  0.00    +0.031 C 
ATOM     14  C   LIG    1       26.652 -28.619  10.062  0.00  0.00    +0.016 C 
ATOM     15  C   LIG    1       23.465 -31.622  10.769  0.00  0.00    +0.008 C 
ATOM     16  C   LIG    1       23.042 -33.041   7.903  0.00  0.00    +0.008 C 
ATOM     17  C   LIG    1       26.279 -31.089   7.389  0.00  0.00    +0.011 C 
ATOM     18  C   LIG    1       23.423 -33.482   6.493  0.00  0.00    +0.049 C 
ENDROOT
BRANCH   1  20
ATOM     19  C   LIG    1       25.466 -32.660   3.738  0.00  0.00    +0.007 C 
ATOM     20  C   LIG    1       25.179 -32.782   4.886  0.00  0.00    -0.070 C 
ENDBRANCH   1  20
BRANCH   2  21
ATOM     21  C   LIG    1       24.249 -30.347   6.159  0.00  0.00    +0.007 C 
ATOM     22  C   LIG    1       24.490 -28.909   6.599  0.00  0.00    +0.004 C 
ENDBRANCH   2  21
BRANCH   1  23
ATOM     23  O   LIG    1       25.745 -33.824   6.911  0.00  0.00    -0.376 OA
ATOM     24  H   LIG    1       25.358 -34.061   7.772  0.00  0.00    +0.211 HD
ENDBRANCH   1  23
TORSDOF 3
ENDMDL
MODEL 6
REMARK VINA RESULT:      -5.2      8.872     11.582
REMARK  Name = *****
REMARK                            x       y       z     vdW  Elec       q    Type
REMARK                         _______ _______ _______ _____ _____    ______ ____
ROOT
ATOM      1  C   LIG    1       23.869 -30.261  12.016  0.00  0.00    +0.132 C 
ATOM      2  C   LIG    1       24.807 -30.192  10.753  0.00  0.00    +0.014 C 
ATOM      3  C   LIG    1       25.555 -31.568  10.773  0.00  0.00    +0.002 C 
ATOM      4  C   LIG    1       25.145 -32.651   9.735  0.00  0.00    -0.003 C 
ATOM      5  C   LIG    1       24.685 -32.072   8.377  0.00  0.00    -0.000 C 
ATOM      6  C   LIG    1       23.537 -31.106   8.658  0.00  0.00    +0.005 C 
ATOM      7  C   LIG    1       25.885 -31.484   7.585  0.00  0.00    +0.019 C 
ATOM      8  C   LIG    1       26.894 -32.599   7.386  0.00  0.00    -0.063 C 
ATOM      9  C   LIG    1       27.228 -33.103   6.184  0.00  0.00    +0.045 C 
ATOM     10  C   LIG    1       26.527 -32.663   4.954  0.00  0.00    +0.156 C 
ATOM     11  C   LIG    1       25.317 -31.770   5.114  0.00  0.00    +0.079 C 
ATOM     12  O   LIG    1       26.884 -33.098   3.865  0.00  0.00    -0.293 OA
ATOM     13  C   LIG    1       27.439 -33.169   8.666  0.00  0.00    +0.031 C 
ATOM     14  C   LIG    1       25.531 -30.791   6.257  0.00  0.00    +0.016 C 
ATOM     15  C   LIG    1       26.282 -33.687   9.531  0.00  0.00    +0.008 C 
ATOM     16  C   LIG    1       25.399 -32.122  12.212  0.00  0.00    +0.008 C 
ATOM     17  C   LIG    1       23.991 -29.895   9.453  0.00  0.00    +0.011 C 
ATOM     18  C   LIG    1       24.659 -31.074  13.037  0.00  0.00    +0.049 C 
ENDROOT
BRANCH   1  20
ATOM     19  C   LIG    1       23.225 -27.856  12.875  0.00  0.00    +0.007 C 
ATOM     20  C   LIG    1       23.516 -28.943  12.487  0.00  0.00    -0.070 C 
ENDBRANCH   1  20
BRANCH   2  21
ATOM     21  C   LIG    1       25.884 -29.029  10.814  0.00  0.00    +0.007 C 
ATOM     22  C   LIG    1       26.554 -28.553   9.533  0.00  0.00    +0.004 C 
ENDBRANCH   2  21
BRANCH   1  23
ATOM     23  O   LIG    1       22.684 -30.993  11.707  0.00  0.00    -0.376 OA
ATOM     24  H   LIG    1       22.909 -31.599  10.980  0.00  0.00    +0.211 HD
ENDBRANCH   1  23
TORSDOF 3
ENDMDL
MODEL 7
REMARK VINA RESULT:      -5.2      9.036     10.705
REMARK  Name = *****
REMARK                            x       y       z     vdW  Elec       q    Type
REMARK                         _______ _______ _______ _____ _____    ______ ____
ROOT
ATOM      1  C   LIG    1       20.810 -28.359  14.005  0.00  0.00    +0.132 C 
ATOM      2  C   LIG    1       22.138 -28.985  13.432  0.00  0.00    +0.014 C 
ATOM      3  C   LIG    1       23.060 -27.740  13.196  0.00  0.00    +0.002 C 
ATOM      4  C   LIG    1       24.240 -27.492  14.178  0.00  0.00    -0.003 C 
ATOM      5  C   LIG    1       24.867 -28.790  14.738  0.00  0.00    -0.000 C 
ATOM      6  C   LIG    1       23.749 -29.590  15.401  0.00  0.00    +0.005 C 
ATOM      7  C   LIG    1       25.676 -29.538  13.643  0.00  0.00    +0.019 C 
ATOM      8  C   LIG    1       26.747 -28.591  13.136  0.00  0.00    -0.063 C 
ATOM      9  C   LIG    1       28.067 -28.801  13.289  0.00  0.00    +0.045 C 
ATOM     10  C   LIG    1       28.567 -29.948  14.084  0.00  0.00    +0.156 C 
ATOM     11  C   LIG    1       27.556 -30.764  14.856  0.00  0.00    +0.079 C 
ATOM     12  O   LIG    1       29.774 -30.148  14.165  0.00  0.00    -0.293 OA
ATOM     13  C   LIG    1       26.209 -27.332  12.514  0.00  0.00    +0.031 C 
ATOM     14  C   LIG    1       26.266 -30.896  14.061  0.00  0.00    +0.016 C 
ATOM     15  C   LIG    1       25.325 -26.595  13.529  0.00  0.00    +0.008 C 
ATOM     16  C   LIG    1       22.120 -26.507  13.170  0.00  0.00    +0.008 C 
ATOM     17  C   LIG    1       22.717 -30.070  14.396  0.00  0.00    +0.011 C 
ATOM     18  C   LIG    1       20.686 -27.011  13.301  0.00  0.00    +0.049 C 
ENDROOT
BRANCH   1  20
ATOM     19  C   LIG    1       18.743 -29.940  13.594  0.00  0.00    +0.007 C 
ATOM     20  C   LIG    1       19.677 -29.226  13.780  0.00  0.00    -0.070 C 
ENDBRANCH   1  20
BRANCH   2  21
ATOM     21  C   LIG    1       21.949 -29.744  12.054  0.00  0.00    +0.007 C 
ATOM     22  C   LIG    1       23.143 -29.936  11.128  0.00  0.00    +0.004 C 
ENDBRANCH   2  21
BRANCH   1  23
ATOM     23  O   LIG    1       20.950 -28.105  15.401  0.00  0.00    -0.376 OA
ATOM     24  H   LIG    1       20.900 -27.141  15.519  0.00  0.00    +0.211 HD
ENDBRANCH   1  23
TORSDOF 3
ENDMDL
MODEL 8
REMARK VINA RESULT:      -5.1      8.806     10.625
REMARK  Name = *****
REMARK                            x       y       z     vdW  Elec       q    Type
REMARK                         _______ _______ _______ _____ _____    ______ ____
ROOT
ATOM      1  C   LIG    1       23.471 -32.146  10.017  0.00  0.00    +0.132 C 
ATOM      2  C   LIG    1       23.898 -30.658  10.310  0.00  0.00    +0.014 C 
ATOM      3  C   LIG    1       22.698 -30.087  11.141  0.00  0.00    +0.002 C 
ATOM      4  C   LIG    1       22.888 -29.871  12.669  0.00  0.00    -0.003 C 
ATOM      5  C   LIG    1       24.328 -29.473  13.068  0.00  0.00    -0.000 C 
ATOM      6  C   LIG    1       25.266 -30.555  12.537  0.00  0.00    +0.005 C 
ATOM      7  C   LIG    1       24.651 -28.020  12.622  0.00  0.00    +0.019 C 
ATOM      8  C   LIG    1       23.633 -27.103  13.274  0.00  0.00    -0.063 C 
ATOM      9  C   LIG    1       23.944 -26.165  14.187  0.00  0.00    +0.045 C 
ATOM     10  C   LIG    1       25.326 -26.042  14.708  0.00  0.00    +0.156 C 
ATOM     11  C   LIG    1       26.324 -27.108  14.318  0.00  0.00    +0.079 C 
ATOM     12  O   LIG    1       25.597 -25.146  15.500  0.00  0.00    -0.293 OA
ATOM     13  C   LIG    1       22.210 -27.388  12.880  0.00  0.00    +0.031 C 
ATOM     14  C   LIG    1       26.092 -27.548  12.881  0.00  0.00    +0.016 C 
ATOM     15  C   LIG    1       21.864 -28.844  13.218  0.00  0.00    +0.008 C 
ATOM     16  C   LIG    1       21.503 -31.040  10.881  0.00  0.00    +0.008 C 
ATOM     17  C   LIG    1       25.289 -30.594  11.019  0.00  0.00    +0.011 C 
ATOM     18  C   LIG    1       21.954 -32.088   9.868  0.00  0.00    +0.049 C 
ENDROOT
BRANCH   1  20
ATOM     19  C   LIG    1       24.689 -33.098   7.884  0.00  0.00    +0.007 C 
ATOM     20  C   LIG    1       24.139 -32.668   8.848  0.00  0.00    -0.070 C 
ENDBRANCH   1  20
BRANCH   2  21
ATOM     21  C   LIG    1       24.080 -29.772   9.008  0.00  0.00    +0.007 C 
ATOM     22  C   LIG    1       25.467 -29.281   8.617  0.00  0.00    +0.004 C 
ENDBRANCH   2  21
BRANCH   1  23
ATOM     23  O   LIG    1       23.762 -32.971  11.144  0.00  0.00    -0.376 OA
ATOM     24  H   LIG    1       24.415 -33.630  10.849  0.00  0.00    +0.211 HD
ENDBRANCH   1  23
TORSDOF 3
ENDMDL
MODEL 9
REMARK VINA RESULT:      -5.1      8.604     11.263
REMARK  Name = *****
REMARK                            x       y       z     vdW  Elec       q    Type
REMARK                         _______ _______ _______ _____ _____    ______ ____
ROOT
ATOM      1  C   LIG    1       25.306 -30.681  12.918  0.00  0.00    +0.132 C 
ATOM      2  C   LIG    1       24.678 -30.926  11.494  0.00  0.00    +0.014 C 
ATOM      3  C   LIG    1       25.120 -29.666  10.673  0.00  0.00    +0.002 C 
ATOM      4  C   LIG    1       26.242 -29.829   9.609  0.00  0.00    -0.003 C 
ATOM      5  C   LIG    1       26.248 -31.211   8.915  0.00  0.00    -0.000 C 
ATOM      6  C   LIG    1       26.358 -32.272  10.008  0.00  0.00    +0.005 C 
ATOM      7  C   LIG    1       25.039 -31.357   7.951  0.00  0.00    +0.019 C 
ATOM      8  C   LIG    1       25.127 -30.237   6.931  0.00  0.00    -0.063 C 
ATOM      9  C   LIG    1       25.327 -30.434   5.615  0.00  0.00    +0.045 C 
ATOM     10  C   LIG    1       25.593 -31.791   5.082  0.00  0.00    +0.156 C 
ATOM     11  C   LIG    1       25.805 -32.909   6.076  0.00  0.00    +0.079 C 
ATOM     12  O   LIG    1       25.719 -31.952   3.874  0.00  0.00    -0.293 OA
ATOM     13  C   LIG    1       25.061 -28.858   7.528  0.00  0.00    +0.031 C 
ATOM     14  C   LIG    1       24.887 -32.732   7.276  0.00  0.00    +0.016 C 
ATOM     15  C   LIG    1       26.185 -28.690   8.559  0.00  0.00    +0.008 C 
ATOM     16  C   LIG    1       25.526 -28.594  11.716  0.00  0.00    +0.008 C 
ATOM     17  C   LIG    1       25.130 -32.299  10.901  0.00  0.00    +0.011 C 
ATOM     18  C   LIG    1       25.254 -29.167  13.104  0.00  0.00    +0.049 C 
ENDROOT
BRANCH   1  20
ATOM     19  C   LIG    1       24.005 -32.004  14.787  0.00  0.00    +0.007 C 
ATOM     20  C   LIG    1       24.592 -31.406  13.942  0.00  0.00    -0.070 C 
ENDBRANCH   1  20
BRANCH   2  21
ATOM     21  C   LIG    1       23.094 -31.000  11.493  0.00  0.00    +0.007 C 
ATOM     22  C   LIG    1       22.318 -30.548  10.263  0.00  0.00    +0.004 C 
ENDBRANCH   2  21
BRANCH   1  23
ATOM     23  O   LIG    1       26.678 -31.069  12.922  0.00  0.00    -0.376 OA
ATOM     24  H   LIG    1       26.738 -31.885  13.448  0.00  0.00    +0.211 HD
ENDBRANCH   1  23
TORSDOF 3
ENDMDL
