MODEL 1
REMARK VINA RESULT:      -2.0      0.000      0.000
REMARK  Name = *****
REMARK                            x       y       z     vdW  Elec       q    Type
REMARK                         _______ _______ _______ _____ _____    ______ ____
ROOT
ATOM      1  O   LIG    1       23.964 -15.717   4.275  0.00  0.00    -0.461 OA
ENDROOT
BRANCH   1  10
ATOM      2  C   LIG    1       25.544 -11.661   2.595  0.00  0.00    +0.193 C 
ATOM      3  N   LIG    1       26.366 -12.820   3.147  0.00  0.00    +0.247 N 
ATOM      4  C   LIG    1       27.829 -12.338   3.031  0.00  0.00    +0.193 C 
ATOM      5  C   LIG    1       26.043 -13.273   4.601  0.00  0.00    +0.102 C 
ATOM      6  C   LIG    1       26.664 -14.654   4.782  0.00  0.00    +0.201 C 
ATOM      7  C   LIG    1       26.719 -15.260   3.413  0.00  0.00    +0.201 C 
ATOM      8  O   LIG    1       27.908 -14.953   4.135  0.00  0.00    -0.357 OA
ATOM      9  C   LIG    1       24.507 -13.420   4.712  0.00  0.00    +0.102 C 
ATOM     10  C   LIG    1       23.908 -14.398   3.667  0.00  0.00    +0.187 C 
ATOM     11  C   LIG    1       24.652 -14.449   2.306  0.00  0.00    +0.102 C 
ATOM     12  C   LIG    1       26.170 -14.208   2.456  0.00  0.00    +0.102 C 
ENDBRANCH   1  10
BRANCH   1  13
ATOM     13  C   LIG    1       22.784 -16.249   4.718  0.00  0.00    +0.317 C 
ATOM     14  O   LIG    1       22.081 -15.702   5.551  0.00  0.00    -0.250 OA
BRANCH  13  15
ATOM     15  C   LIG    1       22.410 -17.515   3.942  0.00  0.00    +0.153 C 
BRANCH  15  16
ATOM     16  C   LIG    1       23.203 -18.755   4.358  0.00  0.00    -0.032 A 
ATOM     17  C   LIG    1       24.416 -19.071   3.721  0.00  0.00    +0.004 A 
ATOM     18  C   LIG    1       25.151 -20.202   4.097  0.00  0.00    +0.000 A 
ATOM     19  C   LIG    1       24.687 -21.034   5.112  0.00  0.00    +0.000 A 
ATOM     20  C   LIG    1       23.480 -20.744   5.742  0.00  0.00    +0.000 A 
ATOM     21  C   LIG    1       22.742 -19.617   5.368  0.00  0.00    +0.004 A 
ENDBRANCH  15  16
BRANCH  15  22
ATOM     22  C   LIG    1       20.894 -17.763   4.032  0.00  0.00    +0.175 C 
BRANCH  22  23
ATOM     23  O   LIG    1       20.395 -18.484   2.907  0.00  0.00    -0.394 OA
ATOM     24  H   LIG    1       19.636 -19.020   3.220  0.00  0.00    +0.209 HD
ENDBRANCH  22  23
ENDBRANCH  15  22
ENDBRANCH  13  15
ENDBRANCH   1  13
TORSDOF 6
ENDMDL
MODEL 2
REMARK VINA RESULT:      -1.2      2.098      3.265
REMARK  Name = *****
REMARK                            x       y       z     vdW  Elec       q    Type
REMARK                         _______ _______ _______ _____ _____    ______ ____
ROOT
ATOM      1  O   LIG    1       26.271 -16.566   3.461  0.00  0.00    -0.461 OA
ENDROOT
BRANCH   1  10
ATOM      2  C   LIG    1       23.980 -12.552   2.825  0.00  0.00    +0.193 C 
ATOM      3  N   LIG    1       25.073 -12.845   3.846  0.00  0.00    +0.247 N 
ATOM      4  C   LIG    1       25.236 -11.518   4.620  0.00  0.00    +0.193 C 
ATOM      5  C   LIG    1       24.816 -14.031   4.821  0.00  0.00    +0.102 C 
ATOM      6  C   LIG    1       26.161 -14.391   5.444  0.00  0.00    +0.201 C 
ATOM      7  C   LIG    1       27.197 -13.975   4.445  0.00  0.00    +0.201 C 
ATOM      8  O   LIG    1       27.106 -13.349   5.722  0.00  0.00    -0.357 OA
ATOM      9  C   LIG    1       24.341 -15.235   3.975  0.00  0.00    +0.102 C 
ATOM     10  C   LIG    1       25.340 -15.628   2.855  0.00  0.00    +0.187 C 
ATOM     11  C   LIG    1       26.150 -14.452   2.248  0.00  0.00    +0.102 C 
ATOM     12  C   LIG    1       26.443 -13.343   3.281  0.00  0.00    +0.102 C 
ENDBRANCH   1  10
BRANCH   1  13
ATOM     13  C   LIG    1       26.016 -17.899   3.285  0.00  0.00    +0.317 C 
ATOM     14  O   LIG    1       26.004 -18.433   2.189  0.00  0.00    -0.250 OA
BRANCH  13  15
ATOM     15  C   LIG    1       25.893 -18.631   4.624  0.00  0.00    +0.153 C 
BRANCH  15  16
ATOM     16  C   LIG    1       24.598 -19.432   4.777  0.00  0.00    -0.032 A 
ATOM     17  C   LIG    1       24.619 -20.719   5.342  0.00  0.00    +0.004 A 
ATOM     18  C   LIG    1       23.439 -21.457   5.489  0.00  0.00    +0.000 A 
ATOM     19  C   LIG    1       22.221 -20.925   5.074  0.00  0.00    +0.000 A 
ATOM     20  C   LIG    1       22.186 -19.658   4.497  0.00  0.00    +0.000 A 
ATOM     21  C   LIG    1       23.362 -18.918   4.346  0.00  0.00    +0.004 A 
ENDBRANCH  15  16
BRANCH  15  22
ATOM     22  C   LIG    1       27.130 -19.515   4.860  0.00  0.00    +0.175 C 
BRANCH  22  23
ATOM     23  O   LIG    1       28.343 -18.766   4.835  0.00  0.00    -0.394 OA
ATOM     24  H   LIG    1       28.487 -18.416   5.739  0.00  0.00    +0.209 HD
ENDBRANCH  22  23
ENDBRANCH  15  22
ENDBRANCH  13  15
ENDBRANCH   1  13
TORSDOF 6
ENDMDL
MODEL 3
REMARK VINA RESULT:      -1.2      1.168      1.668
REMARK  Name = *****
REMARK                            x       y       z     vdW  Elec       q    Type
REMARK                         _______ _______ _______ _____ _____    ______ ____
ROOT
ATOM      1  O   LIG    1       24.754 -16.474   4.229  0.00  0.00    -0.461 OA
ENDROOT
BRANCH   1  10
ATOM      2  C   LIG    1       24.977 -12.262   2.234  0.00  0.00    +0.193 C 
ATOM      3  N   LIG    1       26.043 -12.944   3.082  0.00  0.00    +0.247 N 
ATOM      4  C   LIG    1       27.200 -11.922   3.136  0.00  0.00    +0.193 C 
ATOM      5  C   LIG    1       25.620 -13.381   4.516  0.00  0.00    +0.102 C 
ATOM      6  C   LIG    1       26.669 -14.375   5.003  0.00  0.00    +0.201 C 
ATOM      7  C   LIG    1       27.238 -15.006   3.770  0.00  0.00    +0.201 C 
ATOM      8  O   LIG    1       28.039 -14.192   4.622  0.00  0.00    -0.357 OA
ATOM      9  C   LIG    1       24.271 -14.129   4.395  0.00  0.00    +0.102 C 
ATOM     10  C   LIG    1       24.326 -15.339   3.426  0.00  0.00    +0.187 C 
ATOM     11  C   LIG    1       25.302 -15.185   2.230  0.00  0.00    +0.102 C 
ATOM     12  C   LIG    1       26.544 -14.340   2.587  0.00  0.00    +0.102 C 
ENDBRANCH   1  10
BRANCH   1  13
ATOM     13  C   LIG    1       24.857 -17.682   3.594  0.00  0.00    +0.317 C 
ATOM     14  O   LIG    1       25.840 -18.012   2.951  0.00  0.00    -0.250 OA
BRANCH  13  15
ATOM     15  C   LIG    1       23.666 -18.590   3.911  0.00  0.00    +0.153 C 
BRANCH  15  16
ATOM     16  C   LIG    1       23.954 -19.638   4.987  0.00  0.00    -0.032 A 
ATOM     17  C   LIG    1       25.230 -20.218   5.093  0.00  0.00    +0.004 A 
ATOM     18  C   LIG    1       25.505 -21.175   6.076  0.00  0.00    +0.000 A 
ATOM     19  C   LIG    1       24.511 -21.570   6.968  0.00  0.00    +0.000 A 
ATOM     20  C   LIG    1       23.237 -21.018   6.866  0.00  0.00    +0.000 A 
ATOM     21  C   LIG    1       22.958 -20.062   5.884  0.00  0.00    +0.004 A 
ENDBRANCH  15  16
BRANCH  15  22
ATOM     22  C   LIG    1       22.434 -17.741   4.271  0.00  0.00    +0.175 C 
BRANCH  22  23
ATOM     23  O   LIG    1       21.220 -18.319   3.796  0.00  0.00    -0.394 OA
ATOM     24  H   LIG    1       21.096 -18.016   2.872  0.00  0.00    +0.209 HD
ENDBRANCH  22  23
ENDBRANCH  15  22
ENDBRANCH  13  15
ENDBRANCH   1  13
TORSDOF 6
ENDMDL
MODEL 4
REMARK VINA RESULT:      -1.1      1.408      2.864
REMARK  Name = *****
REMARK                            x       y       z     vdW  Elec       q    Type
REMARK                         _______ _______ _______ _____ _____    ______ ____
ROOT
ATOM      1  O   LIG    1       25.091 -16.629   3.671  0.00  0.00    -0.461 OA
ENDROOT
BRANCH   1  10
ATOM      2  C   LIG    1       27.842 -12.889   3.211  0.00  0.00    +0.193 C 
ATOM      3  N   LIG    1       26.319 -12.924   3.227  0.00  0.00    +0.247 N 
ATOM      4  C   LIG    1       25.903 -11.447   3.047  0.00  0.00    +0.193 C 
ATOM      5  C   LIG    1       25.631 -13.830   2.164  0.00  0.00    +0.102 C 
ATOM      6  C   LIG    1       24.189 -14.029   2.620  0.00  0.00    +0.201 C 
ATOM      7  C   LIG    1       24.208 -13.879   4.110  0.00  0.00    +0.201 C 
ATOM      8  O   LIG    1       23.508 -12.955   3.281  0.00  0.00    -0.357 OA
ATOM      9  C   LIG    1       26.339 -15.205   2.196  0.00  0.00    +0.102 C 
ATOM     10  C   LIG    1       26.327 -15.867   3.599  0.00  0.00    +0.187 C 
ATOM     11  C   LIG    1       26.370 -14.882   4.796  0.00  0.00    +0.102 C 
ATOM     12  C   LIG    1       25.647 -13.552   4.491  0.00  0.00    +0.102 C 
ENDBRANCH   1  10
BRANCH   1  13
ATOM     13  C   LIG    1       25.156 -17.954   3.337  0.00  0.00    +0.317 C 
ATOM     14  O   LIG    1       26.143 -18.464   2.832  0.00  0.00    -0.250 OA
BRANCH  13  15
ATOM     15  C   LIG    1       23.912 -18.715   3.803  0.00  0.00    +0.153 C 
BRANCH  15  16
ATOM     16  C   LIG    1       24.178 -19.703   4.940  0.00  0.00    -0.032 A 
ATOM     17  C   LIG    1       23.133 -20.114   5.785  0.00  0.00    +0.004 A 
ATOM     18  C   LIG    1       23.366 -21.020   6.826  0.00  0.00    +0.000 A 
ATOM     19  C   LIG    1       24.644 -21.529   7.040  0.00  0.00    +0.000 A 
ATOM     20  C   LIG    1       25.694 -21.120   6.222  0.00  0.00    +0.000 A 
ATOM     21  C   LIG    1       25.465 -20.213   5.182  0.00  0.00    +0.004 A 
ENDBRANCH  15  16
BRANCH  15  22
ATOM     22  C   LIG    1       22.792 -17.726   4.169  0.00  0.00    +0.175 C 
BRANCH  22  23
ATOM     23  O   LIG    1       21.497 -18.232   3.852  0.00  0.00    -0.394 OA
ATOM     24  H   LIG    1       21.574 -18.713   3.001  0.00  0.00    +0.209 HD
ENDBRANCH  22  23
ENDBRANCH  15  22
ENDBRANCH  13  15
ENDBRANCH   1  13
TORSDOF 6
ENDMDL
MODEL 5
REMARK VINA RESULT:      -1.0      1.634      2.701
REMARK  Name = *****
REMARK                            x       y       z     vdW  Elec       q    Type
REMARK                         _______ _______ _______ _____ _____    ______ ____
ROOT
ATOM      1  O   LIG    1       25.388 -15.978   3.336  0.00  0.00    -0.461 OA
ENDROOT
BRANCH   1  10
ATOM      2  C   LIG    1       29.223 -13.320   3.352  0.00  0.00    +0.193 C 
ATOM      3  N   LIG    1       27.937 -13.097   4.138  0.00  0.00    +0.247 N 
ATOM      4  C   LIG    1       28.192 -11.793   4.925  0.00  0.00    +0.193 C 
ATOM      5  C   LIG    1       26.622 -12.999   3.309  0.00  0.00    +0.102 C 
ATOM      6  C   LIG    1       25.467 -13.192   4.287  0.00  0.00    +0.201 C 
ATOM      7  C   LIG    1       26.017 -14.018   5.409  0.00  0.00    +0.201 C 
ATOM      8  O   LIG    1       25.584 -12.676   5.620  0.00  0.00    -0.357 OA
ATOM      9  C   LIG    1       26.610 -14.183   2.313  0.00  0.00    +0.102 C 
ATOM     10  C   LIG    1       26.742 -15.565   3.004  0.00  0.00    +0.187 C 
ATOM     11  C   LIG    1       27.594 -15.578   4.301  0.00  0.00    +0.102 C 
ATOM     12  C   LIG    1       27.488 -14.254   5.089  0.00  0.00    +0.102 C 
ENDBRANCH   1  10
BRANCH   1  13
ATOM     13  C   LIG    1       25.120 -17.319   3.302  0.00  0.00    +0.317 C 
ATOM     14  O   LIG    1       25.967 -18.159   3.046  0.00  0.00    -0.250 OA
BRANCH  13  15
ATOM     15  C   LIG    1       23.689 -17.620   3.755  0.00  0.00    +0.153 C 
BRANCH  15  16
ATOM     16  C   LIG    1       23.513 -19.009   4.371  0.00  0.00    -0.032 A 
ATOM     17  C   LIG    1       24.634 -19.770   4.746  0.00  0.00    +0.004 A 
ATOM     18  C   LIG    1       24.482 -21.040   5.314  0.00  0.00    +0.000 A 
ATOM     19  C   LIG    1       23.211 -21.572   5.515  0.00  0.00    +0.000 A 
ATOM     20  C   LIG    1       22.091 -20.838   5.135  0.00  0.00    +0.000 A 
ATOM     21  C   LIG    1       22.238 -19.570   4.565  0.00  0.00    +0.004 A 
ENDBRANCH  15  16
BRANCH  15  22
ATOM     22  C   LIG    1       23.191 -16.518   4.706  0.00  0.00    +0.175 C 
BRANCH  22  23
ATOM     23  O   LIG    1       22.857 -15.316   4.014  0.00  0.00    -0.394 OA
ATOM     24  H   LIG    1       22.137 -15.534   3.386  0.00  0.00    +0.209 HD
ENDBRANCH  22  23
ENDBRANCH  15  22
ENDBRANCH  13  15
ENDBRANCH   1  13
TORSDOF 6
ENDMDL
MODEL 6
REMARK VINA RESULT:      -0.9      1.965      3.498
REMARK  Name = *****
REMARK                            x       y       z     vdW  Elec       q    Type
REMARK                         _______ _______ _______ _____ _____    ______ ____
ROOT
ATOM      1  O   LIG    1       26.306 -16.361   3.891  0.00  0.00    -0.461 OA
ENDROOT
BRANCH   1  10
ATOM      2  C   LIG    1       26.273 -11.886   2.571  0.00  0.00    +0.193 C 
ATOM      3  N   LIG    1       25.185 -12.638   3.327  0.00  0.00    +0.247 N 
ATOM      4  C   LIG    1       24.074 -11.586   3.543  0.00  0.00    +0.193 C 
ATOM      5  C   LIG    1       24.616 -13.915   2.641  0.00  0.00    +0.102 C 
ATOM      6  C   LIG    1       23.878 -14.704   3.718  0.00  0.00    +0.201 C 
ATOM      7  C   LIG    1       24.529 -14.332   5.015  0.00  0.00    +0.201 C 
ATOM      8  O   LIG    1       23.171 -13.995   4.745  0.00  0.00    -0.357 OA
ATOM      9  C   LIG    1       25.820 -14.764   2.167  0.00  0.00    +0.102 C 
ATOM     10  C   LIG    1       26.804 -15.124   3.310  0.00  0.00    +0.187 C 
ATOM     11  C   LIG    1       26.926 -14.064   4.436  0.00  0.00    +0.102 C 
ATOM     12  C   LIG    1       25.603 -13.305   4.677  0.00  0.00    +0.102 C 
ENDBRANCH   1  10
BRANCH   1  13
ATOM     13  C   LIG    1       27.195 -17.395   4.008  0.00  0.00    +0.317 C 
ATOM     14  O   LIG    1       28.330 -17.251   4.430  0.00  0.00    -0.250 OA
BRANCH  13  15
ATOM     15  C   LIG    1       26.540 -18.741   3.683  0.00  0.00    +0.153 C 
BRANCH  15  16
ATOM     16  C   LIG    1       26.485 -19.707   4.867  0.00  0.00    -0.032 A 
ATOM     17  C   LIG    1       27.605 -19.880   5.698  0.00  0.00    +0.004 A 
ATOM     18  C   LIG    1       27.563 -20.759   6.786  0.00  0.00    +0.000 A 
ATOM     19  C   LIG    1       26.404 -21.479   7.062  0.00  0.00    +0.000 A 
ATOM     20  C   LIG    1       25.291 -21.331   6.240  0.00  0.00    +0.000 A 
ATOM     21  C   LIG    1       25.329 -20.456   5.150  0.00  0.00    +0.004 A 
ENDBRANCH  15  16
BRANCH  15  22
ATOM     22  C   LIG    1       25.144 -18.518   3.075  0.00  0.00    +0.175 C 
BRANCH  22  23
ATOM     23  O   LIG    1       24.197 -18.070   4.043  0.00  0.00    -0.394 OA
ATOM     24  H   LIG    1       23.310 -18.132   3.630  0.00  0.00    +0.209 HD
ENDBRANCH  22  23
ENDBRANCH  15  22
ENDBRANCH  13  15
ENDBRANCH   1  13
TORSDOF 6
ENDMDL
MODEL 7
REMARK VINA RESULT:      -0.3      1.935      3.555
REMARK  Name = *****
REMARK                            x       y       z     vdW  Elec       q    Type
REMARK                         _______ _______ _______ _____ _____    ______ ____
ROOT
ATOM      1  O   LIG    1       25.549 -16.793   3.332  0.00  0.00    -0.461 OA
ENDROOT
BRANCH   1  10
ATOM      2  C   LIG    1       28.117 -12.906   3.576  0.00  0.00    +0.193 C 
ATOM      3  N   LIG    1       26.629 -13.053   3.863  0.00  0.00    +0.247 N 
ATOM      4  C   LIG    1       26.170 -11.627   4.241  0.00  0.00    +0.193 C 
ATOM      5  C   LIG    1       25.751 -13.634   2.716  0.00  0.00    +0.102 C 
ATOM      6  C   LIG    1       24.431 -14.068   3.345  0.00  0.00    +0.201 C 
ATOM      7  C   LIG    1       24.744 -14.383   4.775  0.00  0.00    +0.201 C 
ATOM      8  O   LIG    1       23.884 -13.302   4.426  0.00  0.00    -0.357 OA
ATOM      9  C   LIG    1       26.465 -14.897   2.179  0.00  0.00    +0.102 C 
ATOM     10  C   LIG    1       26.739 -15.959   3.277  0.00  0.00    +0.187 C 
ATOM     11  C   LIG    1       27.010 -15.390   4.694  0.00  0.00    +0.102 C 
ATOM     12  C   LIG    1       26.227 -14.087   4.966  0.00  0.00    +0.102 C 
ENDBRANCH   1  10
BRANCH   1  13
ATOM     13  C   LIG    1       25.731 -18.145   3.227  0.00  0.00    +0.317 C 
ATOM     14  O   LIG    1       26.033 -18.695   2.181  0.00  0.00    -0.250 OA
BRANCH  13  15
ATOM     15  C   LIG    1       25.647 -18.834   4.592  0.00  0.00    +0.153 C 
BRANCH  15  16
ATOM     16  C   LIG    1       24.364 -19.641   4.802  0.00  0.00    -0.032 A 
ATOM     17  C   LIG    1       23.143 -19.186   4.276  0.00  0.00    +0.004 A 
ATOM     18  C   LIG    1       21.965 -19.919   4.460  0.00  0.00    +0.000 A 
ATOM     19  C   LIG    1       21.987 -21.115   5.172  0.00  0.00    +0.000 A 
ATOM     20  C   LIG    1       23.185 -21.572   5.713  0.00  0.00    +0.000 A 
ATOM     21  C   LIG    1       24.364 -20.841   5.533  0.00  0.00    +0.004 A 
ENDBRANCH  15  16
BRANCH  15  22
ATOM     22  C   LIG    1       26.898 -19.698   4.828  0.00  0.00    +0.175 C 
BRANCH  22  23
ATOM     23  O   LIG    1       28.100 -18.931   4.792  0.00  0.00    -0.394 OA
ATOM     24  H   LIG    1       27.908 -18.070   5.220  0.00  0.00    +0.209 HD
ENDBRANCH  22  23
ENDBRANCH  15  22
ENDBRANCH  13  15
ENDBRANCH   1  13
TORSDOF 6
ENDMDL
MODEL 8
REMARK VINA RESULT:       0.0      2.313      6.833
REMARK  Name = *****
REMARK                            x       y       z     vdW  Elec       q    Type
REMARK                         _______ _______ _______ _____ _____    ______ ____
ROOT
ATOM      1  O   LIG    1       25.420 -17.105   3.313  0.00  0.00    -0.461 OA
ENDROOT
BRANCH   1  10
ATOM      2  C   LIG    1       24.666 -21.571   4.432  0.00  0.00    +0.193 C 
ATOM      3  N   LIG    1       23.645 -20.441   4.390  0.00  0.00    +0.247 N 
ATOM      4  C   LIG    1       22.318 -21.110   4.810  0.00  0.00    +0.193 C 
ATOM      5  C   LIG    1       23.947 -19.197   5.276  0.00  0.00    +0.102 C 
ATOM      6  C   LIG    1       23.051 -18.069   4.774  0.00  0.00    +0.201 C 
ATOM      7  C   LIG    1       22.786 -18.369   3.331  0.00  0.00    +0.201 C 
ATOM      8  O   LIG    1       21.736 -18.378   4.294  0.00  0.00    -0.357 OA
ATOM      9  C   LIG    1       25.418 -18.790   5.023  0.00  0.00    +0.102 C 
ATOM     10  C   LIG    1       25.727 -18.510   3.528  0.00  0.00    +0.187 C 
ATOM     11  C   LIG    1       24.911 -19.355   2.515  0.00  0.00    +0.102 C 
ATOM     12  C   LIG    1       23.493 -19.686   3.029  0.00  0.00    +0.102 C 
ENDBRANCH   1  10
BRANCH   1  13
ATOM     13  C   LIG    1       26.448 -16.214   3.458  0.00  0.00    +0.317 C 
ATOM     14  O   LIG    1       27.468 -16.472   4.075  0.00  0.00    -0.250 OA
BRANCH  13  15
ATOM     15  C   LIG    1       26.210 -14.940   2.643  0.00  0.00    +0.153 C 
BRANCH  15  16
ATOM     16  C   LIG    1       25.346 -13.899   3.357  0.00  0.00    -0.032 A 
ATOM     17  C   LIG    1       24.568 -12.992   2.618  0.00  0.00    +0.004 A 
ATOM     18  C   LIG    1       23.771 -12.038   3.262  0.00  0.00    +0.000 A 
ATOM     19  C   LIG    1       23.739 -11.974   4.652  0.00  0.00    +0.000 A 
ATOM     20  C   LIG    1       24.516 -12.855   5.399  0.00  0.00    +0.000 A 
ATOM     21  C   LIG    1       25.316 -13.808   4.759  0.00  0.00    +0.004 A 
ENDBRANCH  15  16
BRANCH  15  22
ATOM     22  C   LIG    1       27.554 -14.340   2.193  0.00  0.00    +0.175 C 
BRANCH  22  23
ATOM     23  O   LIG    1       28.226 -13.661   3.251  0.00  0.00    -0.394 OA
ATOM     24  H   LIG    1       28.666 -12.877   2.859  0.00  0.00    +0.209 HD
ENDBRANCH  22  23
ENDBRANCH  15  22
ENDBRANCH  13  15
ENDBRANCH   1  13
TORSDOF 6
ENDMDL
MODEL 9
REMARK VINA RESULT:       0.3      1.999      4.197
REMARK  Name = *****
REMARK                            x       y       z     vdW  Elec       q    Type
REMARK                         _______ _______ _______ _____ _____    ______ ____
ROOT
ATOM      1  O   LIG    1       26.946 -16.595   4.341  0.00  0.00    -0.461 OA
ENDROOT
BRANCH   1  10
ATOM      2  C   LIG    1       26.669 -12.222   2.738  0.00  0.00    +0.193 C 
ATOM      3  N   LIG    1       25.549 -13.063   3.337  0.00  0.00    +0.247 N 
ATOM      4  C   LIG    1       24.309 -12.143   3.281  0.00  0.00    +0.193 C 
ATOM      5  C   LIG    1       25.259 -14.430   2.649  0.00  0.00    +0.102 C 
ATOM      6  C   LIG    1       24.425 -15.250   3.628  0.00  0.00    +0.201 C 
ATOM      7  C   LIG    1       24.782 -14.744   4.992  0.00  0.00    +0.201 C 
ATOM      8  O   LIG    1       23.468 -14.584   4.463  0.00  0.00    -0.357 OA
ATOM      9  C   LIG    1       26.615 -15.149   2.454  0.00  0.00    +0.102 C 
ATOM     10  C   LIG    1       27.405 -15.336   3.777  0.00  0.00    +0.187 C 
ATOM     11  C   LIG    1       27.200 -14.218   4.833  0.00  0.00    +0.102 C 
ATOM     12  C   LIG    1       25.781 -13.612   4.783  0.00  0.00    +0.102 C 
ENDBRANCH   1  10
BRANCH   1  13
ATOM     13  C   LIG    1       27.888 -17.567   4.541  0.00  0.00    +0.317 C 
ATOM     14  O   LIG    1       29.049 -17.450   4.184  0.00  0.00    -0.250 OA
BRANCH  13  15
ATOM     15  C   LIG    1       27.335 -18.726   5.375  0.00  0.00    +0.153 C 
BRANCH  15  16
ATOM     16  C   LIG    1       26.148 -19.444   4.730  0.00  0.00    -0.032 A 
ATOM     17  C   LIG    1       25.499 -18.887   3.615  0.00  0.00    +0.004 A 
ATOM     18  C   LIG    1       24.414 -19.538   3.016  0.00  0.00    +0.000 A 
ATOM     19  C   LIG    1       23.961 -20.754   3.520  0.00  0.00    +0.000 A 
ATOM     20  C   LIG    1       24.583 -21.312   4.633  0.00  0.00    +0.000 A 
ATOM     21  C   LIG    1       25.665 -20.663   5.237  0.00  0.00    +0.004 A 
ENDBRANCH  15  16
BRANCH  15  22
ATOM     22  C   LIG    1       28.463 -19.712   5.727  0.00  0.00    +0.175 C 
BRANCH  22  23
ATOM     23  O   LIG    1       29.470 -19.114   6.542  0.00  0.00    -0.394 OA
ATOM     24  H   LIG    1       29.278 -18.153   6.581  0.00  0.00    +0.209 HD
ENDBRANCH  22  23
ENDBRANCH  15  22
ENDBRANCH  13  15
ENDBRANCH   1  13
TORSDOF 6
ENDMDL
