MODEL 1
REMARK VINA RESULT:       3.1      0.000      0.000
REMARK  Name = *****
REMARK                            x       y       z     vdW  Elec       q    Type
REMARK                         _______ _______ _______ _____ _____    ______ ____
ROOT
ATOM      1  C   LIG    1       23.188 -15.699   4.489  0.00  0.00    +0.065 C 
ATOM      2  C   LIG    1       24.236 -15.046   3.533  0.00  0.00    +0.097 C 
ATOM      3  C   LIG    1       24.140 -13.506   3.609  0.00  0.00    +0.065 C 
ATOM      4  C   LIG    1       23.733 -12.931   4.769  0.00  0.00    +0.016 C 
ATOM      5  C   LIG    1       23.760 -11.456   5.073  0.00  0.00    +0.061 C 
ATOM      6  N   LIG    1       23.238 -13.728   5.799  0.00  0.00    -0.321 N 
ATOM      7  H   LIG    1       22.792 -13.225   6.564  0.00  0.00    +0.152 HD
ATOM      8  C   LIG    1       22.769 -15.020   5.586  0.00  0.00    +0.016 C 
ATOM      9  C   LIG    1       21.804 -15.524   6.637  0.00  0.00    +0.061 C 
ENDROOT
BRANCH   2  10
ATOM     10  C   LIG    1       25.703 -15.497   3.818  0.00  0.00    -0.015 A 
ATOM     11  C   LIG    1       26.179 -16.834   3.744  0.00  0.00    +0.063 A 
ATOM     12 CL   LIG    1       25.214 -18.126   3.118  0.00  0.00    -0.082 Cl
ATOM     13  C   LIG    1       27.490 -17.152   4.170  0.00  0.00    +0.059 A 
ATOM     14 CL   LIG    1       28.146 -18.759   4.112  0.00  0.00    -0.082 Cl
ATOM     15  C   LIG    1       28.337 -16.161   4.660  0.00  0.00    +0.021 A 
ATOM     16  C   LIG    1       27.938 -14.835   4.601  0.00  0.00    +0.002 A 
ATOM     17  C   LIG    1       26.655 -14.509   4.157  0.00  0.00    +0.006 A 
ENDBRANCH   2  10
BRANCH   1  18
ATOM     18  C   LIG    1       22.614 -17.003   4.045  0.00  0.00    +0.340 C 
ATOM     19  O   LIG    1       21.745 -17.102   3.206  0.00  0.00    -0.245 OA
BRANCH  18  20
ATOM     20  O   LIG    1       23.149 -18.043   4.738  0.00  0.00    -0.424 OA
BRANCH  20  21
ATOM     21  C   LIG    1       22.383 -19.239   4.825  0.00  0.00    +0.473 C 
BRANCH  21  22
ATOM     22  O   LIG    1       23.196 -20.402   4.755  0.00  0.00    -0.427 OA
BRANCH  22  23
ATOM     23  C   LIG    1       23.634 -20.845   5.966  0.00  0.00    +0.310 C 
ATOM     24  O   LIG    1       22.964 -21.041   6.953  0.00  0.00    -0.251 OA
BRANCH  23  25
ATOM     25  C   LIG    1       25.098 -21.169   5.863  0.00  0.00    +0.120 C 
BRANCH  25  27
ATOM     26  C   LIG    1       27.386 -20.505   6.791  0.00  0.00    +0.004 C 
ATOM     27  C   LIG    1       25.898 -20.684   7.055  0.00  0.00    +0.008 C 
ENDBRANCH  25  27
ENDBRANCH  23  25
ENDBRANCH  22  23
ENDBRANCH  21  22
ENDBRANCH  20  21
ENDBRANCH  18  20
ENDBRANCH   1  18
BRANCH   3  28
ATOM     28  C   LIG    1       24.307 -12.697   2.354  0.00  0.00    +0.337 C 
ATOM     29  O   LIG    1       23.475 -12.014   1.822  0.00  0.00    -0.245 OA
BRANCH  28  30
ATOM     30  O   LIG    1       25.520 -13.033   1.840  0.00  0.00    -0.465 OA
ATOM     31  C   LIG    1       26.692 -12.338   2.253  0.00  0.00    +0.280 C 
ENDBRANCH  28  30
ENDBRANCH   3  28
TORSDOF 10
ENDMDL
MODEL 2
REMARK VINA RESULT:       3.8      2.807      4.599
REMARK  Name = *****
REMARK                            x       y       z     vdW  Elec       q    Type
REMARK                         _______ _______ _______ _____ _____    ______ ____
ROOT
ATOM      1  C   LIG    1       26.887 -15.326   3.711  0.00  0.00    +0.065 C 
ATOM      2  C   LIG    1       25.466 -15.595   4.300  0.00  0.00    +0.097 C 
ATOM      3  C   LIG    1       24.507 -14.444   3.925  0.00  0.00    +0.065 C 
ATOM      4  C   LIG    1       24.714 -13.768   2.767  0.00  0.00    +0.016 C 
ATOM      5  C   LIG    1       23.779 -12.754   2.163  0.00  0.00    +0.061 C 
ATOM      6  N   LIG    1       25.878 -13.994   2.035  0.00  0.00    -0.321 N 
ATOM      7  H   LIG    1       26.051 -13.335   1.278  0.00  0.00    +0.152 HD
ATOM      8  C   LIG    1       27.015 -14.568   2.593  0.00  0.00    +0.016 C 
ATOM      9  C   LIG    1       28.304 -14.254   1.867  0.00  0.00    +0.061 C 
ENDROOT
BRANCH   2  10
ATOM     10  C   LIG    1       24.854 -16.959   3.850  0.00  0.00    -0.015 A 
ATOM     11  C   LIG    1       23.542 -17.411   4.158  0.00  0.00    +0.063 A 
ATOM     12 CL   LIG    1       22.368 -16.392   4.916  0.00  0.00    -0.082 Cl
ATOM     13  C   LIG    1       23.142 -18.728   3.829  0.00  0.00    +0.059 A 
ATOM     14 CL   LIG    1       21.560 -19.354   4.171  0.00  0.00    -0.082 Cl
ATOM     15  C   LIG    1       24.023 -19.598   3.193  0.00  0.00    +0.021 A 
ATOM     16  C   LIG    1       25.251 -19.126   2.757  0.00  0.00    +0.002 A 
ATOM     17  C   LIG    1       25.644 -17.819   3.054  0.00  0.00    +0.006 A 
ENDBRANCH   2  10
BRANCH   1  18
ATOM     18  C   LIG    1       28.039 -15.830   4.514  0.00  0.00    +0.340 C 
ATOM     19  O   LIG    1       28.700 -15.130   5.251  0.00  0.00    -0.245 OA
BRANCH  18  20
ATOM     20  O   LIG    1       28.279 -17.146   4.267  0.00  0.00    -0.424 OA
BRANCH  20  21
ATOM     21  C   LIG    1       28.619 -17.971   5.376  0.00  0.00    +0.473 C 
BRANCH  21  22
ATOM     22  O   LIG    1       28.086 -19.281   5.250  0.00  0.00    -0.427 OA
BRANCH  22  23
ATOM     23  C   LIG    1       28.375 -20.101   6.298  0.00  0.00    +0.310 C 
ATOM     24  O   LIG    1       29.474 -20.434   6.677  0.00  0.00    -0.251 OA
BRANCH  23  25
ATOM     25  C   LIG    1       27.097 -20.458   7.002  0.00  0.00    +0.120 C 
BRANCH  25  27
ATOM     26  C   LIG    1       24.561 -20.561   6.688  0.00  0.00    +0.004 C 
ATOM     27  C   LIG    1       25.938 -20.685   6.052  0.00  0.00    +0.008 C 
ENDBRANCH  25  27
ENDBRANCH  23  25
ENDBRANCH  22  23
ENDBRANCH  21  22
ENDBRANCH  20  21
ENDBRANCH  18  20
ENDBRANCH   1  18
BRANCH   3  28
ATOM     28  C   LIG    1       23.495 -13.974   4.932  0.00  0.00    +0.337 C 
ATOM     29  O   LIG    1       22.692 -14.651   5.515  0.00  0.00    -0.245 OA
BRANCH  28  30
ATOM     30  O   LIG    1       23.542 -12.616   4.917  0.00  0.00    -0.465 OA
ATOM     31  C   LIG    1       24.607 -11.926   5.563  0.00  0.00    +0.280 C 
ENDBRANCH  28  30
ENDBRANCH   3  28
TORSDOF 10
ENDMDL
MODEL 3
REMARK VINA RESULT:       4.0      2.556      6.781
REMARK  Name = *****
REMARK                            x       y       z     vdW  Elec       q    Type
REMARK                         _______ _______ _______ _____ _____    ______ ____
ROOT
ATOM      1  C   LIG    1       25.047 -19.006   4.318  0.00  0.00    +0.065 C 
ATOM      2  C   LIG    1       23.530 -18.698   4.114  0.00  0.00    +0.097 C 
ATOM      3  C   LIG    1       22.670 -19.800   4.771  0.00  0.00    +0.065 C 
ATOM      4  C   LIG    1       23.155 -20.450   5.859  0.00  0.00    +0.016 C 
ATOM      5  C   LIG    1       22.382 -21.410   6.724  0.00  0.00    +0.061 C 
ATOM      6  N   LIG    1       24.477 -20.250   6.250  0.00  0.00    -0.321 N 
ATOM      7  H   LIG    1       24.824 -20.893   6.959  0.00  0.00    +0.152 HD
ATOM      8  C   LIG    1       25.443 -19.737   5.391  0.00  0.00    +0.016 C 
ATOM      9  C   LIG    1       26.868 -20.081   5.763  0.00  0.00    +0.061 C 
ENDROOT
BRANCH   2  10
ATOM     10  C   LIG    1       23.101 -17.300   4.658  0.00  0.00    -0.015 A 
ATOM     11  C   LIG    1       23.638 -16.054   4.234  0.00  0.00    +0.063 A 
ATOM     12 CL   LIG    1       24.715 -15.923   2.886  0.00  0.00    -0.082 Cl
ATOM     13  C   LIG    1       23.286 -14.857   4.901  0.00  0.00    +0.059 A 
ATOM     14 CL   LIG    1       23.898 -13.298   4.444  0.00  0.00    -0.082 Cl
ATOM     15  C   LIG    1       22.403 -14.878   5.977  0.00  0.00    +0.021 A 
ATOM     16  C   LIG    1       21.761 -16.062   6.308  0.00  0.00    +0.002 A 
ATOM     17  C   LIG    1       22.082 -17.244   5.636  0.00  0.00    +0.006 A 
ENDBRANCH   2  10
BRANCH   1  18
ATOM     18  C   LIG    1       25.961 -18.571   3.222  0.00  0.00    +0.340 C 
ATOM     19  O   LIG    1       25.819 -18.893   2.062  0.00  0.00    -0.245 OA
BRANCH  18  20
ATOM     20  O   LIG    1       26.992 -17.824   3.701  0.00  0.00    -0.424 OA
BRANCH  20  21
ATOM     21  C   LIG    1       26.984 -16.430   3.412  0.00  0.00    +0.473 C 
BRANCH  21  22
ATOM     22  O   LIG    1       27.790 -15.692   4.319  0.00  0.00    -0.427 OA
BRANCH  22  23
ATOM     23  C   LIG    1       27.454 -14.376   4.414  0.00  0.00    +0.310 C 
ATOM     24  O   LIG    1       27.057 -13.797   5.398  0.00  0.00    -0.251 OA
BRANCH  23  25
ATOM     25  C   LIG    1       27.758 -13.702   3.106  0.00  0.00    +0.120 C 
BRANCH  25  27
ATOM     26  C   LIG    1       25.600 -12.873   2.014  0.00  0.00    +0.004 C 
ATOM     27  C   LIG    1       26.846 -12.527   2.816  0.00  0.00    +0.008 C 
ENDBRANCH  25  27
ENDBRANCH  23  25
ENDBRANCH  22  23
ENDBRANCH  21  22
ENDBRANCH  20  21
ENDBRANCH  18  20
ENDBRANCH   1  18
BRANCH   3  28
ATOM     28  C   LIG    1       21.414 -20.258   4.084  0.00  0.00    +0.337 C 
ATOM     29  O   LIG    1       20.955 -21.369   4.090  0.00  0.00    -0.245 OA
BRANCH  28  30
ATOM     30  O   LIG    1       21.001 -19.222   3.308  0.00  0.00    -0.465 OA
ATOM     31  C   LIG    1       19.621 -18.873   3.252  0.00  0.00    +0.280 C 
ENDBRANCH  28  30
ENDBRANCH   3  28
TORSDOF 10
ENDMDL
