MODEL 1
REMARK VINA RESULT:       9.2      0.000      0.000
REMARK  Name = *****
REMARK                            x       y       z     vdW  Elec       q    Type
REMARK                         _______ _______ _______ _____ _____    ______ ____
ROOT
ATOM      1  C   LIG    1       22.625 -17.494   4.627  0.00  0.00    +0.046 A 
ATOM      2  C   LIG    1       23.644 -18.392   4.144  0.00  0.00    +0.105 A 
ATOM      3  N   LIG    1       23.086 -19.562   3.781  0.00  0.00    -0.170 NA
ATOM      4  N   LIG    1       21.770 -19.429   4.006  0.00  0.00    -0.268 N 
ATOM      5  C   LIG    1       21.447 -18.206   4.507  0.00  0.00    +0.119 A 
ENDROOT
BRANCH   2   6
ATOM      6  C   LIG    1       25.107 -18.232   4.047  0.00  0.00    +0.041 A 
ATOM      7  C   LIG    1       25.995 -19.251   4.435  0.00  0.00    +0.155 A 
ATOM      8  F   LIG    1       25.552 -20.419   4.932  0.00  0.00    -0.203 F 
ATOM      9  C   LIG    1       27.386 -19.076   4.361  0.00  0.00    +0.085 A 
ATOM     10  C   LIG    1       27.920 -17.886   3.876  0.00  0.00    +0.047 A 
ATOM     11  C   LIG    1       27.057 -16.845   3.564  0.00  0.00    +0.044 A 
ATOM     12 CL   LIG    1       27.702 -15.294   3.175  0.00  0.00    -0.084 Cl
ATOM     13  C   LIG    1       25.669 -17.012   3.642  0.00  0.00    +0.033 A 
BRANCH   9  14
ATOM     14  N   LIG    1       28.274 -20.091   4.850  0.00  0.00    -0.218 N 
ATOM     15  H   LIG    1       29.177 -20.107   4.373  0.00  0.00    +0.173 HD
BRANCH  14  16
ATOM     16  S   LIG    1       28.441 -20.286   6.518  0.00  0.00    +0.040 S 
ATOM     17  O   LIG    1       29.022 -19.054   7.015  0.00  0.00    -0.155 OA
ATOM     18  O   LIG    1       29.037 -21.571   6.805  0.00  0.00    -0.155 OA
ATOM     19  C   LIG    1       26.744 -20.306   7.062  0.00  0.00    +0.218 C 
ENDBRANCH  14  16
ENDBRANCH   9  14
ENDBRANCH   2   6
BRANCH   1  22
ATOM     20  C   LIG    1       23.700 -14.074   5.084  0.00  0.00    +0.216 A 
ATOM     21  N   LIG    1       23.640 -15.342   4.653  0.00  0.00    -0.214 NA
ATOM     22  C   LIG    1       22.645 -16.119   5.113  0.00  0.00    +0.080 A 
ATOM     23  C   LIG    1       21.688 -15.648   5.988  0.00  0.00    +0.048 A 
ATOM     24  C   LIG    1       21.815 -14.332   6.355  0.00  0.00    +0.116 A 
ATOM     25  N   LIG    1       22.817 -13.538   5.935  0.00  0.00    -0.223 NA
BRANCH  20  26
ATOM     26  N   LIG    1       24.744 -13.256   4.670  0.00  0.00    -0.312 N 
ATOM     27  H   LIG    1       25.532 -13.849   4.434  0.00  0.00    +0.149 HD
BRANCH  26  28
ATOM     28  C   LIG    1       24.363 -12.270   3.662  0.00  0.00    +0.126 C 
BRANCH  28  29
ATOM     29  C   LIG    1       25.145 -12.454   2.345  0.00  0.00    +0.090 C 
ATOM     30  C   LIG    1       25.035 -13.896   1.838  0.00  0.00    +0.029 C 
BRANCH  29  32
ATOM     31  C   LIG    1       27.242 -12.299   3.687  0.00  0.00    +0.400 C 
ATOM     32  N   LIG    1       26.539 -12.069   2.541  0.00  0.00    -0.277 N 
ATOM     33  H   LIG    1       27.036 -11.571   1.819  0.00  0.00    +0.152 HD
ATOM     34  O   LIG    1       26.811 -12.766   4.713  0.00  0.00    -0.227 OA
BRANCH  31  36
ATOM     35  C   LIG    1       29.362 -11.915   4.607  0.00  0.00    +0.282 C 
ATOM     36  O   LIG    1       28.531 -11.929   3.448  0.00  0.00    -0.454 OA
ENDBRANCH  31  36
ENDBRANCH  29  32
ENDBRANCH  28  29
ENDBRANCH  26  28
ENDBRANCH  20  26
ENDBRANCH   1  22
BRANCH   4  37
ATOM     37  C   LIG    1       20.849 -20.513   3.652  0.00  0.00    +0.101 C 
ATOM     38  C   LIG    1       19.517 -20.002   3.085  0.00  0.00    +0.032 C 
ATOM     39  C   LIG    1       20.567 -21.446   4.834  0.00  0.00    +0.032 C 
ENDBRANCH   4  37
TORSDOF 10
ENDMDL
