MODEL 1
REMARK VINA RESULT:      -8.4      0.000      0.000
REMARK  Name = *****
REMARK                            x       y       z     vdW  Elec       q    Type
REMARK                         _______ _______ _______ _____ _____    ______ ____
ROOT
ATOM      1  O   LIG    1       26.956 -21.364   8.723  0.00  0.00    -0.488 OA
ENDROOT
BRANCH   1   5
ATOM      2  C   LIG    1       22.989 -20.212   6.189  0.00  0.00    +0.044 C 
ATOM      3  C   LIG    1       23.956 -21.256   6.665  0.00  0.00    -0.047 A 
ATOM      4  C   LIG    1       25.035 -20.894   7.482  0.00  0.00    +0.049 A 
ATOM      5  C   LIG    1       25.934 -21.855   7.954  0.00  0.00    +0.121 A 
ATOM      6  C   LIG    1       25.742 -23.194   7.615  0.00  0.00    +0.049 A 
ATOM      7  C   LIG    1       24.672 -23.576   6.794  0.00  0.00    -0.047 A 
ATOM      8  C   LIG    1       24.484 -25.025   6.450  0.00  0.00    +0.044 C 
ATOM      9  C   LIG    1       23.779 -22.604   6.331  0.00  0.00    +0.007 A 
ENDBRANCH   1   5
BRANCH   1  10
ATOM     10  C   LIG    1       27.752 -20.327   8.146  0.00  0.00    +0.275 C 
BRANCH  10  11
ATOM     11  C   LIG    1       28.976 -20.954   7.475  0.00  0.00    +0.232 C 
ATOM     12  O   LIG    1       29.945 -21.313   8.478  0.00  0.00    -0.442 OA
ATOM     13  C   LIG    1       30.923 -20.357   8.486  0.00  0.00    +0.401 C 
ATOM     14  O   LIG    1       31.845 -20.310   9.277  0.00  0.00    -0.227 OA
ATOM     15  N   LIG    1       30.720 -19.482   7.456  0.00  0.00    -0.278 N 
ATOM     16  H   LIG    1       31.454 -18.829   7.211  0.00  0.00    +0.152 HD
ATOM     17  C   LIG    1       29.717 -19.981   6.580  0.00  0.00    +0.155 C 
ENDBRANCH  10  11
ENDBRANCH   1  10
TORSDOF 3
ENDMDL
MODEL 2
REMARK VINA RESULT:      -8.3      0.103      2.158
REMARK  Name = *****
REMARK                            x       y       z     vdW  Elec       q    Type
REMARK                         _______ _______ _______ _____ _____    ______ ____
ROOT
ATOM      1  O   LIG    1       26.931 -21.421   8.686  0.00  0.00    -0.488 OA
ENDROOT
BRANCH   1   5
ATOM      2  C   LIG    1       24.480 -24.980   6.493  0.00  0.00    +0.044 C 
ATOM      3  C   LIG    1       24.622 -23.522   6.814  0.00  0.00    -0.047 A 
ATOM      4  C   LIG    1       25.694 -23.075   7.598  0.00  0.00    +0.049 A 
ATOM      5  C   LIG    1       25.857 -21.718   7.890  0.00  0.00    +0.121 A 
ATOM      6  C   LIG    1       24.942 -20.796   7.380  0.00  0.00    +0.049 A 
ATOM      7  C   LIG    1       23.860 -21.222   6.599  0.00  0.00    -0.047 A 
ATOM      8  C   LIG    1       22.895 -20.208   6.055  0.00  0.00    +0.044 C 
ATOM      9  C   LIG    1       23.712 -22.584   6.312  0.00  0.00    +0.007 A 
ENDBRANCH   1   5
BRANCH   1  10
ATOM     10  C   LIG    1       27.793 -20.373   8.237  0.00  0.00    +0.275 C 
BRANCH  10  11
ATOM     11  C   LIG    1       29.008 -20.990   7.542  0.00  0.00    +0.232 C 
ATOM     12  O   LIG    1       30.004 -21.331   8.525  0.00  0.00    -0.442 OA
ATOM     13  C   LIG    1       30.970 -20.364   8.505  0.00  0.00    +0.401 C 
ATOM     14  O   LIG    1       31.909 -20.301   9.274  0.00  0.00    -0.227 OA
ATOM     15  N   LIG    1       30.734 -19.497   7.475  0.00  0.00    -0.278 N 
ATOM     16  H   LIG    1       31.454 -18.838   7.209  0.00  0.00    +0.152 HD
ATOM     17  C   LIG    1       29.717 -20.013   6.625  0.00  0.00    +0.155 C 
ENDBRANCH  10  11
ENDBRANCH   1  10
TORSDOF 3
ENDMDL
MODEL 3
REMARK VINA RESULT:      -8.0      1.857      2.465
REMARK  Name = *****
REMARK                            x       y       z     vdW  Elec       q    Type
REMARK                         _______ _______ _______ _____ _____    ______ ____
ROOT
ATOM      1  O   LIG    1       28.286 -20.188   7.277  0.00  0.00    -0.488 OA
ENDROOT
BRANCH   1   5
ATOM      2  C   LIG    1       25.357 -19.694   3.449  0.00  0.00    +0.044 C 
ATOM      3  C   LIG    1       25.552 -20.110   4.877  0.00  0.00    -0.047 A 
ATOM      4  C   LIG    1       26.809 -19.981   5.482  0.00  0.00    +0.049 A 
ATOM      5  C   LIG    1       27.005 -20.342   6.818  0.00  0.00    +0.121 A 
ATOM      6  C   LIG    1       25.928 -20.827   7.559  0.00  0.00    +0.049 A 
ATOM      7  C   LIG    1       24.663 -20.969   6.971  0.00  0.00    -0.047 A 
ATOM      8  C   LIG    1       23.518 -21.485   7.794  0.00  0.00    +0.044 C 
ATOM      9  C   LIG    1       24.481 -20.601   5.633  0.00  0.00    +0.007 A 
ENDBRANCH   1   5
BRANCH   1  10
ATOM     10  C   LIG    1       29.313 -20.071   6.290  0.00  0.00    +0.275 C 
BRANCH  10  11
ATOM     11  C   LIG    1       30.400 -19.127   6.811  0.00  0.00    +0.232 C 
ATOM     12  O   LIG    1       31.524 -19.898   7.276  0.00  0.00    -0.442 OA
ATOM     13  C   LIG    1       31.465 -19.955   8.641  0.00  0.00    +0.401 C 
ATOM     14  O   LIG    1       32.215 -20.604   9.344  0.00  0.00    -0.227 OA
ATOM     15  N   LIG    1       30.454 -19.153   9.092  0.00  0.00    -0.278 N 
ATOM     16  H   LIG    1       30.398 -18.940  10.080  0.00  0.00    +0.152 HD
ATOM     17  C   LIG    1       29.960 -18.344   8.032  0.00  0.00    +0.155 C 
ENDBRANCH  10  11
ENDBRANCH   1  10
TORSDOF 3
ENDMDL
MODEL 4
REMARK VINA RESULT:      -8.0      1.844      2.678
REMARK  Name = *****
REMARK                            x       y       z     vdW  Elec       q    Type
REMARK                         _______ _______ _______ _____ _____    ______ ____
ROOT
ATOM      1  O   LIG    1       28.064 -20.145   7.193  0.00  0.00    -0.488 OA
ENDROOT
BRANCH   1   5
ATOM      2  C   LIG    1       23.466 -21.560   7.768  0.00  0.00    +0.044 C 
ATOM      3  C   LIG    1       24.536 -20.986   6.889  0.00  0.00    -0.047 A 
ATOM      4  C   LIG    1       25.834 -20.805   7.386  0.00  0.00    +0.049 A 
ATOM      5  C   LIG    1       26.851 -20.292   6.576  0.00  0.00    +0.121 A 
ATOM      6  C   LIG    1       26.568 -19.969   5.249  0.00  0.00    +0.049 A 
ATOM      7  C   LIG    1       25.275 -20.136   4.733  0.00  0.00    -0.047 A 
ATOM      8  C   LIG    1       25.000 -19.788   3.299  0.00  0.00    +0.044 C 
ATOM      9  C   LIG    1       24.268 -20.653   5.556  0.00  0.00    +0.007 A 
ENDBRANCH   1   5
BRANCH   1  10
ATOM     10  C   LIG    1       29.225 -20.358   6.387  0.00  0.00    +0.275 C 
BRANCH  10  11
ATOM     11  C   LIG    1       30.281 -19.311   6.748  0.00  0.00    +0.232 C 
ATOM     12  O   LIG    1       31.462 -19.969   7.245  0.00  0.00    -0.442 OA
ATOM     13  C   LIG    1       31.461 -19.871   8.609  0.00  0.00    +0.401 C 
ATOM     14  O   LIG    1       32.271 -20.398   9.346  0.00  0.00    -0.227 OA
ATOM     15  N   LIG    1       30.429 -19.070   9.012  0.00  0.00    -0.278 N 
ATOM     16  H   LIG    1       30.400 -18.748   9.971  0.00  0.00    +0.152 HD
ATOM     17  C   LIG    1       29.851 -18.414   7.891  0.00  0.00    +0.155 C 
ENDBRANCH  10  11
ENDBRANCH   1  10
TORSDOF 3
ENDMDL
MODEL 5
REMARK VINA RESULT:      -7.8      1.580      1.760
REMARK  Name = *****
REMARK                            x       y       z     vdW  Elec       q    Type
REMARK                         _______ _______ _______ _____ _____    ______ ____
ROOT
ATOM      1  O   LIG    1       28.133 -20.519   7.988  0.00  0.00    -0.488 OA
ENDROOT
BRANCH   1   5
ATOM      2  C   LIG    1       24.915 -19.948   4.411  0.00  0.00    +0.044 C 
ATOM      3  C   LIG    1       25.541 -20.828   5.452  0.00  0.00    -0.047 A 
ATOM      4  C   LIG    1       26.556 -20.327   6.278  0.00  0.00    +0.049 A 
ATOM      5  C   LIG    1       27.137 -21.124   7.269  0.00  0.00    +0.121 A 
ATOM      6  C   LIG    1       26.687 -22.432   7.443  0.00  0.00    +0.049 A 
ATOM      7  C   LIG    1       25.677 -22.955   6.623  0.00  0.00    -0.047 A 
ATOM      8  C   LIG    1       25.205 -24.364   6.837  0.00  0.00    +0.044 C 
ATOM      9  C   LIG    1       25.103 -22.144   5.637  0.00  0.00    +0.007 A 
ENDBRANCH   1   5
BRANCH   1  10
ATOM     10  C   LIG    1       29.435 -21.102   7.899  0.00  0.00    +0.275 C 
BRANCH  10  11
ATOM     11  C   LIG    1       30.409 -20.062   7.341  0.00  0.00    +0.232 C 
ATOM     12  O   LIG    1       31.558 -19.966   8.204  0.00  0.00    -0.442 OA
ATOM     13  C   LIG    1       31.416 -18.848   8.978  0.00  0.00    +0.401 C 
ATOM     14  O   LIG    1       32.167 -18.523   9.877  0.00  0.00    -0.227 OA
ATOM     15  N   LIG    1       30.319 -18.141   8.571  0.00  0.00    -0.278 N 
ATOM     16  H   LIG    1       30.183 -17.200   8.916  0.00  0.00    +0.152 HD
ATOM     17  C   LIG    1       29.832 -18.660   7.340  0.00  0.00    +0.155 C 
ENDBRANCH  10  11
ENDBRANCH   1  10
TORSDOF 3
ENDMDL
MODEL 6
REMARK VINA RESULT:      -7.8      2.239      3.430
REMARK  Name = *****
REMARK                            x       y       z     vdW  Elec       q    Type
REMARK                         _______ _______ _______ _____ _____    ______ ____
ROOT
ATOM      1  O   LIG    1       29.632 -19.728   7.070  0.00  0.00    -0.488 OA
ENDROOT
BRANCH   1   5
ATOM      2  C   LIG    1       25.545 -21.664   8.810  0.00  0.00    +0.044 C 
ATOM      3  C   LIG    1       26.275 -20.993   7.685  0.00  0.00    -0.047 A 
ATOM      4  C   LIG    1       27.624 -20.644   7.831  0.00  0.00    +0.049 A 
ATOM      5  C   LIG    1       28.328 -20.037   6.786  0.00  0.00    +0.121 A 
ATOM      6  C   LIG    1       27.677 -19.789   5.578  0.00  0.00    +0.049 A 
ATOM      7  C   LIG    1       26.326 -20.125   5.414  0.00  0.00    -0.047 A 
ATOM      8  C   LIG    1       25.651 -19.854   4.100  0.00  0.00    +0.044 C 
ATOM      9  C   LIG    1       25.635 -20.734   6.467  0.00  0.00    +0.007 A 
ENDBRANCH   1   5
BRANCH   1  10
ATOM     10  C   LIG    1       30.278 -20.521   8.068  0.00  0.00    +0.275 C 
BRANCH  10  11
ATOM     11  C   LIG    1       31.349 -19.675   8.760  0.00  0.00    +0.232 C 
ATOM     12  O   LIG    1       30.927 -19.368  10.102  0.00  0.00    -0.442 OA
ATOM     13  C   LIG    1       30.458 -18.083  10.116  0.00  0.00    +0.401 C 
ATOM     14  O   LIG    1       29.942 -17.541  11.074  0.00  0.00    -0.227 OA
ATOM     15  N   LIG    1       30.681 -17.497   8.902  0.00  0.00    -0.278 N 
ATOM     16  H   LIG    1       30.562 -16.497   8.807  0.00  0.00    +0.152 HD
ATOM     17  C   LIG    1       31.533 -18.317   8.112  0.00  0.00    +0.155 C 
ENDBRANCH  10  11
ENDBRANCH   1  10
TORSDOF 3
ENDMDL
MODEL 7
REMARK VINA RESULT:      -7.5      4.375      6.078
REMARK  Name = *****
REMARK                            x       y       z     vdW  Elec       q    Type
REMARK                         _______ _______ _______ _____ _____    ______ ____
ROOT
ATOM      1  O   LIG    1       23.350 -24.572   6.729  0.00  0.00    -0.488 OA
ENDROOT
BRANCH   1   5
ATOM      2  C   LIG    1       26.037 -20.991   8.583  0.00  0.00    +0.044 C 
ATOM      3  C   LIG    1       24.947 -21.434   7.653  0.00  0.00    -0.047 A 
ATOM      4  C   LIG    1       24.599 -22.790   7.573  0.00  0.00    +0.049 A 
ATOM      5  C   LIG    1       23.572 -23.221   6.729  0.00  0.00    +0.121 A 
ATOM      6  C   LIG    1       22.877 -22.283   5.965  0.00  0.00    +0.049 A 
ATOM      7  C   LIG    1       23.214 -20.923   6.026  0.00  0.00    -0.047 A 
ATOM      8  C   LIG    1       22.445 -19.933   5.200  0.00  0.00    +0.044 C 
ATOM      9  C   LIG    1       24.242 -20.506   6.878  0.00  0.00    +0.007 A 
ENDBRANCH   1   5
BRANCH   1  10
ATOM     10  C   LIG    1       24.103 -25.347   5.793  0.00  0.00    +0.275 C 
BRANCH  10  11
ATOM     11  C   LIG    1       25.198 -26.108   6.542  0.00  0.00    +0.232 C 
ATOM     12  O   LIG    1       26.449 -25.965   5.843  0.00  0.00    -0.442 OA
ATOM     13  C   LIG    1       26.675 -27.114   5.137  0.00  0.00    +0.401 C 
ATOM     14  O   LIG    1       27.600 -27.287   4.367  0.00  0.00    -0.227 OA
ATOM     15  N   LIG    1       25.721 -28.041   5.448  0.00  0.00    -0.278 N 
ATOM     16  H   LIG    1       25.851 -29.001   5.154  0.00  0.00    +0.152 HD
ATOM     17  C   LIG    1       24.960 -27.604   6.567  0.00  0.00    +0.155 C 
ENDBRANCH  10  11
ENDBRANCH   1  10
TORSDOF 3
ENDMDL
MODEL 8
REMARK VINA RESULT:      -7.4      1.592      2.900
REMARK  Name = *****
REMARK                            x       y       z     vdW  Elec       q    Type
REMARK                         _______ _______ _______ _____ _____    ______ ____
ROOT
ATOM      1  O   LIG    1       26.805 -20.338   5.419  0.00  0.00    -0.488 OA
ENDROOT
BRANCH   1   5
ATOM      2  C   LIG    1       23.166 -23.204   6.842  0.00  0.00    +0.044 C 
ATOM      3  C   LIG    1       23.626 -21.940   6.178  0.00  0.00    -0.047 A 
ATOM      4  C   LIG    1       24.995 -21.661   6.070  0.00  0.00    +0.049 A 
ATOM      5  C   LIG    1       25.445 -20.500   5.434  0.00  0.00    +0.121 A 
ATOM      6  C   LIG    1       24.514 -19.615   4.891  0.00  0.00    +0.049 A 
ATOM      7  C   LIG    1       23.140 -19.873   4.994  0.00  0.00    -0.047 A 
ATOM      8  C   LIG    1       22.159 -18.908   4.393  0.00  0.00    +0.044 C 
ATOM      9  C   LIG    1       22.705 -21.041   5.630  0.00  0.00    +0.007 A 
ENDBRANCH   1   5
BRANCH   1  10
ATOM     10  C   LIG    1       27.473 -20.390   6.681  0.00  0.00    +0.275 C 
BRANCH  10  11
ATOM     11  C   LIG    1       28.985 -20.398   6.445  0.00  0.00    +0.232 C 
ATOM     12  O   LIG    1       29.652 -20.909   7.614  0.00  0.00    -0.442 OA
ATOM     13  C   LIG    1       30.159 -19.849   8.313  0.00  0.00    +0.401 C 
ATOM     14  O   LIG    1       30.703 -19.925   9.397  0.00  0.00    -0.227 OA
ATOM     15  N   LIG    1       29.982 -18.698   7.596  0.00  0.00    -0.278 N 
ATOM     16  H   LIG    1       30.464 -17.857   7.887  0.00  0.00    +0.152 HD
ATOM     17  C   LIG    1       29.558 -19.005   6.274  0.00  0.00    +0.155 C 
ENDBRANCH  10  11
ENDBRANCH   1  10
TORSDOF 3
ENDMDL
MODEL 9
REMARK VINA RESULT:      -7.4      3.951      6.370
REMARK  Name = *****
REMARK                            x       y       z     vdW  Elec       q    Type
REMARK                         _______ _______ _______ _____ _____    ______ ____
ROOT
ATOM      1  O   LIG    1       25.072 -24.706   6.911  0.00  0.00    -0.488 OA
ENDROOT
BRANCH   1   5
ATOM      2  C   LIG    1       27.675 -20.706   7.748  0.00  0.00    +0.044 C 
ATOM      3  C   LIG    1       26.396 -21.336   7.283  0.00  0.00    -0.047 A 
ATOM      4  C   LIG    1       26.257 -22.731   7.288  0.00  0.00    +0.049 A 
ATOM      5  C   LIG    1       25.065 -23.337   6.879  0.00  0.00    +0.121 A 
ATOM      6  C   LIG    1       23.997 -22.537   6.474  0.00  0.00    +0.049 A 
ATOM      7  C   LIG    1       24.118 -21.141   6.456  0.00  0.00    -0.047 A 
ATOM      8  C   LIG    1       22.950 -20.303   6.023  0.00  0.00    +0.044 C 
ATOM      9  C   LIG    1       25.316 -20.548   6.870  0.00  0.00    +0.007 A 
ENDBRANCH   1   5
BRANCH   1  10
ATOM     10  C   LIG    1       24.058 -25.371   6.154  0.00  0.00    +0.275 C 
BRANCH  10  11
ATOM     11  C   LIG    1       24.673 -26.583   5.452  0.00  0.00    +0.232 C 
ATOM     12  O   LIG    1       24.184 -27.792   6.062  0.00  0.00    -0.442 OA
ATOM     13  C   LIG    1       25.155 -28.272   6.896  0.00  0.00    +0.401 C 
ATOM     14  O   LIG    1       25.030 -29.231   7.633  0.00  0.00    -0.227 OA
ATOM     15  N   LIG    1       26.292 -27.526   6.756  0.00  0.00    -0.278 N 
ATOM     16  H   LIG    1       27.155 -27.861   7.163  0.00  0.00    +0.152 HD
ATOM     17  C   LIG    1       26.176 -26.663   5.632  0.00  0.00    +0.155 C 
ENDBRANCH  10  11
ENDBRANCH   1  10
TORSDOF 3
ENDMDL
