MODEL 1
REMARK VINA RESULT:       4.0      0.000      0.000
REMARK  Name = *****
REMARK                            x       y       z     vdW  Elec       q    Type
REMARK                         _______ _______ _______ _____ _____    ______ ____
ROOT
ATOM      1  C   LIG    1       25.490 -28.526   7.953  0.00  0.00    +0.000 A 
ATOM      2  C   LIG    1       24.902 -28.072   6.769  0.00  0.00    +0.017 A 
ATOM      3  C   LIG    1       25.024 -26.726   6.381  0.00  0.00    -0.002 A 
ATOM      4  C   LIG    1       24.422 -26.220   5.095  0.00  0.00    +0.265 C 
ATOM      5  O   LIG    1       24.025 -24.841   5.150  0.00  0.00    -0.487 OA
ATOM      6  C   LIG    1       25.013 -24.020   5.640  0.00  0.00    +0.129 A 
ATOM      7  C   LIG    1       25.927 -24.456   6.619  0.00  0.00    +0.025 A 
ATOM      8  C   LIG    1       26.947 -23.570   7.018  0.00  0.00    +0.020 A 
ATOM      9  C   LIG    1       27.032 -22.268   6.497  0.00  0.00    -0.015 A 
ATOM     10  C   LIG    1       26.040 -21.845   5.577  0.00  0.00    +0.013 A 
ATOM     11  C   LIG    1       26.069 -20.522   5.087  0.00  0.00    +0.097 A 
ATOM     12  C   LIG    1       27.103 -19.693   5.492  0.00  0.00    +0.067 A 
ATOM     13  C   LIG    1       28.130 -20.079   6.354  0.00  0.00    +0.028 A 
ATOM     14  N   LIG    1       26.841 -18.512   4.865  0.00  0.00    -0.340 N 
ATOM     15  H   LIG    1       27.403 -17.684   4.952  0.00  0.00    +0.167 HD
ATOM     16  C   LIG    1       25.703 -18.636   4.106  0.00  0.00    +0.129 A 
ATOM     17  N   LIG    1       25.214 -19.855   4.227  0.00  0.00    -0.230 NA
ATOM     18  C   LIG    1       28.062 -21.382   6.860  0.00  0.00    +0.010 A 
ATOM     19  C   LIG    1       25.038 -22.722   5.144  0.00  0.00    +0.057 A 
ATOM     20  C   LIG    1       25.779 -25.820   7.145  0.00  0.00    -0.008 A 
ATOM     21  C   LIG    1       26.316 -26.266   8.357  0.00  0.00    +0.009 A 
ATOM     22  C   LIG    1       26.169 -27.600   8.758  0.00  0.00    +0.010 A 
ENDROOT
BRANCH  16  23
ATOM     23  C   LIG    1       25.174 -17.536   3.236  0.00  0.00    +0.142 C 
ATOM     24  N   LIG    1       24.470 -16.529   4.036  0.00  0.00    -0.287 N 
ATOM     25  C   LIG    1       23.081 -16.522   4.231  0.00  0.00    +0.237 C 
ATOM     26  O   LIG    1       22.510 -15.501   4.627  0.00  0.00    -0.274 OA
ATOM     27  C   LIG    1       25.263 -15.286   4.107  0.00  0.00    +0.074 C 
ATOM     28  C   LIG    1       26.215 -15.251   5.312  0.00  0.00    +0.028 C 
ATOM     29  C   LIG    1       26.044 -15.302   2.793  0.00  0.00    +0.024 C 
ATOM     30  C   LIG    1       26.315 -16.783   2.533  0.00  0.00    +0.032 C 
BRANCH  25  31
ATOM     31  C   LIG    1       22.281 -17.870   4.089  0.00  0.00    +0.165 C 
BRANCH  31  32
ATOM     32  N   LIG    1       22.353 -18.569   5.383  0.00  0.00    -0.270 N 
ATOM     33  H   LIG    1       22.117 -18.063   6.236  0.00  0.00    +0.153 HD
ATOM     34  C   LIG    1       22.509 -19.916   5.528  0.00  0.00    +0.401 C 
ATOM     35  O   LIG    1       22.506 -20.476   6.615  0.00  0.00    -0.227 OA
BRANCH  34  36
ATOM     36  O   LIG    1       22.667 -20.501   4.303  0.00  0.00    -0.454 OA
ATOM     37  C   LIG    1       21.864 -21.636   4.013  0.00  0.00    +0.282 C 
ENDBRANCH  34  36
ENDBRANCH  31  32
BRANCH  31  38
ATOM     38  C   LIG    1       20.798 -17.684   3.623  0.00  0.00    +0.012 C 
ATOM     39  C   LIG    1       19.964 -18.980   3.707  0.00  0.00    +0.009 C 
ATOM     40  C   LIG    1       20.701 -17.174   2.181  0.00  0.00    +0.009 C 
ENDBRANCH  31  38
ENDBRANCH  25  31
ENDBRANCH  16  23
BRANCH   1  44
ATOM     41  C   LIG    1       25.101 -31.706   9.680  0.00  0.00    +0.128 A 
ATOM     42  N   LIG    1       25.276 -30.345   9.660  0.00  0.00    -0.340 N 
ATOM     43  H   LIG    1       25.280 -29.755  10.480  0.00  0.00    +0.167 HD
ATOM     44  C   LIG    1       25.400 -29.927   8.354  0.00  0.00    +0.066 A 
ATOM     45  C   LIG    1       25.440 -31.109   7.642  0.00  0.00    +0.139 A 
ATOM     46  N   LIG    1       25.255 -32.193   8.463  0.00  0.00    -0.238 NA
BRANCH  41  52
ATOM     47  C   LIG    1       22.622 -33.525  10.683  0.00  0.00    +0.034 C 
ATOM     48  C   LIG    1       22.537 -32.476  11.801  0.00  0.00    +0.114 C 
ATOM     49  N   LIG    1       23.809 -31.755  11.784  0.00  0.00    -0.289 N 
ATOM     50  C   LIG    1       24.231 -30.844  12.751  0.00  0.00    +0.241 C 
ATOM     51  O   LIG    1       25.434 -30.566  12.855  0.00  0.00    -0.273 OA
ATOM     52  C   LIG    1       24.797 -32.471  10.944  0.00  0.00    +0.142 C 
ATOM     53  C   LIG    1       24.127 -33.825  10.659  0.00  0.00    +0.037 C 
BRANCH  47  54
ATOM     54  C   LIG    1       22.057 -33.051   9.333  0.00  0.00    +0.164 C 
BRANCH  54  56
ATOM     55  C   LIG    1       19.803 -33.064  10.066  0.00  0.00    +0.193 C 
ATOM     56  O   LIG    1       20.749 -33.601   9.147  0.00  0.00    -0.383 OA
ENDBRANCH  54  56
ENDBRANCH  47  54
BRANCH  50  57
ATOM     57  C   LIG    1       23.173 -30.149  13.679  0.00  0.00    +0.193 C 
BRANCH  57  58
ATOM     58  C   LIG    1       23.445 -28.664  13.900  0.00  0.00    -0.018 A 
ATOM     59  C   LIG    1       24.503 -28.194  14.699  0.00  0.00    +0.006 A 
ATOM     60  C   LIG    1       24.749 -26.822  14.836  0.00  0.00    +0.000 A 
ATOM     61  C   LIG    1       23.947 -25.895  14.174  0.00  0.00    +0.000 A 
ATOM     62  C   LIG    1       22.895 -26.340  13.379  0.00  0.00    +0.000 A 
ATOM     63  C   LIG    1       22.653 -27.711  13.234  0.00  0.00    +0.006 A 
ENDBRANCH  57  58
BRANCH  57  64
ATOM     64  N   LIG    1       21.816 -30.311  13.080  0.00  0.00    -0.266 N 
ATOM     65  H   LIG    1       21.731 -30.089  12.096  0.00  0.00    +0.153 HD
ATOM     66  C   LIG    1       20.637 -30.668  13.651  0.00  0.00    +0.401 C 
ATOM     67  O   LIG    1       19.571 -30.614  13.092  0.00  0.00    -0.227 OA
BRANCH  66  68
ATOM     68  O   LIG    1       20.834 -31.087  14.961  0.00  0.00    -0.454 OA
ATOM     69  C   LIG    1       20.613 -32.487  15.176  0.00  0.00    +0.282 C 
ENDBRANCH  66  68
ENDBRANCH  57  64
ENDBRANCH  50  57
ENDBRANCH  41  52
ENDBRANCH   1  44
TORSDOF 13
ENDMDL
MODEL 2
REMARK VINA RESULT:       4.2      1.024      1.292
REMARK  Name = *****
REMARK                            x       y       z     vdW  Elec       q    Type
REMARK                         _______ _______ _______ _____ _____    ______ ____
ROOT
ATOM      1  C   LIG    1       25.476 -28.722   7.880  0.00  0.00    +0.000 A 
ATOM      2  C   LIG    1       24.934 -28.267   6.674  0.00  0.00    +0.017 A 
ATOM      3  C   LIG    1       25.050 -26.916   6.305  0.00  0.00    -0.002 A 
ATOM      4  C   LIG    1       24.499 -26.408   4.997  0.00  0.00    +0.265 C 
ATOM      5  O   LIG    1       24.075 -25.036   5.046  0.00  0.00    -0.487 OA
ATOM      6  C   LIG    1       25.025 -24.203   5.589  0.00  0.00    +0.129 A 
ATOM      7  C   LIG    1       25.899 -24.632   6.605  0.00  0.00    +0.025 A 
ATOM      8  C   LIG    1       26.883 -23.732   7.060  0.00  0.00    +0.020 A 
ATOM      9  C   LIG    1       26.968 -22.423   6.555  0.00  0.00    -0.015 A 
ATOM     10  C   LIG    1       26.013 -22.010   5.594  0.00  0.00    +0.013 A 
ATOM     11  C   LIG    1       26.041 -20.681   5.118  0.00  0.00    +0.097 A 
ATOM     12  C   LIG    1       27.040 -19.838   5.578  0.00  0.00    +0.067 A 
ATOM     13  C   LIG    1       28.032 -20.215   6.484  0.00  0.00    +0.028 A 
ATOM     14  N   LIG    1       26.785 -18.655   4.950  0.00  0.00    -0.340 N 
ATOM     15  H   LIG    1       27.327 -17.819   5.071  0.00  0.00    +0.167 HD
ATOM     16  C   LIG    1       25.687 -18.793   4.138  0.00  0.00    +0.129 A 
ATOM     17  N   LIG    1       25.215 -20.021   4.225  0.00  0.00    -0.230 NA
ATOM     18  C   LIG    1       27.965 -21.523   6.974  0.00  0.00    +0.010 A 
ATOM     19  C   LIG    1       25.048 -22.899   5.107  0.00  0.00    +0.057 A 
ATOM     20  C   LIG    1       25.753 -26.004   7.111  0.00  0.00    -0.008 A 
ATOM     21  C   LIG    1       26.240 -26.453   8.343  0.00  0.00    +0.009 A 
ATOM     22  C   LIG    1       26.099 -27.793   8.724  0.00  0.00    +0.010 A 
ENDROOT
BRANCH  16  23
ATOM     23  C   LIG    1       25.178 -17.693   3.255  0.00  0.00    +0.142 C 
ATOM     24  N   LIG    1       24.472 -16.676   4.038  0.00  0.00    -0.287 N 
ATOM     25  C   LIG    1       23.080 -16.657   4.215  0.00  0.00    +0.237 C 
ATOM     26  O   LIG    1       22.512 -15.629   4.597  0.00  0.00    -0.274 OA
ATOM     27  C   LIG    1       25.273 -15.439   4.114  0.00  0.00    +0.074 C 
ATOM     28  C   LIG    1       26.209 -15.404   5.331  0.00  0.00    +0.028 C 
ATOM     29  C   LIG    1       26.072 -15.469   2.811  0.00  0.00    +0.024 C 
ATOM     30  C   LIG    1       26.335 -16.954   2.564  0.00  0.00    +0.032 C 
BRANCH  25  31
ATOM     31  C   LIG    1       22.271 -17.999   4.069  0.00  0.00    +0.165 C 
BRANCH  31  32
ATOM     32  N   LIG    1       22.353 -18.711   5.356  0.00  0.00    -0.270 N 
ATOM     33  H   LIG    1       22.096 -18.221   6.212  0.00  0.00    +0.153 HD
ATOM     34  C   LIG    1       22.549 -20.054   5.487  0.00  0.00    +0.401 C 
ATOM     35  O   LIG    1       22.554 -20.625   6.567  0.00  0.00    -0.227 OA
BRANCH  34  36
ATOM     36  O   LIG    1       22.734 -20.620   4.257  0.00  0.00    -0.454 OA
ATOM     37  C   LIG    1       21.782 -21.585   3.832  0.00  0.00    +0.282 C 
ENDBRANCH  34  36
ENDBRANCH  31  32
BRANCH  31  38
ATOM     38  C   LIG    1       20.784 -17.801   3.621  0.00  0.00    +0.012 C 
ATOM     39  C   LIG    1       19.919 -19.067   3.796  0.00  0.00    +0.009 C 
ATOM     40  C   LIG    1       20.671 -17.373   2.154  0.00  0.00    +0.009 C 
ENDBRANCH  31  38
ENDBRANCH  25  31
ENDBRANCH  16  23
BRANCH   1  44
ATOM     41  C   LIG    1       25.195 -31.927   9.583  0.00  0.00    +0.128 A 
ATOM     42  N   LIG    1       25.404 -30.571   9.568  0.00  0.00    -0.340 N 
ATOM     43  H   LIG    1       25.516 -29.998  10.393  0.00  0.00    +0.167 HD
ATOM     44  C   LIG    1       25.392 -30.129   8.263  0.00  0.00    +0.066 A 
ATOM     45  C   LIG    1       25.320 -31.297   7.530  0.00  0.00    +0.139 A 
ATOM     46  N   LIG    1       25.199 -32.392   8.348  0.00  0.00    -0.238 NA
BRANCH  41  52
ATOM     47  C   LIG    1       22.637 -33.129  11.155  0.00  0.00    +0.034 C 
ATOM     48  C   LIG    1       23.126 -32.213  12.286  0.00  0.00    +0.114 C 
ATOM     49  N   LIG    1       24.504 -31.851  11.952  0.00  0.00    -0.289 N 
ATOM     50  C   LIG    1       25.389 -31.183  12.798  0.00  0.00    +0.241 C 
ATOM     51  O   LIG    1       26.607 -31.241  12.587  0.00  0.00    -0.273 OA
ATOM     52  C   LIG    1       25.014 -32.710  10.859  0.00  0.00    +0.142 C 
ATOM     53  C   LIG    1       23.945 -33.807  10.723  0.00  0.00    +0.037 C 
BRANCH  47  54
ATOM     54  C   LIG    1       21.910 -32.390  10.018  0.00  0.00    +0.164 C 
BRANCH  54  56
ATOM     55  C   LIG    1       19.603 -32.905  10.208  0.00  0.00    +0.193 C 
ATOM     56  O   LIG    1       20.829 -33.199   9.544  0.00  0.00    -0.383 OA
ENDBRANCH  54  56
ENDBRANCH  47  54
BRANCH  50  57
ATOM     57  C   LIG    1       24.829 -30.335  13.995  0.00  0.00    +0.193 C 
BRANCH  57  58
ATOM     58  C   LIG    1       25.845 -29.345  14.559  0.00  0.00    -0.018 A 
ATOM     59  C   LIG    1       27.109 -29.737  15.033  0.00  0.00    +0.006 A 
ATOM     60  C   LIG    1       28.032 -28.791  15.497  0.00  0.00    +0.000 A 
ATOM     61  C   LIG    1       27.710 -27.436  15.493  0.00  0.00    +0.000 A 
ATOM     62  C   LIG    1       26.462 -27.027  15.029  0.00  0.00    +0.000 A 
ATOM     63  C   LIG    1       25.543 -27.970  14.556  0.00  0.00    +0.006 A 
ENDBRANCH  57  58
BRANCH  57  64
ATOM     64  N   LIG    1       23.621 -29.587  13.541  0.00  0.00    -0.266 N 
ATOM     65  H   LIG    1       23.714 -29.065  12.679  0.00  0.00    +0.153 HD
ATOM     66  C   LIG    1       22.402 -29.444  14.124  0.00  0.00    +0.401 C 
ATOM     67  O   LIG    1       21.553 -28.684  13.735  0.00  0.00    -0.227 OA
BRANCH  66  68
ATOM     68  O   LIG    1       22.285 -30.280  15.227  0.00  0.00    -0.454 OA
ATOM     69  C   LIG    1       21.013 -30.931  15.345  0.00  0.00    +0.282 C 
ENDBRANCH  66  68
ENDBRANCH  57  64
ENDBRANCH  50  57
ENDBRANCH  41  52
ENDBRANCH   1  44
TORSDOF 13
ENDMDL
MODEL 3
REMARK VINA RESULT:       4.7      1.193      2.461
REMARK  Name = *****
REMARK                            x       y       z     vdW  Elec       q    Type
REMARK                         _______ _______ _______ _____ _____    ______ ____
ROOT
ATOM      1  C   LIG    1       25.660 -28.505   8.161  0.00  0.00    +0.000 A 
ATOM      2  C   LIG    1       25.076 -28.088   6.961  0.00  0.00    +0.017 A 
ATOM      3  C   LIG    1       25.176 -26.749   6.546  0.00  0.00    -0.002 A 
ATOM      4  C   LIG    1       24.578 -26.282   5.243  0.00  0.00    +0.265 C 
ATOM      5  O   LIG    1       24.154 -24.910   5.265  0.00  0.00    -0.487 OA
ATOM      6  C   LIG    1       25.120 -24.060   5.748  0.00  0.00    +0.129 A 
ATOM      7  C   LIG    1       26.031 -24.457   6.745  0.00  0.00    +0.025 A 
ATOM      8  C   LIG    1       27.029 -23.542   7.137  0.00  0.00    +0.020 A 
ATOM      9  C   LIG    1       27.094 -22.250   6.589  0.00  0.00    -0.015 A 
ATOM     10  C   LIG    1       26.105 -21.867   5.649  0.00  0.00    +0.013 A 
ATOM     11  C   LIG    1       26.113 -20.554   5.132  0.00  0.00    +0.097 A 
ATOM     12  C   LIG    1       27.126 -19.696   5.530  0.00  0.00    +0.067 A 
ATOM     13  C   LIG    1       28.150 -20.044   6.412  0.00  0.00    +0.028 A 
ATOM     14  N   LIG    1       26.848 -18.533   4.876  0.00  0.00    -0.340 N 
ATOM     15  H   LIG    1       27.392 -17.693   4.951  0.00  0.00    +0.167 HD
ATOM     16  C   LIG    1       25.721 -18.697   4.108  0.00  0.00    +0.129 A 
ATOM     17  N   LIG    1       25.255 -19.922   4.249  0.00  0.00    -0.230 NA
ATOM     18  C   LIG    1       28.103 -21.336   6.945  0.00  0.00    +0.010 A 
ATOM     19  C   LIG    1       25.125 -22.772   5.225  0.00  0.00    +0.057 A 
ATOM     20  C   LIG    1       25.905 -25.812   7.299  0.00  0.00    -0.008 A 
ATOM     21  C   LIG    1       26.436 -26.222   8.526  0.00  0.00    +0.009 A 
ATOM     22  C   LIG    1       26.311 -27.550   8.952  0.00  0.00    +0.010 A 
ENDROOT
BRANCH  16  23
ATOM     23  C   LIG    1       25.180 -17.625   3.209  0.00  0.00    +0.142 C 
ATOM     24  N   LIG    1       24.451 -16.614   3.980  0.00  0.00    -0.287 N 
ATOM     25  C   LIG    1       23.060 -16.628   4.163  0.00  0.00    +0.237 C 
ATOM     26  O   LIG    1       22.468 -15.609   4.531  0.00  0.00    -0.274 OA
ATOM     27  C   LIG    1       25.221 -15.355   4.030  0.00  0.00    +0.074 C 
ATOM     28  C   LIG    1       26.161 -15.276   5.242  0.00  0.00    +0.028 C 
ATOM     29  C   LIG    1       26.014 -15.386   2.724  0.00  0.00    +0.024 C 
ATOM     30  C   LIG    1       26.314 -16.868   2.500  0.00  0.00    +0.032 C 
BRANCH  25  31
ATOM     31  C   LIG    1       22.286 -17.993   4.044  0.00  0.00    +0.165 C 
BRANCH  31  32
ATOM     32  N   LIG    1       22.446 -18.709   5.321  0.00  0.00    -0.270 N 
ATOM     33  H   LIG    1       22.361 -18.191   6.195  0.00  0.00    +0.153 HD
ATOM     34  C   LIG    1       22.493 -20.065   5.447  0.00  0.00    +0.401 C 
ATOM     35  O   LIG    1       22.568 -20.633   6.527  0.00  0.00    -0.227 OA
BRANCH  34  36
ATOM     36  O   LIG    1       22.450 -20.650   4.213  0.00  0.00    -0.454 OA
ATOM     37  C   LIG    1       22.726 -22.041   4.139  0.00  0.00    +0.282 C 
ENDBRANCH  34  36
ENDBRANCH  31  32
BRANCH  31  38
ATOM     38  C   LIG    1       20.776 -17.837   3.663  0.00  0.00    +0.012 C 
ATOM     39  C   LIG    1       19.950 -19.119   3.898  0.00  0.00    +0.009 C 
ATOM     40  C   LIG    1       20.584 -17.436   2.197  0.00  0.00    +0.009 C 
ENDBRANCH  31  38
ENDBRANCH  25  31
ENDBRANCH  16  23
BRANCH   1  44
ATOM     41  C   LIG    1       24.993 -31.687   9.796  0.00  0.00    +0.128 A 
ATOM     42  N   LIG    1       24.978 -30.316   9.750  0.00  0.00    -0.340 N 
ATOM     43  H   LIG    1       24.553 -29.723  10.448  0.00  0.00    +0.167 HD
ATOM     44  C   LIG    1       25.593 -29.900   8.590  0.00  0.00    +0.066 A 
ATOM     45  C   LIG    1       26.089 -31.070   8.052  0.00  0.00    +0.139 A 
ATOM     46  N   LIG    1       25.715 -32.160   8.798  0.00  0.00    -0.238 NA
BRANCH  41  52
ATOM     47  C   LIG    1       22.317 -33.503   9.869  0.00  0.00    +0.034 C 
ATOM     48  C   LIG    1       21.864 -32.477  10.917  0.00  0.00    +0.114 C 
ATOM     49  N   LIG    1       23.070 -31.768  11.343  0.00  0.00    -0.289 N 
ATOM     50  C   LIG    1       23.146 -30.880  12.416  0.00  0.00    +0.241 C 
ATOM     51  O   LIG    1       24.244 -30.616  12.924  0.00  0.00    -0.273 OA
ATOM     52  C   LIG    1       24.281 -32.475  10.868  0.00  0.00    +0.142 C 
ATOM     53  C   LIG    1       23.742 -33.817  10.344  0.00  0.00    +0.037 C 
BRANCH  47  54
ATOM     54  C   LIG    1       22.238 -32.997   8.419  0.00  0.00    +0.164 C 
BRANCH  54  56
ATOM     55  C   LIG    1       22.857 -33.649   6.225  0.00  0.00    +0.193 C 
ATOM     56  O   LIG    1       23.171 -33.724   7.613  0.00  0.00    -0.383 OA
ENDBRANCH  54  56
ENDBRANCH  47  54
BRANCH  50  57
ATOM     57  C   LIG    1       21.838 -30.195  12.952  0.00  0.00    +0.193 C 
BRANCH  57  58
ATOM     58  C   LIG    1       20.973 -31.125  13.797  0.00  0.00    -0.018 A 
ATOM     59  C   LIG    1       19.577 -31.211  13.648  0.00  0.00    +0.006 A 
ATOM     60  C   LIG    1       18.824 -32.114  14.410  0.00  0.00    +0.000 A 
ATOM     61  C   LIG    1       19.451 -32.949  15.331  0.00  0.00    +0.000 A 
ATOM     62  C   LIG    1       20.832 -32.877  15.495  0.00  0.00    +0.000 A 
ATOM     63  C   LIG    1       21.587 -31.983  14.728  0.00  0.00    +0.006 A 
ENDBRANCH  57  58
BRANCH  57  64
ATOM     64  N   LIG    1       22.211 -29.003  13.768  0.00  0.00    -0.266 N 
ATOM     65  H   LIG    1       22.918 -29.147  14.477  0.00  0.00    +0.153 HD
ATOM     66  C   LIG    1       21.719 -27.736  13.753  0.00  0.00    +0.401 C 
ATOM     67  O   LIG    1       21.995 -26.895  14.571  0.00  0.00    -0.227 OA
BRANCH  66  68
ATOM     68  O   LIG    1       20.854 -27.558  12.681  0.00  0.00    -0.454 OA
ATOM     69  C   LIG    1       19.974 -26.433  12.809  0.00  0.00    +0.282 C 
ENDBRANCH  66  68
ENDBRANCH  57  64
ENDBRANCH  50  57
ENDBRANCH  41  52
ENDBRANCH   1  44
TORSDOF 13
ENDMDL
MODEL 4
REMARK VINA RESULT:       6.7      1.515      2.148
REMARK  Name = *****
REMARK                            x       y       z     vdW  Elec       q    Type
REMARK                         _______ _______ _______ _____ _____    ______ ____
ROOT
ATOM      1  C   LIG    1       25.383 -27.932   7.304  0.00  0.00    +0.000 A 
ATOM      2  C   LIG    1       24.714 -27.373   6.210  0.00  0.00    +0.017 A 
ATOM      3  C   LIG    1       24.899 -26.021   5.876  0.00  0.00    -0.002 A 
ATOM      4  C   LIG    1       24.211 -25.403   4.685  0.00  0.00    +0.265 C 
ATOM      5  O   LIG    1       23.926 -24.005   4.847  0.00  0.00    -0.487 OA
ATOM      6  C   LIG    1       25.018 -23.284   5.271  0.00  0.00    +0.129 A 
ATOM      7  C   LIG    1       25.989 -23.836   6.127  0.00  0.00    +0.025 A 
ATOM      8  C   LIG    1       27.108 -23.047   6.461  0.00  0.00    +0.020 A 
ATOM      9  C   LIG    1       27.238 -21.727   5.996  0.00  0.00    -0.015 A 
ATOM     10  C   LIG    1       26.194 -21.186   5.205  0.00  0.00    +0.013 A 
ATOM     11  C   LIG    1       26.274 -19.843   4.778  0.00  0.00    +0.097 A 
ATOM     12  C   LIG    1       27.403 -19.113   5.113  0.00  0.00    +0.067 A 
ATOM     13  C   LIG    1       28.478 -19.617   5.845  0.00  0.00    +0.028 A 
ATOM     14  N   LIG    1       27.169 -17.883   4.574  0.00  0.00    -0.340 N 
ATOM     15  H   LIG    1       27.798 -17.102   4.642  0.00  0.00    +0.167 HD
ATOM     16  C   LIG    1       25.955 -17.885   3.932  0.00  0.00    +0.129 A 
ATOM     17  N   LIG    1       25.390 -19.071   4.045  0.00  0.00    -0.230 NA
ATOM     18  C   LIG    1       28.364 -20.937   6.293  0.00  0.00    +0.010 A 
ATOM     19  C   LIG    1       25.091 -21.965   4.837  0.00  0.00    +0.057 A 
ATOM     20  C   LIG    1       25.793 -25.213   6.600  0.00  0.00    -0.008 A 
ATOM     21  C   LIG    1       26.412 -25.762   7.728  0.00  0.00    +0.009 A 
ATOM     22  C   LIG    1       26.206 -27.102   8.077  0.00  0.00    +0.010 A 
ENDROOT
BRANCH  16  23
ATOM     23  C   LIG    1       25.426 -16.704   3.175  0.00  0.00    +0.142 C 
ATOM     24  N   LIG    1       24.793 -15.742   4.082  0.00  0.00    -0.287 N 
ATOM     25  C   LIG    1       23.415 -15.708   4.342  0.00  0.00    +0.237 C 
ATOM     26  O   LIG    1       22.897 -14.704   4.841  0.00  0.00    -0.274 OA
ATOM     27  C   LIG    1       25.630 -14.533   4.212  0.00  0.00    +0.074 C 
ATOM     28  C   LIG    1       26.635 -14.622   5.370  0.00  0.00    +0.028 C 
ATOM     29  C   LIG    1       26.352 -14.470   2.866  0.00  0.00    +0.024 C 
ATOM     30  C   LIG    1       26.561 -15.934   2.480  0.00  0.00    +0.032 C 
BRANCH  25  31
ATOM     31  C   LIG    1       22.564 -17.015   4.133  0.00  0.00    +0.165 C 
BRANCH  31  32
ATOM     32  N   LIG    1       22.718 -17.845   5.340  0.00  0.00    -0.270 N 
ATOM     33  H   LIG    1       22.698 -17.398   6.256  0.00  0.00    +0.153 HD
ATOM     34  C   LIG    1       22.680 -19.207   5.353  0.00  0.00    +0.401 C 
ATOM     35  O   LIG    1       22.753 -19.868   6.379  0.00  0.00    -0.227 OA
BRANCH  34  36
ATOM     36  O   LIG    1       22.557 -19.682   4.078  0.00  0.00    -0.454 OA
ATOM     37  C   LIG    1       21.861 -20.908   3.901  0.00  0.00    +0.282 C 
ENDBRANCH  34  36
ENDBRANCH  31  32
BRANCH  31  38
ATOM     38  C   LIG    1       21.055 -16.748   3.815  0.00  0.00    +0.012 C 
ATOM     39  C   LIG    1       20.207 -16.459   5.071  0.00  0.00    +0.009 C 
ATOM     40  C   LIG    1       20.397 -17.925   3.085  0.00  0.00    +0.009 C 
ENDBRANCH  31  38
ENDBRANCH  25  31
ENDBRANCH  16  23
BRANCH   1  44
ATOM     41  C   LIG    1       25.444 -31.251   8.797  0.00  0.00    +0.128 A 
ATOM     42  N   LIG    1       25.900 -29.963   8.674  0.00  0.00    -0.340 N 
ATOM     43  H   LIG    1       26.598 -29.542   9.272  0.00  0.00    +0.167 HD
ATOM     44  C   LIG    1       25.227 -29.344   7.644  0.00  0.00    +0.066 A 
ATOM     45  C   LIG    1       24.482 -30.365   7.089  0.00  0.00    +0.139 A 
ATOM     46  N   LIG    1       24.620 -31.529   7.803  0.00  0.00    -0.238 NA
BRANCH  41  52
ATOM     47  C   LIG    1       23.880 -33.184  10.865  0.00  0.00    +0.034 C 
ATOM     48  C   LIG    1       24.530 -32.281  11.923  0.00  0.00    +0.114 C 
ATOM     49  N   LIG    1       25.605 -31.561  11.241  0.00  0.00    -0.289 N 
ATOM     50  C   LIG    1       26.570 -30.774  11.867  0.00  0.00    +0.241 C 
ATOM     51  O   LIG    1       27.628 -30.509  11.280  0.00  0.00    -0.273 OA
ATOM     52  C   LIG    1       25.873 -32.166   9.916  0.00  0.00    +0.142 C 
ATOM     53  C   LIG    1       25.069 -33.476   9.940  0.00  0.00    +0.037 C 
BRANCH  47  54
ATOM     54  C   LIG    1       22.674 -32.550  10.152  0.00  0.00    +0.164 C 
BRANCH  54  56
ATOM     55  C   LIG    1       20.396 -32.217  10.721  0.00  0.00    +0.193 C 
ATOM     56  O   LIG    1       21.751 -32.057  11.129  0.00  0.00    -0.383 OA
ENDBRANCH  54  56
ENDBRANCH  47  54
BRANCH  50  57
ATOM     57  C   LIG    1       26.295 -30.201  13.303  0.00  0.00    +0.193 C 
BRANCH  57  58
ATOM     58  C   LIG    1       25.656 -28.815  13.287  0.00  0.00    -0.018 A 
ATOM     59  C   LIG    1       24.287 -28.604  13.533  0.00  0.00    +0.006 A 
ATOM     60  C   LIG    1       23.750 -27.310  13.558  0.00  0.00    +0.000 A 
ATOM     61  C   LIG    1       24.569 -26.205  13.343  0.00  0.00    +0.000 A 
ATOM     62  C   LIG    1       25.926 -26.393  13.096  0.00  0.00    +0.000 A 
ATOM     63  C   LIG    1       26.467 -27.684  13.080  0.00  0.00    +0.006 A 
ENDBRANCH  57  58
BRANCH  57  64
ATOM     64  N   LIG    1       25.399 -31.140  14.040  0.00  0.00    -0.266 N 
ATOM     65  H   LIG    1       24.407 -30.949  13.986  0.00  0.00    +0.153 HD
ATOM     66  C   LIG    1       25.697 -32.206  14.828  0.00  0.00    +0.401 C 
ATOM     67  O   LIG    1       24.888 -32.797  15.497  0.00  0.00    -0.227 OA
BRANCH  66  68
ATOM     68  O   LIG    1       27.052 -32.502  14.761  0.00  0.00    -0.454 OA
ATOM     69  C   LIG    1       27.893 -31.601  15.495  0.00  0.00    +0.282 C 
ENDBRANCH  66  68
ENDBRANCH  57  64
ENDBRANCH  50  57
ENDBRANCH  41  52
ENDBRANCH   1  44
TORSDOF 13
ENDMDL
