MODEL 1
REMARK VINA RESULT:      -5.5      0.000      0.000
REMARK  Name = *****
REMARK                            x       y       z     vdW  Elec       q    Type
REMARK                         _______ _______ _______ _____ _____    ______ ____
ROOT
ATOM      1  N   LIG    1       24.974 -17.136   3.170  0.00  0.00    -0.298 N 
ATOM      2  H   LIG    1       24.047 -16.790   2.913  0.00  0.00    +0.154 HD
ENDROOT
BRANCH   1   5
ATOM      3  C   LIG    1       22.340 -18.106   3.962  0.00  0.00    +0.047 C 
ATOM      4  C   LIG    1       23.596 -18.929   4.120  0.00  0.00    -0.011 A 
ATOM      5  C   LIG    1       24.873 -18.406   3.794  0.00  0.00    +0.037 A 
ATOM      6  C   LIG    1       26.014 -19.167   4.094  0.00  0.00    +0.023 A 
ATOM      7  C   LIG    1       25.906 -20.467   4.587  0.00  0.00    +0.003 A 
ATOM      8  C   LIG    1       24.652 -21.014   4.829  0.00  0.00    +0.020 A 
ATOM      9  C   LIG    1       23.508 -20.241   4.633  0.00  0.00    +0.046 A 
ATOM     10 CL   LIG    1       21.989 -20.961   5.046  0.00  0.00    -0.083 Cl
ENDBRANCH   1   5
BRANCH   1  11
ATOM     11  C   LIG    1       25.720 -15.997   3.509  0.00  0.00    +0.137 A 
ATOM     12  C   LIG    1       25.191 -14.738   3.811  0.00  0.00    +0.099 A 
ATOM     13  C   LIG    1       26.073 -13.685   4.100  0.00  0.00    +0.020 A 
ATOM     14  C   LIG    1       27.437 -13.926   4.177  0.00  0.00    +0.021 A 
ATOM     15  C   LIG    1       27.871 -15.217   3.954  0.00  0.00    +0.113 A 
ATOM     16  N   LIG    1       27.050 -16.239   3.613  0.00  0.00    -0.239 NA
BRANCH  12  17
ATOM     17  C   LIG    1       23.752 -14.426   3.948  0.00  0.00    +0.340 C 
ATOM     18  O   LIG    1       23.024 -15.043   4.703  0.00  0.00    -0.245 OA
BRANCH  17  19
ATOM     19  O   LIG    1       23.293 -13.528   3.051  0.00  0.00    -0.477 OA
ATOM     20  H   LIG    1       22.629 -12.905   3.410  0.00  0.00    +0.295 HD
ENDBRANCH  17  19
ENDBRANCH  12  17
ENDBRANCH   1  11
TORSDOF 4
ENDMDL
MODEL 2
REMARK VINA RESULT:      -4.9      3.222      4.582
REMARK  Name = *****
REMARK                            x       y       z     vdW  Elec       q    Type
REMARK                         _______ _______ _______ _____ _____    ______ ____
ROOT
ATOM      1  N   LIG    1       26.187 -20.098   4.496  0.00  0.00    -0.298 N 
ATOM      2  H   LIG    1       26.297 -19.365   3.792  0.00  0.00    +0.154 HD
ENDROOT
BRANCH   1   5
ATOM      3  C   LIG    1       24.255 -18.142   3.525  0.00  0.00    +0.047 C 
ATOM      4  C   LIG    1       23.853 -19.375   4.295  0.00  0.00    -0.011 A 
ATOM      5  C   LIG    1       24.817 -20.273   4.819  0.00  0.00    +0.037 A 
ATOM      6  C   LIG    1       24.388 -21.324   5.644  0.00  0.00    +0.023 A 
ATOM      7  C   LIG    1       23.031 -21.570   5.854  0.00  0.00    +0.003 A 
ATOM      8  C   LIG    1       22.079 -20.741   5.273  0.00  0.00    +0.020 A 
ATOM      9  C   LIG    1       22.485 -19.632   4.531  0.00  0.00    +0.046 A 
ATOM     10 CL   LIG    1       21.241 -18.595   3.919  0.00  0.00    -0.083 Cl
ENDBRANCH   1   5
BRANCH   1  11
ATOM     11  C   LIG    1       27.325 -20.009   5.314  0.00  0.00    +0.137 A 
ATOM     12  C   LIG    1       28.235 -18.947   5.329  0.00  0.00    +0.099 A 
ATOM     13  C   LIG    1       29.346 -19.020   6.184  0.00  0.00    +0.020 A 
ATOM     14  C   LIG    1       29.474 -20.087   7.062  0.00  0.00    +0.021 A 
ATOM     15  C   LIG    1       28.485 -21.048   7.048  0.00  0.00    +0.113 A 
ATOM     16  N   LIG    1       27.435 -21.036   6.192  0.00  0.00    -0.239 NA
BRANCH  12  17
ATOM     17  C   LIG    1       28.084 -17.682   4.578  0.00  0.00    +0.340 C 
ATOM     18  O   LIG    1       27.271 -17.553   3.682  0.00  0.00    -0.245 OA
BRANCH  17  19
ATOM     19  O   LIG    1       29.029 -16.759   4.856  0.00  0.00    -0.477 OA
ATOM     20  H   LIG    1       29.298 -16.731   5.797  0.00  0.00    +0.295 HD
ENDBRANCH  17  19
ENDBRANCH  12  17
ENDBRANCH   1  11
TORSDOF 4
ENDMDL
MODEL 3
REMARK VINA RESULT:      -4.8      3.406      6.178
REMARK  Name = *****
REMARK                            x       y       z     vdW  Elec       q    Type
REMARK                         _______ _______ _______ _____ _____    ______ ____
ROOT
ATOM      1  N   LIG    1       24.823 -18.012   3.579  0.00  0.00    -0.298 N 
ATOM      2  H   LIG    1       25.778 -18.376   3.562  0.00  0.00    +0.154 HD
ENDROOT
BRANCH   1   5
ATOM      3  C   LIG    1       27.374 -16.601   3.534  0.00  0.00    +0.047 C 
ATOM      4  C   LIG    1       26.052 -15.893   3.694  0.00  0.00    -0.011 A 
ATOM      5  C   LIG    1       24.831 -16.609   3.786  0.00  0.00    +0.037 A 
ATOM      6  C   LIG    1       23.652 -15.904   4.076  0.00  0.00    +0.023 A 
ATOM      7  C   LIG    1       23.642 -14.512   4.150  0.00  0.00    +0.003 A 
ATOM      8  C   LIG    1       24.823 -13.801   3.978  0.00  0.00    +0.020 A 
ATOM      9  C   LIG    1       26.024 -14.485   3.788  0.00  0.00    +0.046 A 
ATOM     10 CL   LIG    1       27.464 -13.532   3.675  0.00  0.00    -0.083 Cl
ENDBRANCH   1   5
BRANCH   1  11
ATOM     11  C   LIG    1       24.043 -19.026   4.157  0.00  0.00    +0.137 A 
ATOM     12  C   LIG    1       24.529 -20.077   4.943  0.00  0.00    +0.099 A 
ATOM     13  C   LIG    1       23.624 -21.036   5.424  0.00  0.00    +0.020 A 
ATOM     14  C   LIG    1       22.264 -20.878   5.199  0.00  0.00    +0.021 A 
ATOM     15  C   LIG    1       21.859 -19.766   4.492  0.00  0.00    +0.113 A 
ATOM     16  N   LIG    1       22.713 -18.857   3.963  0.00  0.00    -0.239 NA
BRANCH  12  17
ATOM     17  C   LIG    1       25.928 -20.226   5.401  0.00  0.00    +0.340 C 
ATOM     18  O   LIG    1       26.212 -20.381   6.574  0.00  0.00    -0.245 OA
BRANCH  17  19
ATOM     19  O   LIG    1       26.850 -20.005   4.441  0.00  0.00    -0.477 OA
ATOM     20  H   LIG    1       27.720 -20.417   4.619  0.00  0.00    +0.295 HD
ENDBRANCH  17  19
ENDBRANCH  12  17
ENDBRANCH   1  11
TORSDOF 4
ENDMDL
MODEL 4
REMARK VINA RESULT:      -4.8      0.976      1.889
REMARK  Name = *****
REMARK                            x       y       z     vdW  Elec       q    Type
REMARK                         _______ _______ _______ _____ _____    ______ ____
ROOT
ATOM      1  N   LIG    1       25.086 -17.245   3.060  0.00  0.00    -0.298 N 
ATOM      2  H   LIG    1       24.536 -16.927   2.259  0.00  0.00    +0.154 HD
ENDROOT
BRANCH   1   5
ATOM      3  C   LIG    1       26.576 -19.510   4.132  0.00  0.00    +0.047 C 
ATOM      4  C   LIG    1       25.099 -19.318   4.369  0.00  0.00    -0.011 A 
ATOM      5  C   LIG    1       24.383 -18.247   3.776  0.00  0.00    +0.037 A 
ATOM      6  C   LIG    1       22.987 -18.202   3.920  0.00  0.00    +0.023 A 
ATOM      7  C   LIG    1       22.315 -19.115   4.731  0.00  0.00    +0.003 A 
ATOM      8  C   LIG    1       23.024 -20.117   5.382  0.00  0.00    +0.020 A 
ATOM      9  C   LIG    1       24.398 -20.242   5.174  0.00  0.00    +0.046 A 
ATOM     10 CL   LIG    1       25.194 -21.572   5.946  0.00  0.00    -0.083 Cl
ENDBRANCH   1   5
BRANCH   1  11
ATOM     11  C   LIG    1       25.791 -16.115   3.505  0.00  0.00    +0.137 A 
ATOM     12  C   LIG    1       25.227 -14.870   3.802  0.00  0.00    +0.099 A 
ATOM     13  C   LIG    1       26.072 -13.824   4.206  0.00  0.00    +0.020 A 
ATOM     14  C   LIG    1       27.426 -14.062   4.396  0.00  0.00    +0.021 A 
ATOM     15  C   LIG    1       27.887 -15.342   4.168  0.00  0.00    +0.113 A 
ATOM     16  N   LIG    1       27.107 -16.355   3.719  0.00  0.00    -0.239 NA
BRANCH  12  17
ATOM     17  C   LIG    1       23.779 -14.569   3.819  0.00  0.00    +0.340 C 
ATOM     18  O   LIG    1       22.989 -15.224   4.473  0.00  0.00    -0.245 OA
BRANCH  17  19
ATOM     19  O   LIG    1       23.399 -13.630   2.927  0.00  0.00    -0.477 OA
ATOM     20  H   LIG    1       24.118 -13.322   2.338  0.00  0.00    +0.295 HD
ENDBRANCH  17  19
ENDBRANCH  12  17
ENDBRANCH   1  11
TORSDOF 4
ENDMDL
MODEL 5
REMARK VINA RESULT:      -4.7      2.758      5.395
REMARK  Name = *****
REMARK                            x       y       z     vdW  Elec       q    Type
REMARK                         _______ _______ _______ _____ _____    ______ ____
ROOT
ATOM      1  N   LIG    1       24.690 -17.644   3.488  0.00  0.00    -0.298 N 
ATOM      2  H   LIG    1       24.669 -17.949   2.512  0.00  0.00    +0.154 HD
ENDROOT
BRANCH   1   5
ATOM      3  C   LIG    1       23.069 -15.323   4.187  0.00  0.00    +0.047 C 
ATOM      4  C   LIG    1       24.566 -15.250   4.008  0.00  0.00    -0.011 A 
ATOM      5  C   LIG    1       25.321 -16.378   3.597  0.00  0.00    +0.037 A 
ATOM      6  C   LIG    1       26.686 -16.213   3.312  0.00  0.00    +0.023 A 
ATOM      7  C   LIG    1       27.330 -14.998   3.545  0.00  0.00    +0.003 A 
ATOM      8  C   LIG    1       26.610 -13.913   4.028  0.00  0.00    +0.020 A 
ATOM      9  C   LIG    1       25.233 -14.026   4.223  0.00  0.00    +0.046 A 
ATOM     10 CL   LIG    1       24.392 -12.603   4.737  0.00  0.00    -0.083 Cl
ENDBRANCH   1   5
BRANCH   1  11
ATOM     11  C   LIG    1       24.835 -18.816   4.247  0.00  0.00    +0.137 A 
ATOM     12  C   LIG    1       23.788 -19.586   4.762  0.00  0.00    +0.099 A 
ATOM     13  C   LIG    1       24.096 -20.718   5.533  0.00  0.00    +0.020 A 
ATOM     14  C   LIG    1       25.418 -21.108   5.691  0.00  0.00    +0.021 A 
ATOM     15  C   LIG    1       26.387 -20.345   5.075  0.00  0.00    +0.113 A 
ATOM     16  N   LIG    1       26.124 -19.213   4.377  0.00  0.00    -0.239 NA
BRANCH  12  17
ATOM     17  C   LIG    1       22.351 -19.367   4.487  0.00  0.00    +0.340 C 
ATOM     18  O   LIG    1       21.887 -18.257   4.310  0.00  0.00    -0.245 OA
BRANCH  17  19
ATOM     19  O   LIG    1       21.588 -20.473   4.621  0.00  0.00    -0.477 OA
ATOM     20  H   LIG    1       21.978 -21.162   5.197  0.00  0.00    +0.295 HD
ENDBRANCH  17  19
ENDBRANCH  12  17
ENDBRANCH   1  11
TORSDOF 4
ENDMDL
MODEL 6
REMARK VINA RESULT:      -4.5      2.907      5.448
REMARK  Name = *****
REMARK                            x       y       z     vdW  Elec       q    Type
REMARK                         _______ _______ _______ _____ _____    ______ ____
ROOT
ATOM      1  N   LIG    1       25.811 -16.947   3.250  0.00  0.00    -0.298 N 
ATOM      2  H   LIG    1       25.916 -17.216   2.269  0.00  0.00    +0.154 HD
ENDROOT
BRANCH   1   5
ATOM      3  C   LIG    1       23.585 -15.280   4.128  0.00  0.00    +0.047 C 
ATOM      4  C   LIG    1       24.974 -14.736   3.902  0.00  0.00    -0.011 A 
ATOM      5  C   LIG    1       26.021 -15.552   3.405  0.00  0.00    +0.037 A 
ATOM      6  C   LIG    1       27.251 -14.957   3.083  0.00  0.00    +0.023 A 
ATOM      7  C   LIG    1       27.496 -13.612   3.358  0.00  0.00    +0.003 A 
ATOM      8  C   LIG    1       26.499 -12.828   3.923  0.00  0.00    +0.020 A 
ATOM      9  C   LIG    1       25.237 -13.373   4.159  0.00  0.00    +0.046 A 
ATOM     10 CL   LIG    1       24.021 -12.307   4.778  0.00  0.00    -0.083 Cl
ENDBRANCH   1   5
BRANCH   1  11
ATOM     11  C   LIG    1       26.283 -18.040   3.993  0.00  0.00    +0.137 A 
ATOM     12  C   LIG    1       25.571 -19.215   4.253  0.00  0.00    +0.099 A 
ATOM     13  C   LIG    1       26.169 -20.208   5.045  0.00  0.00    +0.020 A 
ATOM     14  C   LIG    1       27.480 -20.054   5.474  0.00  0.00    +0.021 A 
ATOM     15  C   LIG    1       28.144 -18.905   5.098  0.00  0.00    +0.113 A 
ATOM     16  N   LIG    1       27.572 -17.903   4.388  0.00  0.00    -0.239 NA
BRANCH  12  17
ATOM     17  C   LIG    1       24.250 -19.558   3.682  0.00  0.00    +0.340 C 
ATOM     18  O   LIG    1       23.356 -18.739   3.579  0.00  0.00    -0.245 OA
BRANCH  17  19
ATOM     19  O   LIG    1       24.074 -20.876   3.451  0.00  0.00    -0.477 OA
ATOM     20  H   LIG    1       23.444 -21.310   4.062  0.00  0.00    +0.295 HD
ENDBRANCH  17  19
ENDBRANCH  12  17
ENDBRANCH   1  11
TORSDOF 4
ENDMDL
MODEL 7
REMARK VINA RESULT:      -4.4      3.073      5.777
REMARK  Name = *****
REMARK                            x       y       z     vdW  Elec       q    Type
REMARK                         _______ _______ _______ _____ _____    ______ ____
ROOT
ATOM      1  N   LIG    1       24.574 -18.370   3.633  0.00  0.00    -0.298 N 
ATOM      2  H   LIG    1       25.171 -18.578   2.830  0.00  0.00    +0.154 HD
ENDROOT
BRANCH   1   5
ATOM      3  C   LIG    1       26.985 -16.755   3.348  0.00  0.00    +0.047 C 
ATOM      4  C   LIG    1       25.629 -16.156   3.626  0.00  0.00    -0.011 A 
ATOM      5  C   LIG    1       24.485 -16.968   3.833  0.00  0.00    +0.037 A 
ATOM      6  C   LIG    1       23.282 -16.359   4.225  0.00  0.00    +0.023 A 
ATOM      7  C   LIG    1       23.164 -14.971   4.294  0.00  0.00    +0.003 A 
ATOM      8  C   LIG    1       24.262 -14.168   4.011  0.00  0.00    +0.020 A 
ATOM      9  C   LIG    1       25.493 -14.754   3.716  0.00  0.00    +0.046 A 
ATOM     10 CL   LIG    1       26.833 -13.687   3.467  0.00  0.00    -0.083 Cl
ENDBRANCH   1   5
BRANCH   1  11
ATOM     11  C   LIG    1       24.782 -19.420   4.541  0.00  0.00    +0.137 A 
ATOM     12  C   LIG    1       23.781 -20.218   5.105  0.00  0.00    +0.099 A 
ATOM     13  C   LIG    1       24.146 -21.211   6.027  0.00  0.00    +0.020 A 
ATOM     14  C   LIG    1       25.488 -21.451   6.290  0.00  0.00    +0.021 A 
ATOM     15  C   LIG    1       26.417 -20.680   5.623  0.00  0.00    +0.113 A 
ATOM     16  N   LIG    1       26.092 -19.674   4.776  0.00  0.00    -0.239 NA
BRANCH  12  17
ATOM     17  C   LIG    1       22.347 -20.173   4.744  0.00  0.00    +0.340 C 
ATOM     18  O   LIG    1       21.774 -19.129   4.494  0.00  0.00    -0.245 OA
BRANCH  17  19
ATOM     19  O   LIG    1       21.705 -21.352   4.882  0.00  0.00    -0.477 OA
ATOM     20  H   LIG    1       21.682 -21.894   4.068  0.00  0.00    +0.295 HD
ENDBRANCH  17  19
ENDBRANCH  12  17
ENDBRANCH   1  11
TORSDOF 4
ENDMDL
MODEL 8
REMARK VINA RESULT:      -4.4      3.305      5.806
REMARK  Name = *****
REMARK                            x       y       z     vdW  Elec       q    Type
REMARK                         _______ _______ _______ _____ _____    ______ ____
ROOT
ATOM      1  N   LIG    1       24.831 -19.223   3.672  0.00  0.00    -0.298 N 
ATOM      2  H   LIG    1       25.560 -19.759   3.197  0.00  0.00    +0.154 HD
ENDROOT
BRANCH   1   5
ATOM      3  C   LIG    1       22.678 -17.323   4.181  0.00  0.00    +0.047 C 
ATOM      4  C   LIG    1       24.103 -16.895   3.927  0.00  0.00    -0.011 A 
ATOM      5  C   LIG    1       25.116 -17.835   3.610  0.00  0.00    +0.037 A 
ATOM      6  C   LIG    1       26.388 -17.365   3.247  0.00  0.00    +0.023 A 
ATOM      7  C   LIG    1       26.702 -16.008   3.313  0.00  0.00    +0.003 A 
ATOM      8  C   LIG    1       25.735 -15.091   3.704  0.00  0.00    +0.020 A 
ATOM      9  C   LIG    1       24.436 -15.525   3.974  0.00  0.00    +0.046 A 
ATOM     10 CL   LIG    1       23.265 -14.311   4.363  0.00  0.00    -0.083 Cl
ENDBRANCH   1   5
BRANCH   1  11
ATOM     11  C   LIG    1       24.403 -20.031   4.738  0.00  0.00    +0.137 A 
ATOM     12  C   LIG    1       25.229 -20.578   5.726  0.00  0.00    +0.099 A 
ATOM     13  C   LIG    1       24.654 -21.396   6.711  0.00  0.00    +0.020 A 
ATOM     14  C   LIG    1       23.278 -21.572   6.749  0.00  0.00    +0.021 A 
ATOM     15  C   LIG    1       22.526 -20.924   5.791  0.00  0.00    +0.113 A 
ATOM     16  N   LIG    1       23.057 -20.179   4.792  0.00  0.00    -0.239 NA
BRANCH  12  17
ATOM     17  C   LIG    1       26.672 -20.294   5.888  0.00  0.00    +0.340 C 
ATOM     18  O   LIG    1       27.157 -19.997   6.963  0.00  0.00    -0.245 OA
BRANCH  17  19
ATOM     19  O   LIG    1       27.355 -20.228   4.726  0.00  0.00    -0.477 OA
ATOM     20  H   LIG    1       27.159 -20.957   4.103  0.00  0.00    +0.295 HD
ENDBRANCH  17  19
ENDBRANCH  12  17
ENDBRANCH   1  11
TORSDOF 4
ENDMDL
MODEL 9
REMARK VINA RESULT:      -4.4      2.077      3.134
REMARK  Name = *****
REMARK                            x       y       z     vdW  Elec       q    Type
REMARK                         _______ _______ _______ _____ _____    ______ ____
ROOT
ATOM      1  N   LIG    1       24.968 -16.593   3.378  0.00  0.00    -0.298 N 
ATOM      2  H   LIG    1       25.047 -16.588   2.359  0.00  0.00    +0.154 HD
ENDROOT
BRANCH   1   5
ATOM      3  C   LIG    1       26.105 -19.269   3.598  0.00  0.00    +0.047 C 
ATOM      4  C   LIG    1       24.683 -18.950   3.990  0.00  0.00    -0.011 A 
ATOM      5  C   LIG    1       24.133 -17.657   3.804  0.00  0.00    +0.037 A 
ATOM      6  C   LIG    1       22.766 -17.459   4.056  0.00  0.00    +0.023 A 
ATOM      7  C   LIG    1       21.977 -18.473   4.598  0.00  0.00    +0.003 A 
ATOM      8  C   LIG    1       22.533 -19.718   4.860  0.00  0.00    +0.020 A 
ATOM      9  C   LIG    1       23.864 -19.968   4.525  0.00  0.00    +0.046 A 
ATOM     10 CL   LIG    1       24.457 -21.572   4.795  0.00  0.00    -0.083 Cl
ENDBRANCH   1   5
BRANCH   1  11
ATOM     11  C   LIG    1       25.017 -15.245   3.766  0.00  0.00    +0.137 A 
ATOM     12  C   LIG    1       26.179 -14.526   4.064  0.00  0.00    +0.099 A 
ATOM     13  C   LIG    1       26.061 -13.188   4.472  0.00  0.00    +0.020 A 
ATOM     14  C   LIG    1       24.816 -12.574   4.481  0.00  0.00    +0.021 A 
ATOM     15  C   LIG    1       23.731 -13.328   4.086  0.00  0.00    +0.113 A 
ATOM     16  N   LIG    1       23.806 -14.637   3.747  0.00  0.00    -0.239 NA
BRANCH  12  17
ATOM     17  C   LIG    1       27.561 -15.027   3.898  0.00  0.00    +0.340 C 
ATOM     18  O   LIG    1       27.852 -16.195   4.076  0.00  0.00    -0.245 OA
BRANCH  17  19
ATOM     19  O   LIG    1       28.480 -14.059   3.705  0.00  0.00    -0.477 OA
ATOM     20  H   LIG    1       28.145 -13.151   3.855  0.00  0.00    +0.295 HD
ENDBRANCH  17  19
ENDBRANCH  12  17
ENDBRANCH   1  11
TORSDOF 4
ENDMDL
