MODEL 1
REMARK VINA RESULT:      -7.6      0.000      0.000
REMARK  Name = *****
REMARK                            x       y       z     vdW  Elec       q    Type
REMARK                         _______ _______ _______ _____ _____    ______ ____
ROOT
ATOM      1  C   LIG    1       25.618 -21.906   6.030  0.00  0.00    +0.117 C 
ENDROOT
BRANCH   1   6
ATOM      2  C   LIG    1       24.530 -26.667   6.509  0.00  0.00    +0.105 C 
ATOM      3  N   LIG    1       25.114 -25.680   5.599  0.00  0.00    -0.303 NA
ATOM      4  C   LIG    1       24.133 -24.643   5.233  0.00  0.00    +0.099 C 
ATOM      5  C   LIG    1       23.838 -23.607   6.344  0.00  0.00    +0.100 C 
ATOM      6  N   LIG    1       25.030 -22.944   6.931  0.00  0.00    -0.289 NA
ATOM      7  C   LIG    1       25.996 -24.008   7.302  0.00  0.00    +0.100 C 
ATOM      8  C   LIG    1       26.304 -25.042   6.194  0.00  0.00    +0.099 C 
ENDBRANCH   1   6
BRANCH   1   9
ATOM      9  C   LIG    1       24.564 -20.942   5.453  0.00  0.00    -0.026 A 
ATOM     10  C   LIG    1       24.639 -20.487   4.122  0.00  0.00    +0.007 A 
ATOM     11  C   LIG    1       23.695 -19.588   3.619  0.00  0.00    +0.020 A 
ATOM     12  C   LIG    1       22.648 -19.162   4.427  0.00  0.00    +0.041 A 
ATOM     13 CL   LIG    1       21.486 -18.055   3.807  0.00  0.00    -0.084 Cl
ATOM     14  C   LIG    1       22.534 -19.626   5.737  0.00  0.00    +0.020 A 
ATOM     15  C   LIG    1       23.489 -20.511   6.249  0.00  0.00    +0.007 A 
ENDBRANCH   1   9
BRANCH   1  16
ATOM     16  C   LIG    1       26.736 -21.081   6.690  0.00  0.00    -0.026 A 
ATOM     17  C   LIG    1       27.795 -20.581   5.914  0.00  0.00    +0.005 A 
ATOM     18  C   LIG    1       28.832 -19.853   6.503  0.00  0.00    +0.000 A 
ATOM     19  C   LIG    1       28.826 -19.617   7.876  0.00  0.00    +0.000 A 
ATOM     20  C   LIG    1       27.773 -20.084   8.657  0.00  0.00    +0.000 A 
ATOM     21  C   LIG    1       26.726 -20.793   8.068  0.00  0.00    +0.005 A 
ENDBRANCH   1  16
TORSDOF 3
ENDMDL
MODEL 2
REMARK VINA RESULT:      -7.5      2.299      4.725
REMARK  Name = *****
REMARK                            x       y       z     vdW  Elec       q    Type
REMARK                         _______ _______ _______ _____ _____    ______ ____
ROOT
ATOM      1  C   LIG    1       25.294 -21.468   6.225  0.00  0.00    +0.117 C 
ENDROOT
BRANCH   1   6
ATOM      2  C   LIG    1       24.378 -26.286   6.086  0.00  0.00    +0.105 C 
ATOM      3  N   LIG    1       24.118 -25.061   6.844  0.00  0.00    -0.303 NA
ATOM      4  C   LIG    1       25.368 -24.474   7.359  0.00  0.00    +0.099 C 
ATOM      5  C   LIG    1       26.237 -23.762   6.294  0.00  0.00    +0.100 C 
ATOM      6  N   LIG    1       25.535 -22.739   5.478  0.00  0.00    -0.289 NA
ATOM      7  C   LIG    1       24.288 -23.358   4.963  0.00  0.00    +0.100 C 
ATOM      8  C   LIG    1       23.409 -24.063   6.021  0.00  0.00    +0.099 C 
ENDBRANCH   1   6
BRANCH   1   9
ATOM      9  C   LIG    1       26.596 -20.752   6.633  0.00  0.00    -0.026 A 
ATOM     10  C   LIG    1       27.483 -20.240   5.666  0.00  0.00    +0.007 A 
ATOM     11  C   LIG    1       28.676 -19.621   6.046  0.00  0.00    +0.020 A 
ATOM     12  C   LIG    1       28.980 -19.475   7.395  0.00  0.00    +0.041 A 
ATOM     13 CL   LIG    1       30.450 -18.713   7.863  0.00  0.00    -0.084 Cl
ATOM     14  C   LIG    1       28.101 -19.944   8.370  0.00  0.00    +0.020 A 
ATOM     15  C   LIG    1       26.914 -20.582   7.991  0.00  0.00    +0.007 A 
ENDBRANCH   1   9
BRANCH   1  16
ATOM     16  C   LIG    1       24.397 -20.471   5.470  0.00  0.00    -0.026 A 
ATOM     17  C   LIG    1       23.127 -20.145   5.973  0.00  0.00    +0.005 A 
ATOM     18  C   LIG    1       22.290 -19.263   5.285  0.00  0.00    +0.000 A 
ATOM     19  C   LIG    1       22.709 -18.698   4.082  0.00  0.00    +0.000 A 
ATOM     20  C   LIG    1       23.973 -18.992   3.580  0.00  0.00    +0.000 A 
ATOM     21  C   LIG    1       24.819 -19.856   4.277  0.00  0.00    +0.005 A 
ENDBRANCH   1  16
TORSDOF 3
ENDMDL
MODEL 3
REMARK VINA RESULT:      -6.9      2.685      5.598
REMARK  Name = *****
REMARK                            x       y       z     vdW  Elec       q    Type
REMARK                         _______ _______ _______ _____ _____    ______ ____
ROOT
ATOM      1  C   LIG    1       25.945 -21.860   6.196  0.00  0.00    +0.117 C 
ENDROOT
BRANCH   1   6
ATOM      2  C   LIG    1       29.836 -19.962   8.506  0.00  0.00    +0.105 C 
ATOM      3  N   LIG    1       29.367 -20.469   7.216  0.00  0.00    -0.303 NA
ATOM      4  C   LIG    1       28.959 -21.883   7.312  0.00  0.00    +0.099 C 
ATOM      5  C   LIG    1       27.605 -22.121   8.023  0.00  0.00    +0.100 C 
ATOM      6  N   LIG    1       26.461 -21.334   7.497  0.00  0.00    -0.289 NA
ATOM      7  C   LIG    1       26.892 -19.916   7.420  0.00  0.00    +0.100 C 
ATOM      8  C   LIG    1       28.239 -19.668   6.703  0.00  0.00    +0.099 C 
ENDBRANCH   1   6
BRANCH   1   9
ATOM      9  C   LIG    1       25.474 -23.325   6.284  0.00  0.00    -0.026 A 
ATOM     10  C   LIG    1       26.395 -24.390   6.304  0.00  0.00    +0.007 A 
ATOM     11  C   LIG    1       25.955 -25.715   6.353  0.00  0.00    +0.020 A 
ATOM     12  C   LIG    1       24.594 -25.990   6.418  0.00  0.00    +0.041 A 
ATOM     13 CL   LIG    1       24.052 -27.621   6.477  0.00  0.00    -0.084 Cl
ATOM     14  C   LIG    1       23.665 -24.950   6.434  0.00  0.00    +0.020 A 
ATOM     15  C   LIG    1       24.103 -23.622   6.366  0.00  0.00    +0.007 A 
ENDBRANCH   1   9
BRANCH   1  16
ATOM     16  C   LIG    1       24.812 -21.011   5.595  0.00  0.00    -0.026 A 
ATOM     17  C   LIG    1       24.894 -20.569   4.264  0.00  0.00    +0.005 A 
ATOM     18  C   LIG    1       23.887 -19.773   3.711  0.00  0.00    +0.000 A 
ATOM     19  C   LIG    1       22.786 -19.406   4.482  0.00  0.00    +0.000 A 
ATOM     20  C   LIG    1       22.677 -19.853   5.795  0.00  0.00    +0.000 A 
ATOM     21  C   LIG    1       23.672 -20.665   6.342  0.00  0.00    +0.005 A 
ENDBRANCH   1  16
TORSDOF 3
ENDMDL
MODEL 4
REMARK VINA RESULT:      -6.2      1.619      4.549
REMARK  Name = *****
REMARK                            x       y       z     vdW  Elec       q    Type
REMARK                         _______ _______ _______ _____ _____    ______ ____
ROOT
ATOM      1  C   LIG    1       25.982 -21.521   6.514  0.00  0.00    +0.117 C 
ENDROOT
BRANCH   1   6
ATOM      2  C   LIG    1       30.411 -19.963   7.941  0.00  0.00    +0.105 C 
ATOM      3  N   LIG    1       29.081 -20.330   8.428  0.00  0.00    -0.303 NA
ATOM      4  C   LIG    1       28.041 -19.453   7.860  0.00  0.00    +0.099 C 
ATOM      5  C   LIG    1       27.696 -19.731   6.378  0.00  0.00    +0.100 C 
ATOM      6  N   LIG    1       27.353 -21.139   6.056  0.00  0.00    -0.289 NA
ATOM      7  C   LIG    1       28.418 -22.000   6.627  0.00  0.00    +0.100 C 
ATOM      8  C   LIG    1       28.763 -21.736   8.111  0.00  0.00    +0.099 C 
ENDBRANCH   1   6
BRANCH   1   9
ATOM      9  C   LIG    1       24.869 -20.709   5.824  0.00  0.00    -0.026 A 
ATOM     10  C   LIG    1       25.065 -20.131   4.555  0.00  0.00    +0.007 A 
ATOM     11  C   LIG    1       24.059 -19.371   3.952  0.00  0.00    +0.020 A 
ATOM     12  C   LIG    1       22.837 -19.210   4.594  0.00  0.00    +0.041 A 
ATOM     13 CL   LIG    1       21.599 -18.273   3.852  0.00  0.00    -0.084 Cl
ATOM     14  C   LIG    1       22.608 -19.802   5.836  0.00  0.00    +0.020 A 
ATOM     15  C   LIG    1       23.621 -20.547   6.449  0.00  0.00    +0.007 A 
ENDBRANCH   1   9
BRANCH   1  16
ATOM     16  C   LIG    1       25.675 -23.020   6.352  0.00  0.00    -0.026 A 
ATOM     17  C   LIG    1       25.952 -23.913   7.401  0.00  0.00    +0.005 A 
ATOM     18  C   LIG    1       25.705 -25.281   7.260  0.00  0.00    +0.000 A 
ATOM     19  C   LIG    1       25.180 -25.776   6.068  0.00  0.00    +0.000 A 
ATOM     20  C   LIG    1       24.877 -24.903   5.027  0.00  0.00    +0.000 A 
ATOM     21  C   LIG    1       25.104 -23.534   5.173  0.00  0.00    +0.005 A 
ENDBRANCH   1  16
TORSDOF 3
ENDMDL
MODEL 5
REMARK VINA RESULT:      -5.8      5.498      8.569
REMARK  Name = *****
REMARK                            x       y       z     vdW  Elec       q    Type
REMARK                         _______ _______ _______ _____ _____    ______ ____
ROOT
ATOM      1  C   LIG    1       25.239 -29.800   7.592  0.00  0.00    +0.117 C 
ENDROOT
BRANCH   1   6
ATOM      2  C   LIG    1       25.627 -33.825   4.812  0.00  0.00    +0.105 C 
ATOM      3  N   LIG    1       26.394 -32.876   5.621  0.00  0.00    -0.303 NA
ATOM      4  C   LIG    1       26.293 -31.508   5.082  0.00  0.00    +0.099 C 
ATOM      5  C   LIG    1       24.939 -30.806   5.343  0.00  0.00    +0.100 C 
ATOM      6  N   LIG    1       24.491 -30.790   6.759  0.00  0.00    -0.289 NA
ATOM      7  C   LIG    1       24.591 -32.179   7.274  0.00  0.00    +0.100 C 
ATOM      8  C   LIG    1       25.944 -32.885   7.026  0.00  0.00    +0.099 C 
ENDBRANCH   1   6
BRANCH   1   9
ATOM      9  C   LIG    1       25.193 -28.372   7.017  0.00  0.00    -0.026 A 
ATOM     10  C   LIG    1       24.097 -27.926   6.254  0.00  0.00    +0.007 A 
ATOM     11  C   LIG    1       24.079 -26.639   5.711  0.00  0.00    +0.020 A 
ATOM     12  C   LIG    1       25.139 -25.772   5.953  0.00  0.00    +0.041 A 
ATOM     13 CL   LIG    1       25.118 -24.188   5.283  0.00  0.00    -0.084 Cl
ATOM     14  C   LIG    1       26.220 -26.181   6.733  0.00  0.00    +0.020 A 
ATOM     15  C   LIG    1       26.248 -27.476   7.262  0.00  0.00    +0.007 A 
ENDBRANCH   1   9
BRANCH   1  16
ATOM     16  C   LIG    1       24.778 -29.758   9.060  0.00  0.00    -0.026 A 
ATOM     17  C   LIG    1       25.683 -29.404  10.073  0.00  0.00    +0.005 A 
ATOM     18  C   LIG    1       25.288 -29.388  11.413  0.00  0.00    +0.000 A 
ATOM     19  C   LIG    1       23.982 -29.729  11.759  0.00  0.00    +0.000 A 
ATOM     20  C   LIG    1       23.064 -30.060  10.766  0.00  0.00    +0.000 A 
ATOM     21  C   LIG    1       23.452 -30.057   9.425  0.00  0.00    +0.005 A 
ENDBRANCH   1  16
TORSDOF 3
ENDMDL
MODEL 6
REMARK VINA RESULT:      -5.8      5.749      9.414
REMARK  Name = *****
REMARK                            x       y       z     vdW  Elec       q    Type
REMARK                         _______ _______ _______ _____ _____    ______ ____
ROOT
ATOM      1  C   LIG    1       24.799 -30.080   7.644  0.00  0.00    +0.117 C 
ENDROOT
BRANCH   1   6
ATOM      2  C   LIG    1       25.335 -31.762  12.223  0.00  0.00    +0.105 C 
ATOM      3  N   LIG    1       24.350 -31.515  11.168  0.00  0.00    -0.303 NA
ATOM      4  C   LIG    1       24.288 -30.085  10.818  0.00  0.00    +0.099 C 
ATOM      5  C   LIG    1       25.480 -29.571   9.976  0.00  0.00    +0.100 C 
ATOM      6  N   LIG    1       25.774 -30.347   8.745  0.00  0.00    -0.289 NA
ATOM      7  C   LIG    1       25.843 -31.780   9.126  0.00  0.00    +0.100 C 
ATOM      8  C   LIG    1       24.651 -32.305   9.959  0.00  0.00    +0.099 C 
ENDBRANCH   1   6
BRANCH   1   9
ATOM      9  C   LIG    1       24.944 -28.669   7.041  0.00  0.00    -0.026 A 
ATOM     10  C   LIG    1       25.918 -27.769   7.512  0.00  0.00    +0.007 A 
ATOM     11  C   LIG    1       26.021 -26.481   6.979  0.00  0.00    +0.020 A 
ATOM     12  C   LIG    1       25.175 -26.092   5.947  0.00  0.00    +0.041 A 
ATOM     13 CL   LIG    1       25.300 -24.506   5.291  0.00  0.00    -0.084 Cl
ATOM     14  C   LIG    1       24.225 -26.979   5.441  0.00  0.00    +0.020 A 
ATOM     15  C   LIG    1       24.109 -28.262   5.987  0.00  0.00    +0.007 A 
ENDBRANCH   1   9
BRANCH   1  16
ATOM     16  C   LIG    1       24.857 -31.114   6.506  0.00  0.00    -0.026 A 
ATOM     17  C   LIG    1       23.783 -31.996   6.301  0.00  0.00    +0.005 A 
ATOM     18  C   LIG    1       23.832 -32.959   5.290  0.00  0.00    +0.000 A 
ATOM     19  C   LIG    1       24.955 -33.055   4.472  0.00  0.00    +0.000 A 
ATOM     20  C   LIG    1       26.018 -32.174   4.645  0.00  0.00    +0.000 A 
ATOM     21  C   LIG    1       25.963 -31.198   5.641  0.00  0.00    +0.005 A 
ENDBRANCH   1  16
TORSDOF 3
ENDMDL
MODEL 7
REMARK VINA RESULT:      -5.8      6.750     10.126
REMARK  Name = *****
REMARK                            x       y       z     vdW  Elec       q    Type
REMARK                         _______ _______ _______ _____ _____    ______ ____
ROOT
ATOM      1  C   LIG    1       25.109 -30.365   7.656  0.00  0.00    +0.117 C 
ENDROOT
BRANCH   1   6
ATOM      2  C   LIG    1       22.575 -32.627  11.197  0.00  0.00    +0.105 C 
ATOM      3  N   LIG    1       23.914 -32.180  10.812  0.00  0.00    -0.303 NA
ATOM      4  C   LIG    1       24.361 -32.836   9.570  0.00  0.00    +0.099 C 
ATOM      5  C   LIG    1       23.693 -32.306   8.279  0.00  0.00    +0.100 C 
ATOM      6  N   LIG    1       23.756 -30.835   8.085  0.00  0.00    -0.289 NA
ATOM      7  C   LIG    1       23.291 -30.199   9.343  0.00  0.00    +0.100 C 
ATOM      8  C   LIG    1       23.961 -30.716  10.637  0.00  0.00    +0.099 C 
ENDBRANCH   1   6
BRANCH   1   9
ATOM      9  C   LIG    1       25.741 -31.258   6.571  0.00  0.00    -0.026 A 
ATOM     10  C   LIG    1       26.802 -32.134   6.872  0.00  0.00    +0.007 A 
ATOM     11  C   LIG    1       27.388 -32.917   5.875  0.00  0.00    +0.020 A 
ATOM     12  C   LIG    1       26.899 -32.860   4.575  0.00  0.00    +0.041 A 
ATOM     13 CL   LIG    1       27.620 -33.823   3.346  0.00  0.00    -0.084 Cl
ATOM     14  C   LIG    1       25.826 -32.025   4.261  0.00  0.00    +0.020 A 
ATOM     15  C   LIG    1       25.251 -31.226   5.255  0.00  0.00    +0.007 A 
ENDBRANCH   1   9
BRANCH   1  16
ATOM     16  C   LIG    1       25.126 -28.906   7.168  0.00  0.00    -0.026 A 
ATOM     17  C   LIG    1       26.061 -27.998   7.693  0.00  0.00    +0.005 A 
ATOM     18  C   LIG    1       26.071 -26.663   7.281  0.00  0.00    +0.000 A 
ATOM     19  C   LIG    1       25.147 -26.216   6.339  0.00  0.00    +0.000 A 
ATOM     20  C   LIG    1       24.229 -27.107   5.790  0.00  0.00    +0.000 A 
ATOM     21  C   LIG    1       24.230 -28.445   6.186  0.00  0.00    +0.005 A 
ENDBRANCH   1  16
TORSDOF 3
ENDMDL
MODEL 8
REMARK VINA RESULT:      -5.7      2.760      4.873
REMARK  Name = *****
REMARK                            x       y       z     vdW  Elec       q    Type
REMARK                         _______ _______ _______ _____ _____    ______ ____
ROOT
ATOM      1  C   LIG    1       24.688 -21.013   5.986  0.00  0.00    +0.117 C 
ENDROOT
BRANCH   1   6
ATOM      2  C   LIG    1       21.221 -18.807   3.304  0.00  0.00    +0.105 C 
ATOM      3  N   LIG    1       21.533 -19.302   4.646  0.00  0.00    -0.303 NA
ATOM      4  C   LIG    1       21.783 -20.754   4.638  0.00  0.00    +0.099 C 
ATOM      5  C   LIG    1       23.149 -21.174   4.046  0.00  0.00    +0.100 C 
ATOM      6  N   LIG    1       24.334 -20.495   4.630  0.00  0.00    -0.289 NA
ATOM      7  C   LIG    1       24.063 -19.036   4.616  0.00  0.00    +0.100 C 
ATOM      8  C   LIG    1       22.703 -18.606   5.214  0.00  0.00    +0.099 C 
ENDBRANCH   1   6
BRANCH   1   9
ATOM      9  C   LIG    1       24.572 -22.545   6.095  0.00  0.00    -0.026 A 
ATOM     10  C   LIG    1       25.626 -23.389   5.696  0.00  0.00    +0.007 A 
ATOM     11  C   LIG    1       25.498 -24.778   5.770  0.00  0.00    +0.020 A 
ATOM     12  C   LIG    1       24.331 -25.338   6.275  0.00  0.00    +0.041 A 
ATOM     13 CL   LIG    1       24.172 -27.049   6.366  0.00  0.00    -0.084 Cl
ATOM     14  C   LIG    1       23.286 -24.522   6.708  0.00  0.00    +0.020 A 
ATOM     15  C   LIG    1       23.406 -23.130   6.617  0.00  0.00    +0.007 A 
ENDBRANCH   1   9
BRANCH   1  16
ATOM     16  C   LIG    1       26.090 -20.588   6.459  0.00  0.00    -0.026 A 
ATOM     17  C   LIG    1       27.062 -20.201   5.522  0.00  0.00    +0.005 A 
ATOM     18  C   LIG    1       28.347 -19.839   5.933  0.00  0.00    +0.000 A 
ATOM     19  C   LIG    1       28.680 -19.862   7.286  0.00  0.00    +0.000 A 
ATOM     20  C   LIG    1       27.722 -20.220   8.231  0.00  0.00    +0.000 A 
ATOM     21  C   LIG    1       26.432 -20.562   7.824  0.00  0.00    +0.005 A 
ENDBRANCH   1  16
TORSDOF 3
ENDMDL
MODEL 9
REMARK VINA RESULT:      -5.7      2.385      4.647
REMARK  Name = *****
REMARK                            x       y       z     vdW  Elec       q    Type
REMARK                         _______ _______ _______ _____ _____    ______ ____
ROOT
ATOM      1  C   LIG    1       24.874 -20.645   7.352  0.00  0.00    +0.117 C 
ENDROOT
BRANCH   1   6
ATOM      2  C   LIG    1       24.945 -25.452   6.365  0.00  0.00    +0.105 C 
ATOM      3  N   LIG    1       25.270 -24.134   5.817  0.00  0.00    -0.303 NA
ATOM      4  C   LIG    1       24.068 -23.287   5.709  0.00  0.00    +0.099 C 
ATOM      5  C   LIG    1       23.549 -22.722   7.052  0.00  0.00    +0.100 C 
ATOM      6  N   LIG    1       24.557 -22.009   7.877  0.00  0.00    -0.289 NA
ATOM      7  C   LIG    1       25.750 -22.885   7.981  0.00  0.00    +0.100 C 
ATOM      8  C   LIG    1       26.282 -23.446   6.642  0.00  0.00    +0.099 C 
ENDBRANCH   1   6
BRANCH   1   9
ATOM      9  C   LIG    1       26.388 -20.388   7.223  0.00  0.00    -0.026 A 
ATOM     10  C   LIG    1       27.220 -20.333   8.357  0.00  0.00    +0.007 A 
ATOM     11  C   LIG    1       28.586 -20.068   8.231  0.00  0.00    +0.020 A 
ATOM     12  C   LIG    1       29.141 -19.889   6.969  0.00  0.00    +0.041 A 
ATOM     13 CL   LIG    1       30.823 -19.562   6.812  0.00  0.00    -0.084 Cl
ATOM     14  C   LIG    1       28.342 -19.972   5.829  0.00  0.00    +0.020 A 
ATOM     15  C   LIG    1       26.970 -20.219   5.955  0.00  0.00    +0.007 A 
ENDBRANCH   1   9
BRANCH   1  16
ATOM     16  C   LIG    1       24.201 -20.334   6.004  0.00  0.00    -0.026 A 
ATOM     17  C   LIG    1       24.912 -20.509   4.805  0.00  0.00    +0.005 A 
ATOM     18  C   LIG    1       24.325 -20.204   3.574  0.00  0.00    +0.000 A 
ATOM     19  C   LIG    1       23.021 -19.717   3.525  0.00  0.00    +0.000 A 
ATOM     20  C   LIG    1       22.294 -19.559   4.701  0.00  0.00    +0.000 A 
ATOM     21  C   LIG    1       22.871 -19.883   5.930  0.00  0.00    +0.005 A 
ENDBRANCH   1  16
TORSDOF 3
ENDMDL
