MODEL 1
REMARK VINA RESULT:      -8.2      0.000      0.000
REMARK  Name = *****
REMARK                            x       y       z     vdW  Elec       q    Type
REMARK                         _______ _______ _______ _____ _____    ______ ____
ROOT
ATOM      1  C   LIG    1       26.784 -22.047   6.983  0.00  0.00    +0.071 C 
ENDROOT
BRANCH   1   2
ATOM      2  C   LIG    1       28.242 -21.731   7.443  0.00  0.00    +0.021 C 
BRANCH   2   3
ATOM      3  C   LIG    1       29.014 -20.699   6.606  0.00  0.00    +0.036 C 
BRANCH   3   8
ATOM      4 CL   LIG    1       32.174 -16.676   9.826  0.00  0.00    -0.084 Cl
ATOM      5  C   LIG    1       31.280 -17.838   8.925  0.00  0.00    +0.041 A 
ATOM      6  C   LIG    1       31.908 -18.568   7.919  0.00  0.00    +0.020 A 
ATOM      7  C   LIG    1       31.179 -19.510   7.182  0.00  0.00    +0.005 A 
ATOM      8  C   LIG    1       29.817 -19.721   7.441  0.00  0.00    -0.047 A 
ATOM      9  C   LIG    1       29.202 -18.983   8.466  0.00  0.00    +0.005 A 
ATOM     10  C   LIG    1       29.929 -18.041   9.201  0.00  0.00    +0.020 A 
ENDBRANCH   3   8
ENDBRANCH   2   3
ENDBRANCH   1   2
BRANCH   1  11
ATOM     11  S   LIG    1       25.712 -20.564   7.414  0.00  0.00    -0.117 S 
BRANCH  11  12
ATOM     12  C   LIG    1       24.484 -20.519   6.086  0.00  0.00    +0.045 A 
ATOM     13  C   LIG    1       23.216 -21.122   6.206  0.00  0.00    +0.056 A 
ATOM     14 CL   LIG    1       22.774 -22.096   7.567  0.00  0.00    -0.082 Cl
ATOM     15  C   LIG    1       22.254 -20.989   5.190  0.00  0.00    +0.021 A 
ATOM     16  C   LIG    1       22.532 -20.248   4.046  0.00  0.00    +0.003 A 
ATOM     17  C   LIG    1       23.808 -19.726   3.868  0.00  0.00    +0.021 A 
ATOM     18  C   LIG    1       24.789 -19.907   4.853  0.00  0.00    +0.056 A 
ATOM     19 CL   LIG    1       26.393 -19.386   4.446  0.00  0.00    -0.082 Cl
ENDBRANCH  11  12
ENDBRANCH   1  11
BRANCH   1  20
ATOM     20  C   LIG    1       26.221 -23.380   7.533  0.00  0.00    +0.137 C 
BRANCH  20  21
ATOM     21  N   LIG    1       25.837 -24.405   6.570  0.00  0.00    -0.336 N 
ATOM     22  C   LIG    1       25.129 -24.147   5.421  0.00  0.00    +0.199 A 
ATOM     23  N   LIG    1       24.891 -25.243   4.731  0.00  0.00    -0.244 NA
ATOM     24  C   LIG    1       25.504 -26.233   5.433  0.00  0.00    +0.130 A 
ATOM     25  C   LIG    1       26.120 -25.739   6.545  0.00  0.00    +0.107 A 
ENDBRANCH  20  21
ENDBRANCH   1  20
TORSDOF 7
ENDMDL
MODEL 2
REMARK VINA RESULT:      -8.1      2.643      7.092
REMARK  Name = *****
REMARK                            x       y       z     vdW  Elec       q    Type
REMARK                         _______ _______ _______ _____ _____    ______ ____
ROOT
ATOM      1  C   LIG    1       27.653 -21.728   7.652  0.00  0.00    +0.071 C 
ENDROOT
BRANCH   1   2
ATOM      2  C   LIG    1       27.012 -22.931   6.890  0.00  0.00    +0.021 C 
BRANCH   2   3
ATOM      3  C   LIG    1       25.841 -23.638   7.589  0.00  0.00    +0.036 C 
BRANCH   3   8
ATOM      4 CL   LIG    1       24.151 -28.879   5.093  0.00  0.00    -0.084 Cl
ATOM      5  C   LIG    1       24.647 -27.383   5.785  0.00  0.00    +0.041 A 
ATOM      6  C   LIG    1       25.733 -27.347   6.657  0.00  0.00    +0.020 A 
ATOM      7  C   LIG    1       26.133 -26.132   7.224  0.00  0.00    +0.005 A 
ATOM      8  C   LIG    1       25.444 -24.945   6.931  0.00  0.00    -0.047 A 
ATOM      9  C   LIG    1       24.358 -24.998   6.043  0.00  0.00    +0.005 A 
ATOM     10  C   LIG    1       23.957 -26.213   5.477  0.00  0.00    +0.020 A 
ENDBRANCH   3   8
ENDBRANCH   2   3
ENDBRANCH   1   2
BRANCH   1  11
ATOM     11  S   LIG    1       26.335 -20.399   7.836  0.00  0.00    -0.117 S 
BRANCH  11  12
ATOM     12  C   LIG    1       25.457 -20.440   6.255  0.00  0.00    +0.045 A 
ATOM     13  C   LIG    1       26.026 -19.959   5.060  0.00  0.00    +0.056 A 
ATOM     14 CL   LIG    1       27.550 -19.138   5.019  0.00  0.00    -0.082 Cl
ATOM     15  C   LIG    1       25.351 -20.090   3.834  0.00  0.00    +0.021 A 
ATOM     16  C   LIG    1       24.107 -20.709   3.775  0.00  0.00    +0.003 A 
ATOM     17  C   LIG    1       23.489 -21.106   4.956  0.00  0.00    +0.021 A 
ATOM     18  C   LIG    1       24.134 -20.922   6.187  0.00  0.00    +0.056 A 
ATOM     19 CL   LIG    1       23.197 -21.271   7.605  0.00  0.00    -0.082 Cl
ENDBRANCH  11  12
ENDBRANCH   1  11
BRANCH   1  20
ATOM     20  C   LIG    1       28.961 -21.199   7.017  0.00  0.00    +0.137 C 
BRANCH  20  21
ATOM     21  N   LIG    1       29.938 -20.570   7.897  0.00  0.00    -0.336 N 
ATOM     22  C   LIG    1       30.897 -21.264   8.595  0.00  0.00    +0.199 A 
ATOM     23  N   LIG    1       31.642 -20.470   9.334  0.00  0.00    -0.244 NA
ATOM     24  C   LIG    1       31.179 -19.219   9.071  0.00  0.00    +0.130 A 
ATOM     25  C   LIG    1       30.158 -19.251   8.167  0.00  0.00    +0.107 A 
ENDBRANCH  20  21
ENDBRANCH   1  20
TORSDOF 7
ENDMDL
MODEL 3
REMARK VINA RESULT:      -7.8      2.631      6.869
REMARK  Name = *****
REMARK                            x       y       z     vdW  Elec       q    Type
REMARK                         _______ _______ _______ _____ _____    ______ ____
ROOT
ATOM      1  C   LIG    1       27.525 -21.796   7.670  0.00  0.00    +0.071 C 
ENDROOT
BRANCH   1   2
ATOM      2  C   LIG    1       26.829 -22.940   6.867  0.00  0.00    +0.021 C 
BRANCH   2   3
ATOM      3  C   LIG    1       25.820 -23.802   7.642  0.00  0.00    +0.036 C 
BRANCH   3   8
ATOM      4 CL   LIG    1       24.238 -28.966   4.924  0.00  0.00    -0.084 Cl
ATOM      5  C   LIG    1       24.704 -27.491   5.680  0.00  0.00    +0.041 A 
ATOM      6  C   LIG    1       25.764 -27.478   6.584  0.00  0.00    +0.020 A 
ATOM      7  C   LIG    1       26.138 -26.280   7.203  0.00  0.00    +0.005 A 
ATOM      8  C   LIG    1       25.451 -25.088   6.929  0.00  0.00    -0.047 A 
ATOM      9  C   LIG    1       24.391 -25.117   6.008  0.00  0.00    +0.005 A 
ATOM     10  C   LIG    1       24.015 -26.315   5.391  0.00  0.00    +0.020 A 
ENDBRANCH   3   8
ENDBRANCH   2   3
ENDBRANCH   1   2
BRANCH   1  11
ATOM     11  S   LIG    1       26.289 -20.391   7.855  0.00  0.00    -0.117 S 
BRANCH  11  12
ATOM     12  C   LIG    1       25.364 -20.423   6.301  0.00  0.00    +0.045 A 
ATOM     13  C   LIG    1       24.059 -20.946   6.206  0.00  0.00    +0.056 A 
ATOM     14 CL   LIG    1       23.280 -21.750   7.526  0.00  0.00    -0.082 Cl
ATOM     15  C   LIG    1       23.336 -20.871   5.003  0.00  0.00    +0.021 A 
ATOM     16  C   LIG    1       23.894 -20.268   3.880  0.00  0.00    +0.003 A 
ATOM     17  C   LIG    1       25.214 -19.832   3.928  0.00  0.00    +0.021 A 
ATOM     18  C   LIG    1       25.957 -19.959   5.109  0.00  0.00    +0.056 A 
ATOM     19 CL   LIG    1       27.643 -19.565   5.002  0.00  0.00    -0.082 Cl
ENDBRANCH  11  12
ENDBRANCH   1  11
BRANCH   1  20
ATOM     20  C   LIG    1       28.879 -21.336   7.075  0.00  0.00    +0.137 C 
BRANCH  20  21
ATOM     21  N   LIG    1       29.802 -20.629   7.954  0.00  0.00    -0.336 N 
ATOM     22  C   LIG    1       30.799 -21.245   8.671  0.00  0.00    +0.199 A 
ATOM     23  N   LIG    1       31.482 -20.391   9.403  0.00  0.00    -0.244 NA
ATOM     24  C   LIG    1       30.937 -19.178   9.116  0.00  0.00    +0.130 A 
ATOM     25  C   LIG    1       29.929 -19.294   8.205  0.00  0.00    +0.107 A 
ENDBRANCH  20  21
ENDBRANCH   1  20
TORSDOF 7
ENDMDL
MODEL 4
REMARK VINA RESULT:      -7.8      2.936      6.247
REMARK  Name = *****
REMARK                            x       y       z     vdW  Elec       q    Type
REMARK                         _______ _______ _______ _____ _____    ______ ____
ROOT
ATOM      1  C   LIG    1       26.221 -20.323   6.312  0.00  0.00    +0.071 C 
ENDROOT
BRANCH   1   2
ATOM      2  C   LIG    1       25.157 -20.681   7.398  0.00  0.00    +0.021 C 
BRANCH   2   3
ATOM      3  C   LIG    1       25.418 -21.954   8.217  0.00  0.00    +0.036 C 
BRANCH   3   8
ATOM      4 CL   LIG    1       24.210 -27.129   5.334  0.00  0.00    -0.084 Cl
ATOM      5  C   LIG    1       24.558 -25.645   6.134  0.00  0.00    +0.041 A 
ATOM      6  C   LIG    1       25.861 -25.365   6.540  0.00  0.00    +0.020 A 
ATOM      7  C   LIG    1       26.143 -24.160   7.195  0.00  0.00    +0.005 A 
ATOM      8  C   LIG    1       25.124 -23.233   7.456  0.00  0.00    -0.047 A 
ATOM      9  C   LIG    1       23.818 -23.528   7.032  0.00  0.00    +0.005 A 
ATOM     10  C   LIG    1       23.536 -24.732   6.378  0.00  0.00    +0.020 A 
ENDBRANCH   3   8
ENDBRANCH   2   3
ENDBRANCH   1   2
BRANCH   1  11
ATOM     11  S   LIG    1       25.487 -20.741   4.632  0.00  0.00    -0.117 S 
BRANCH  11  12
ATOM     12  C   LIG    1       24.152 -19.537   4.432  0.00  0.00    +0.045 A 
ATOM     13  C   LIG    1       22.808 -19.841   4.726  0.00  0.00    +0.056 A 
ATOM     14 CL   LIG    1       22.285 -21.436   5.151  0.00  0.00    -0.082 Cl
ATOM     15  C   LIG    1       21.810 -18.854   4.647  0.00  0.00    +0.021 A 
ATOM     16  C   LIG    1       22.134 -17.550   4.285  0.00  0.00    +0.003 A 
ATOM     17  C   LIG    1       23.437 -17.255   3.901  0.00  0.00    +0.021 A 
ATOM     18  C   LIG    1       24.422 -18.251   3.921  0.00  0.00    +0.056 A 
ATOM     19 CL   LIG    1       25.960 -17.826   3.240  0.00  0.00    -0.082 Cl
ENDBRANCH  11  12
ENDBRANCH   1  11
BRANCH   1  20
ATOM     20  C   LIG    1       27.607 -20.971   6.545  0.00  0.00    +0.137 C 
BRANCH  20  21
ATOM     21  N   LIG    1       28.777 -20.102   6.516  0.00  0.00    -0.336 N 
ATOM     22  C   LIG    1       28.884 -18.990   5.716  0.00  0.00    +0.199 A 
ATOM     23  N   LIG    1       30.045 -18.387   5.859  0.00  0.00    -0.244 NA
ATOM     24  C   LIG    1       30.691 -19.107   6.814  0.00  0.00    +0.130 A 
ATOM     25  C   LIG    1       29.922 -20.142   7.258  0.00  0.00    +0.107 A 
ENDBRANCH  20  21
ENDBRANCH   1  20
TORSDOF 7
ENDMDL
MODEL 5
REMARK VINA RESULT:      -7.6      2.396      3.974
REMARK  Name = *****
REMARK                            x       y       z     vdW  Elec       q    Type
REMARK                         _______ _______ _______ _____ _____    ______ ____
ROOT
ATOM      1  C   LIG    1       26.651 -20.445   6.000  0.00  0.00    +0.071 C 
ENDROOT
BRANCH   1   2
ATOM      2  C   LIG    1       28.093 -19.882   5.791  0.00  0.00    +0.021 C 
BRANCH   2   3
ATOM      3  C   LIG    1       29.203 -20.515   6.644  0.00  0.00    +0.036 C 
BRANCH   3   8
ATOM      4 CL   LIG    1       32.254 -16.641  10.143  0.00  0.00    -0.084 Cl
ATOM      5  C   LIG    1       31.380 -17.726   9.131  0.00  0.00    +0.041 A 
ATOM      6  C   LIG    1       30.026 -17.955   9.366  0.00  0.00    +0.020 A 
ATOM      7  C   LIG    1       29.317 -18.842   8.548  0.00  0.00    +0.005 A 
ATOM      8  C   LIG    1       29.957 -19.511   7.495  0.00  0.00    -0.047 A 
ATOM      9  C   LIG    1       31.320 -19.261   7.266  0.00  0.00    +0.005 A 
ATOM     10  C   LIG    1       32.030 -18.377   8.085  0.00  0.00    +0.020 A 
ENDBRANCH   3   8
ENDBRANCH   2   3
ENDBRANCH   1   2
BRANCH   1  11
ATOM     11  S   LIG    1       26.780 -21.949   7.121  0.00  0.00    -0.117 S 
BRANCH  11  12
ATOM     12  C   LIG    1       25.133 -22.692   7.037  0.00  0.00    +0.045 A 
ATOM     13  C   LIG    1       23.966 -21.993   7.408  0.00  0.00    +0.056 A 
ATOM     14 CL   LIG    1       24.014 -20.419   8.128  0.00  0.00    -0.082 Cl
ATOM     15  C   LIG    1       22.695 -22.570   7.244  0.00  0.00    +0.021 A 
ATOM     16  C   LIG    1       22.563 -23.844   6.701  0.00  0.00    +0.003 A 
ATOM     17  C   LIG    1       23.705 -24.584   6.417  0.00  0.00    +0.021 A 
ATOM     18  C   LIG    1       24.975 -24.034   6.635  0.00  0.00    +0.056 A 
ATOM     19 CL   LIG    1       26.323 -25.107   6.434  0.00  0.00    -0.082 Cl
ENDBRANCH  11  12
ENDBRANCH   1  11
BRANCH   1  20
ATOM     20  C   LIG    1       25.886 -20.734   4.685  0.00  0.00    +0.137 C 
BRANCH  20  21
ATOM     21  N   LIG    1       24.722 -19.911   4.382  0.00  0.00    -0.336 N 
ATOM     22  C   LIG    1       24.788 -18.698   3.741  0.00  0.00    +0.199 A 
ATOM     23  N   LIG    1       23.602 -18.145   3.604  0.00  0.00    -0.244 NA
ATOM     24  C   LIG    1       22.736 -19.050   4.134  0.00  0.00    +0.130 A 
ATOM     25  C   LIG    1       23.395 -20.156   4.585  0.00  0.00    +0.107 A 
ENDBRANCH  20  21
ENDBRANCH   1  20
TORSDOF 7
ENDMDL
MODEL 6
REMARK VINA RESULT:      -7.5      2.176      6.770
REMARK  Name = *****
REMARK                            x       y       z     vdW  Elec       q    Type
REMARK                         _______ _______ _______ _____ _____    ______ ____
ROOT
ATOM      1  C   LIG    1       27.069 -21.326   8.019  0.00  0.00    +0.071 C 
ENDROOT
BRANCH   1   2
ATOM      2  C   LIG    1       26.171 -20.325   7.225  0.00  0.00    +0.021 C 
BRANCH   2   3
ATOM      3  C   LIG    1       26.031 -20.581   5.717  0.00  0.00    +0.036 C 
BRANCH   3   8
ATOM      4 CL   LIG    1       20.825 -18.450   3.500  0.00  0.00    -0.084 Cl
ATOM      5  C   LIG    1       22.305 -19.076   4.118  0.00  0.00    +0.041 A 
ATOM      6  C   LIG    1       22.304 -19.827   5.291  0.00  0.00    +0.020 A 
ATOM      7  C   LIG    1       23.508 -20.332   5.797  0.00  0.00    +0.005 A 
ATOM      8  C   LIG    1       24.720 -20.082   5.138  0.00  0.00    -0.047 A 
ATOM      9  C   LIG    1       24.702 -19.331   3.952  0.00  0.00    +0.005 A 
ATOM     10  C   LIG    1       23.500 -18.825   3.447  0.00  0.00    +0.020 A 
ENDBRANCH   3   8
ENDBRANCH   2   3
ENDBRANCH   1   2
BRANCH   1  11
ATOM     11  S   LIG    1       28.617 -21.641   6.998  0.00  0.00    -0.117 S 
BRANCH  11  12
ATOM     12  C   LIG    1       29.763 -20.352   7.545  0.00  0.00    +0.045 A 
ATOM     13  C   LIG    1       29.820 -19.082   6.939  0.00  0.00    +0.056 A 
ATOM     14 CL   LIG    1       28.915 -18.688   5.516  0.00  0.00    -0.082 Cl
ATOM     15  C   LIG    1       30.658 -18.075   7.447  0.00  0.00    +0.021 A 
ATOM     16  C   LIG    1       31.444 -18.311   8.571  0.00  0.00    +0.003 A 
ATOM     17  C   LIG    1       31.472 -19.586   9.125  0.00  0.00    +0.021 A 
ATOM     18  C   LIG    1       30.682 -20.609   8.583  0.00  0.00    +0.056 A 
ATOM     19 CL   LIG    1       30.938 -22.200   9.224  0.00  0.00    -0.082 Cl
ENDBRANCH  11  12
ENDBRANCH   1  11
BRANCH   1  20
ATOM     20  C   LIG    1       26.347 -22.629   8.440  0.00  0.00    +0.137 C 
BRANCH  20  21
ATOM     21  N   LIG    1       25.516 -23.297   7.447  0.00  0.00    -0.336 N 
ATOM     22  C   LIG    1       25.997 -24.196   6.526  0.00  0.00    +0.199 A 
ATOM     23  N   LIG    1       25.050 -24.642   5.728  0.00  0.00    -0.244 NA
ATOM     24  C   LIG    1       23.913 -24.046   6.176  0.00  0.00    +0.130 A 
ATOM     25  C   LIG    1       24.166 -23.244   7.250  0.00  0.00    +0.107 A 
ENDBRANCH  20  21
ENDBRANCH   1  20
TORSDOF 7
ENDMDL
MODEL 7
REMARK VINA RESULT:      -7.5      0.773      2.283
REMARK  Name = *****
REMARK                            x       y       z     vdW  Elec       q    Type
REMARK                         _______ _______ _______ _____ _____    ______ ____
ROOT
ATOM      1  C   LIG    1       26.922 -22.063   7.207  0.00  0.00    +0.071 C 
ENDROOT
BRANCH   1   2
ATOM      2  C   LIG    1       28.268 -21.730   7.926  0.00  0.00    +0.021 C 
BRANCH   2   3
ATOM      3  C   LIG    1       29.370 -21.105   7.057  0.00  0.00    +0.036 C 
BRANCH   3   8
ATOM      4 CL   LIG    1       31.944 -16.290   9.654  0.00  0.00    -0.084 Cl
ATOM      5  C   LIG    1       31.204 -17.647   8.896  0.00  0.00    +0.041 A 
ATOM      6  C   LIG    1       29.878 -17.965   9.183  0.00  0.00    +0.020 A 
ATOM      7  C   LIG    1       29.278 -19.072   8.571  0.00  0.00    +0.005 A 
ATOM      8  C   LIG    1       30.002 -19.873   7.676  0.00  0.00    -0.047 A 
ATOM      9  C   LIG    1       31.334 -19.533   7.391  0.00  0.00    +0.005 A 
ATOM     10  C   LIG    1       31.935 -18.428   8.004  0.00  0.00    +0.020 A 
ENDBRANCH   3   8
ENDBRANCH   2   3
ENDBRANCH   1   2
BRANCH   1  11
ATOM     11  S   LIG    1       25.791 -20.572   7.388  0.00  0.00    -0.117 S 
BRANCH  11  12
ATOM     12  C   LIG    1       25.105 -20.348   5.730  0.00  0.00    +0.045 A 
ATOM     13  C   LIG    1       25.843 -19.776   4.675  0.00  0.00    +0.056 A 
ATOM     14 CL   LIG    1       27.416 -19.090   4.905  0.00  0.00    -0.082 Cl
ATOM     15  C   LIG    1       25.310 -19.700   3.377  0.00  0.00    +0.021 A 
ATOM     16  C   LIG    1       24.040 -20.200   3.105  0.00  0.00    +0.003 A 
ATOM     17  C   LIG    1       23.261 -20.681   4.151  0.00  0.00    +0.021 A 
ATOM     18  C   LIG    1       23.768 -20.703   5.458  0.00  0.00    +0.056 A 
ATOM     19 CL   LIG    1       22.648 -21.137   6.709  0.00  0.00    -0.082 Cl
ENDBRANCH  11  12
ENDBRANCH   1  11
BRANCH   1  20
ATOM     20  C   LIG    1       26.263 -23.383   7.675  0.00  0.00    +0.137 C 
BRANCH  20  21
ATOM     21  N   LIG    1       25.817 -24.320   6.652  0.00  0.00    -0.336 N 
ATOM     22  C   LIG    1       26.010 -25.679   6.722  0.00  0.00    +0.199 A 
ATOM     23  N   LIG    1       25.534 -26.301   5.665  0.00  0.00    -0.244 NA
ATOM     24  C   LIG    1       24.975 -25.319   4.909  0.00  0.00    +0.130 A 
ATOM     25  C   LIG    1       25.105 -24.101   5.509  0.00  0.00    +0.107 A 
ENDBRANCH  20  21
ENDBRANCH   1  20
TORSDOF 7
ENDMDL
MODEL 8
REMARK VINA RESULT:      -7.4      2.358      3.816
REMARK  Name = *****
REMARK                            x       y       z     vdW  Elec       q    Type
REMARK                         _______ _______ _______ _____ _____    ______ ____
ROOT
ATOM      1  C   LIG    1       26.816 -20.551   6.358  0.00  0.00    +0.071 C 
ENDROOT
BRANCH   1   2
ATOM      2  C   LIG    1       28.348 -20.273   6.235  0.00  0.00    +0.021 C 
BRANCH   2   3
ATOM      3  C   LIG    1       29.216 -20.687   7.434  0.00  0.00    +0.036 C 
BRANCH   3   8
ATOM      4 CL   LIG    1       32.393 -16.035   9.628  0.00  0.00    -0.084 Cl
ATOM      5  C   LIG    1       31.495 -17.373   9.022  0.00  0.00    +0.041 A 
ATOM      6  C   LIG    1       32.095 -18.267   8.138  0.00  0.00    +0.020 A 
ATOM      7  C   LIG    1       31.363 -19.352   7.640  0.00  0.00    +0.005 A 
ATOM      8  C   LIG    1       30.026 -19.545   8.017  0.00  0.00    -0.047 A 
ATOM      9  C   LIG    1       29.440 -18.640   8.916  0.00  0.00    +0.005 A 
ATOM     10  C   LIG    1       30.170 -17.554   9.412  0.00  0.00    +0.020 A 
ENDBRANCH   3   8
ENDBRANCH   2   3
ENDBRANCH   1   2
BRANCH   1  11
ATOM     11  S   LIG    1       26.573 -21.833   7.713  0.00  0.00    -0.117 S 
BRANCH  11  12
ATOM     12  C   LIG    1       25.031 -22.659   7.253  0.00  0.00    +0.045 A 
ATOM     13  C   LIG    1       24.998 -23.968   6.734  0.00  0.00    +0.056 A 
ATOM     14 CL   LIG    1       26.435 -24.848   6.337  0.00  0.00    -0.082 Cl
ATOM     15  C   LIG    1       23.776 -24.612   6.474  0.00  0.00    +0.021 A 
ATOM     16  C   LIG    1       22.570 -23.970   6.734  0.00  0.00    +0.003 A 
ATOM     17  C   LIG    1       22.583 -22.645   7.157  0.00  0.00    +0.021 A 
ATOM     18  C   LIG    1       23.800 -21.980   7.361  0.00  0.00    +0.056 A 
ATOM     19 CL   LIG    1       23.700 -20.282   7.698  0.00  0.00    -0.082 Cl
ENDBRANCH  11  12
ENDBRANCH   1  11
BRANCH   1  20
ATOM     20  C   LIG    1       26.134 -20.943   5.025  0.00  0.00    +0.137 C 
BRANCH  20  21
ATOM     21  N   LIG    1       25.186 -20.001   4.444  0.00  0.00    -0.336 N 
ATOM     22  C   LIG    1       25.551 -18.817   3.849  0.00  0.00    +0.199 A 
ATOM     23  N   LIG    1       24.509 -18.136   3.423  0.00  0.00    -0.244 NA
ATOM     24  C   LIG    1       23.439 -18.926   3.711  0.00  0.00    +0.130 A 
ATOM     25  C   LIG    1       23.831 -20.089   4.305  0.00  0.00    +0.107 A 
ENDBRANCH  20  21
ENDBRANCH   1  20
TORSDOF 7
ENDMDL
MODEL 9
REMARK VINA RESULT:      -7.4      5.466      9.041
REMARK  Name = *****
REMARK                            x       y       z     vdW  Elec       q    Type
REMARK                         _______ _______ _______ _____ _____    ______ ____
ROOT
ATOM      1  C   LIG    1       25.004 -28.851   7.397  0.00  0.00    +0.071 C 
ENDROOT
BRANCH   1   2
ATOM      2  C   LIG    1       25.898 -27.573   7.480  0.00  0.00    +0.021 C 
BRANCH   2   3
ATOM      3  C   LIG    1       25.894 -26.655   6.249  0.00  0.00    +0.036 C 
BRANCH   3   8
ATOM      4 CL   LIG    1       23.259 -21.339   7.411  0.00  0.00    -0.084 Cl
ATOM      5  C   LIG    1       24.013 -22.846   7.057  0.00  0.00    +0.041 A 
ATOM      6  C   LIG    1       23.241 -23.925   6.633  0.00  0.00    +0.020 A 
ATOM      7  C   LIG    1       23.853 -25.152   6.351  0.00  0.00    +0.005 A 
ATOM      8  C   LIG    1       25.239 -25.310   6.499  0.00  0.00    -0.047 A 
ATOM      9  C   LIG    1       26.003 -24.209   6.919  0.00  0.00    +0.005 A 
ATOM     10  C   LIG    1       25.391 -22.984   7.203  0.00  0.00    +0.020 A 
ENDBRANCH   3   8
ENDBRANCH   2   3
ENDBRANCH   1   2
BRANCH   1  11
ATOM     11  S   LIG    1       25.716 -30.127   8.579  0.00  0.00    -0.117 S 
BRANCH  11  12
ATOM     12  C   LIG    1       24.998 -29.682  10.179  0.00  0.00    +0.045 A 
ATOM     13  C   LIG    1       25.708 -28.947  11.150  0.00  0.00    +0.056 A 
ATOM     14 CL   LIG    1       27.381 -28.541  10.970  0.00  0.00    -0.082 Cl
ATOM     15  C   LIG    1       25.088 -28.540  12.344  0.00  0.00    +0.021 A 
ATOM     16  C   LIG    1       23.753 -28.848  12.587  0.00  0.00    +0.003 A 
ATOM     17  C   LIG    1       23.065 -29.651  11.684  0.00  0.00    +0.021 A 
ATOM     18  C   LIG    1       23.699 -30.108  10.521  0.00  0.00    +0.056 A 
ATOM     19 CL   LIG    1       22.817 -31.258   9.567  0.00  0.00    -0.082 Cl
ENDBRANCH  11  12
ENDBRANCH   1  11
BRANCH   1  20
ATOM     20  C   LIG    1       24.811 -29.397   5.961  0.00  0.00    +0.137 C 
BRANCH  20  21
ATOM     21  N   LIG    1       24.866 -30.841   5.770  0.00  0.00    -0.336 N 
ATOM     22  C   LIG    1       23.833 -31.693   6.080  0.00  0.00    +0.199 A 
ATOM     23  N   LIG    1       24.138 -32.949   5.835  0.00  0.00    -0.244 NA
ATOM     24  C   LIG    1       25.390 -32.904   5.308  0.00  0.00    +0.130 A 
ATOM     25  C   LIG    1       25.844 -31.620   5.226  0.00  0.00    +0.107 A 
ENDBRANCH  20  21
ENDBRANCH   1  20
TORSDOF 7
ENDMDL
