MODEL 1
REMARK VINA RESULT:      -8.4      0.000      0.000
REMARK  Name = *****
REMARK                            x       y       z     vdW  Elec       q    Type
REMARK                         _______ _______ _______ _____ _____    ______ ____
ROOT
ATOM      1  N   LIG    1       27.098 -20.633   6.474  0.00  0.00    -0.294 NA
ATOM      2  C   LIG    1       27.986 -21.561   7.219  0.00  0.00    +0.120 C 
ATOM      3  C   LIG    1       29.258 -20.866   7.634  0.00  0.00    -0.023 A 
ATOM      4  C   LIG    1       29.711 -19.715   7.021  0.00  0.00    -0.005 A 
ATOM      5  S   LIG    1       31.190 -19.157   7.637  0.00  0.00    -0.101 S 
ATOM      6  C   LIG    1       31.264 -20.451   8.754  0.00  0.00    +0.045 A 
ATOM      7  C   LIG    1       28.961 -19.009   5.945  0.00  0.00    +0.058 C 
ATOM      8  C   LIG    1       30.172 -21.290   8.650  0.00  0.00    +0.013 A 
ATOM      9  C   LIG    1       27.852 -19.932   5.401  0.00  0.00    +0.090 C 
ENDROOT
BRANCH   1  10
ATOM     10  C   LIG    1       25.976 -21.372   5.854  0.00  0.00    +0.121 C 
BRANCH  10  13
ATOM     11 CL   LIG    1       23.256 -21.315   7.467  0.00  0.00    -0.083 Cl
ATOM     12  C   LIG    1       23.585 -20.452   6.006  0.00  0.00    +0.045 A 
ATOM     13  C   LIG    1       24.831 -20.510   5.360  0.00  0.00    -0.015 A 
ATOM     14  C   LIG    1       24.995 -19.776   4.170  0.00  0.00    +0.006 A 
ATOM     15  C   LIG    1       23.950 -19.010   3.645  0.00  0.00    +0.000 A 
ATOM     16  C   LIG    1       22.723 -18.963   4.299  0.00  0.00    +0.001 A 
ATOM     17  C   LIG    1       22.541 -19.682   5.478  0.00  0.00    +0.020 A 
ENDBRANCH  10  13
ENDBRANCH   1  10
TORSDOF 2
ENDMDL
MODEL 2
REMARK VINA RESULT:      -8.0      3.876      5.948
REMARK  Name = *****
REMARK                            x       y       z     vdW  Elec       q    Type
REMARK                         _______ _______ _______ _____ _____    ______ ____
ROOT
ATOM      1  N   LIG    1       25.013 -22.430   6.739  0.00  0.00    -0.294 NA
ATOM      2  C   LIG    1       26.080 -23.422   7.026  0.00  0.00    +0.120 C 
ATOM      3  C   LIG    1       25.675 -24.796   6.554  0.00  0.00    -0.023 A 
ATOM      4  C   LIG    1       24.359 -25.146   6.327  0.00  0.00    -0.005 A 
ATOM      5  S   LIG    1       24.162 -26.762   5.850  0.00  0.00    -0.101 S 
ATOM      6  C   LIG    1       25.849 -27.039   5.933  0.00  0.00    +0.045 A 
ATOM      7  C   LIG    1       23.222 -24.192   6.454  0.00  0.00    +0.058 C 
ATOM      8  C   LIG    1       26.542 -25.909   6.319  0.00  0.00    +0.013 A 
ATOM      9  C   LIG    1       23.692 -22.931   7.206  0.00  0.00    +0.090 C 
ENDROOT
BRANCH   1  10
ATOM     10  C   LIG    1       25.297 -21.148   7.421  0.00  0.00    +0.121 C 
BRANCH  10  13
ATOM     11 CL   LIG    1       25.736 -20.088   4.473  0.00  0.00    -0.083 Cl
ATOM     12  C   LIG    1       26.896 -20.029   5.754  0.00  0.00    +0.045 A 
ATOM     13  C   LIG    1       26.615 -20.499   7.047  0.00  0.00    -0.015 A 
ATOM     14  C   LIG    1       27.632 -20.413   8.018  0.00  0.00    +0.006 A 
ATOM     15  C   LIG    1       28.883 -19.874   7.707  0.00  0.00    +0.000 A 
ATOM     16  C   LIG    1       29.143 -19.411   6.421  0.00  0.00    +0.001 A 
ATOM     17  C   LIG    1       28.150 -19.487   5.445  0.00  0.00    +0.020 A 
ENDBRANCH  10  13
ENDBRANCH   1  10
TORSDOF 2
ENDMDL
MODEL 3
REMARK VINA RESULT:      -8.0      1.752      2.889
REMARK  Name = *****
REMARK                            x       y       z     vdW  Elec       q    Type
REMARK                         _______ _______ _______ _____ _____    ______ ____
ROOT
ATOM      1  N   LIG    1       27.059 -20.866   6.125  0.00  0.00    -0.294 NA
ATOM      2  C   LIG    1       27.931 -19.733   5.723  0.00  0.00    +0.120 C 
ATOM      3  C   LIG    1       29.203 -19.722   6.531  0.00  0.00    -0.023 A 
ATOM      4  C   LIG    1       29.319 -20.370   7.745  0.00  0.00    -0.005 A 
ATOM      5  S   LIG    1       30.834 -20.166   8.480  0.00  0.00    -0.101 S 
ATOM      6  C   LIG    1       31.384 -19.199   7.179  0.00  0.00    +0.045 A 
ATOM      7  C   LIG    1       28.231 -21.195   8.341  0.00  0.00    +0.058 C 
ATOM      8  C   LIG    1       30.419 -19.041   6.205  0.00  0.00    +0.013 A 
ATOM      9  C   LIG    1       26.907 -20.910   7.604  0.00  0.00    +0.090 C 
ENDROOT
BRANCH   1  10
ATOM     10  C   LIG    1       25.717 -20.731   5.518  0.00  0.00    +0.121 C 
BRANCH  10  13
ATOM     11 CL   LIG    1       22.666 -19.993   5.911  0.00  0.00    -0.083 Cl
ATOM     12  C   LIG    1       23.363 -21.562   6.115  0.00  0.00    +0.045 A 
ATOM     13  C   LIG    1       24.727 -21.815   5.897  0.00  0.00    -0.015 A 
ATOM     14  C   LIG    1       25.198 -23.127   6.099  0.00  0.00    +0.006 A 
ATOM     15  C   LIG    1       24.334 -24.149   6.503  0.00  0.00    +0.000 A 
ATOM     16  C   LIG    1       22.985 -23.880   6.712  0.00  0.00    +0.001 A 
ATOM     17  C   LIG    1       22.500 -22.588   6.518  0.00  0.00    +0.020 A 
ENDBRANCH  10  13
ENDBRANCH   1  10
TORSDOF 2
ENDMDL
MODEL 4
REMARK VINA RESULT:      -7.9      2.704      4.212
REMARK  Name = *****
REMARK                            x       y       z     vdW  Elec       q    Type
REMARK                         _______ _______ _______ _____ _____    ______ ____
ROOT
ATOM      1  N   LIG    1       26.762 -21.875   6.915  0.00  0.00    -0.294 NA
ATOM      2  C   LIG    1       26.683 -20.565   6.220  0.00  0.00    +0.120 C 
ATOM      3  C   LIG    1       28.034 -19.897   6.180  0.00  0.00    -0.023 A 
ATOM      4  C   LIG    1       29.054 -20.231   7.047  0.00  0.00    -0.005 A 
ATOM      5  S   LIG    1       30.457 -19.302   6.832  0.00  0.00    -0.101 S 
ATOM      6  C   LIG    1       29.731 -18.420   5.557  0.00  0.00    +0.045 A 
ATOM      7  C   LIG    1       28.950 -21.324   8.055  0.00  0.00    +0.058 C 
ATOM      8  C   LIG    1       28.439 -18.837   5.308  0.00  0.00    +0.013 A 
ATOM      9  C   LIG    1       27.473 -21.736   8.214  0.00  0.00    +0.090 C 
ENDROOT
BRANCH   1  10
ATOM     10  C   LIG    1       25.407 -22.409   7.175  0.00  0.00    +0.121 C 
BRANCH  10  13
ATOM     11 CL   LIG    1       22.452 -23.453   6.747  0.00  0.00    -0.083 Cl
ATOM     12  C   LIG    1       23.895 -24.378   6.524  0.00  0.00    +0.045 A 
ATOM     13  C   LIG    1       25.176 -23.833   6.711  0.00  0.00    -0.015 A 
ATOM     14  C   LIG    1       26.289 -24.674   6.511  0.00  0.00    +0.006 A 
ATOM     15  C   LIG    1       26.125 -26.010   6.136  0.00  0.00    +0.000 A 
ATOM     16  C   LIG    1       24.849 -26.532   5.953  0.00  0.00    +0.001 A 
ATOM     17  C   LIG    1       23.735 -25.717   6.146  0.00  0.00    +0.020 A 
ENDBRANCH  10  13
ENDBRANCH   1  10
TORSDOF 2
ENDMDL
MODEL 5
REMARK VINA RESULT:      -7.6      1.534      2.106
REMARK  Name = *****
REMARK                            x       y       z     vdW  Elec       q    Type
REMARK                         _______ _______ _______ _____ _____    ______ ____
ROOT
ATOM      1  N   LIG    1       27.938 -19.926   6.319  0.00  0.00    -0.294 NA
ATOM      2  C   LIG    1       28.636 -21.134   6.828  0.00  0.00    +0.120 C 
ATOM      3  C   LIG    1       29.774 -20.751   7.740  0.00  0.00    -0.023 A 
ATOM      4  C   LIG    1       30.349 -19.496   7.723  0.00  0.00    -0.005 A 
ATOM      5  S   LIG    1       31.643 -19.331   8.807  0.00  0.00    -0.101 S 
ATOM      6  C   LIG    1       31.465 -20.949   9.337  0.00  0.00    +0.045 A 
ATOM      7  C   LIG    1       29.864 -18.382   6.861  0.00  0.00    +0.058 C 
ATOM      8  C   LIG    1       30.431 -21.595   8.690  0.00  0.00    +0.013 A 
ATOM      9  C   LIG    1       28.916 -18.943   5.783  0.00  0.00    +0.090 C 
ENDROOT
BRANCH   1  10
ATOM     10  C   LIG    1       26.993 -20.287   5.239  0.00  0.00    +0.121 C 
BRANCH  10  13
ATOM     11 CL   LIG    1       24.654 -19.914   3.142  0.00  0.00    -0.083 Cl
ATOM     12  C   LIG    1       24.462 -20.308   4.815  0.00  0.00    +0.045 A 
ATOM     13  C   LIG    1       25.556 -20.482   5.679  0.00  0.00    -0.015 A 
ATOM     14  C   LIG    1       25.292 -20.794   7.027  0.00  0.00    +0.006 A 
ATOM     15  C   LIG    1       23.981 -20.929   7.492  0.00  0.00    +0.000 A 
ATOM     16  C   LIG    1       22.910 -20.755   6.622  0.00  0.00    +0.001 A 
ATOM     17  C   LIG    1       23.150 -20.445   5.284  0.00  0.00    +0.020 A 
ENDBRANCH  10  13
ENDBRANCH   1  10
TORSDOF 2
ENDMDL
MODEL 6
REMARK VINA RESULT:      -7.6      3.106      6.562
REMARK  Name = *****
REMARK                            x       y       z     vdW  Elec       q    Type
REMARK                         _______ _______ _______ _____ _____    ______ ____
ROOT
ATOM      1  N   LIG    1       27.225 -20.803   7.211  0.00  0.00    -0.294 NA
ATOM      2  C   LIG    1       27.006 -20.689   5.747  0.00  0.00    +0.120 C 
ATOM      3  C   LIG    1       25.557 -20.410   5.441  0.00  0.00    -0.023 A 
ATOM      4  C   LIG    1       24.543 -20.681   6.338  0.00  0.00    -0.005 A 
ATOM      5  S   LIG    1       22.996 -20.324   5.739  0.00  0.00    -0.101 S 
ATOM      6  C   LIG    1       23.648 -19.787   4.250  0.00  0.00    +0.045 A 
ATOM      7  C   LIG    1       24.780 -21.207   7.711  0.00  0.00    +0.058 C 
ATOM      8  C   LIG    1       25.025 -19.883   4.222  0.00  0.00    +0.013 A 
ATOM      9  C   LIG    1       26.229 -21.725   7.819  0.00  0.00    +0.090 C 
ENDROOT
BRANCH   1  10
ATOM     10  C   LIG    1       28.581 -21.322   7.496  0.00  0.00    +0.121 C 
BRANCH  10  13
ATOM     11 CL   LIG    1       31.169 -22.202   9.087  0.00  0.00    -0.083 Cl
ATOM     12  C   LIG    1       30.756 -20.584   8.641  0.00  0.00    +0.045 A 
ATOM     13  C   LIG    1       29.597 -20.276   7.910  0.00  0.00    -0.015 A 
ATOM     14  C   LIG    1       29.346 -18.924   7.603  0.00  0.00    +0.006 A 
ATOM     15  C   LIG    1       30.226 -17.917   8.011  0.00  0.00    +0.000 A 
ATOM     16  C   LIG    1       31.370 -18.241   8.732  0.00  0.00    +0.001 A 
ATOM     17  C   LIG    1       31.636 -19.572   9.047  0.00  0.00    +0.020 A 
ENDBRANCH  10  13
ENDBRANCH   1  10
TORSDOF 2
ENDMDL
MODEL 7
REMARK VINA RESULT:      -7.4      2.567      3.772
REMARK  Name = *****
REMARK                            x       y       z     vdW  Elec       q    Type
REMARK                         _______ _______ _______ _____ _____    ______ ____
ROOT
ATOM      1  N   LIG    1       25.710 -20.923   7.370  0.00  0.00    -0.294 NA
ATOM      2  C   LIG    1       27.031 -21.089   8.028  0.00  0.00    +0.120 C 
ATOM      3  C   LIG    1       28.076 -20.234   7.356  0.00  0.00    -0.023 A 
ATOM      4  C   LIG    1       27.928 -19.751   6.072  0.00  0.00    -0.005 A 
ATOM      5  S   LIG    1       29.263 -18.859   5.526  0.00  0.00    -0.101 S 
ATOM      6  C   LIG    1       30.083 -19.093   7.010  0.00  0.00    +0.045 A 
ATOM      7  C   LIG    1       26.702 -19.964   5.251  0.00  0.00    +0.058 C 
ATOM      8  C   LIG    1       29.339 -19.842   7.900  0.00  0.00    +0.013 A 
ATOM      9  C   LIG    1       25.838 -21.067   5.895  0.00  0.00    +0.090 C 
ENDROOT
BRANCH   1  10
ATOM     10  C   LIG    1       24.753 -21.938   7.860  0.00  0.00    +0.121 C 
BRANCH  10  13
ATOM     11 CL   LIG    1       22.113 -23.256   6.719  0.00  0.00    -0.083 Cl
ATOM     12  C   LIG    1       23.697 -23.944   6.655  0.00  0.00    +0.045 A 
ATOM     13  C   LIG    1       24.828 -23.283   7.164  0.00  0.00    -0.015 A 
ATOM     14  C   LIG    1       26.074 -23.933   7.070  0.00  0.00    +0.006 A 
ATOM     15  C   LIG    1       26.184 -25.199   6.487  0.00  0.00    +0.000 A 
ATOM     16  C   LIG    1       25.055 -25.837   5.986  0.00  0.00    +0.001 A 
ATOM     17  C   LIG    1       23.813 -25.211   6.070  0.00  0.00    +0.020 A 
ENDBRANCH  10  13
ENDBRANCH   1  10
TORSDOF 2
ENDMDL
MODEL 8
REMARK VINA RESULT:      -7.3      4.269      5.445
REMARK  Name = *****
REMARK                            x       y       z     vdW  Elec       q    Type
REMARK                         _______ _______ _______ _____ _____    ______ ____
ROOT
ATOM      1  N   LIG    1       24.582 -22.817   6.158  0.00  0.00    -0.294 NA
ATOM      2  C   LIG    1       25.823 -23.562   6.488  0.00  0.00    +0.120 C 
ATOM      3  C   LIG    1       25.619 -25.046   6.315  0.00  0.00    -0.023 A 
ATOM      4  C   LIG    1       24.368 -25.628   6.308  0.00  0.00    -0.005 A 
ATOM      5  S   LIG    1       24.407 -27.317   6.149  0.00  0.00    -0.101 S 
ATOM      6  C   LIG    1       26.117 -27.315   6.081  0.00  0.00    +0.045 A 
ATOM      7  C   LIG    1       23.100 -24.850   6.398  0.00  0.00    +0.058 C 
ATOM      8  C   LIG    1       26.639 -26.040   6.179  0.00  0.00    +0.013 A 
ATOM      9  C   LIG    1       23.412 -23.412   6.857  0.00  0.00    +0.090 C 
ENDROOT
BRANCH   1  10
ATOM     10  C   LIG    1       24.703 -21.399   6.565  0.00  0.00    +0.121 C 
BRANCH  10  13
ATOM     11 CL   LIG    1       26.690 -19.929   4.592  0.00  0.00    -0.083 Cl
ATOM     12  C   LIG    1       24.981 -19.682   4.678  0.00  0.00    +0.045 A 
ATOM     13  C   LIG    1       24.160 -20.395   5.567  0.00  0.00    -0.015 A 
ATOM     14  C   LIG    1       22.780 -20.114   5.565  0.00  0.00    +0.006 A 
ATOM     15  C   LIG    1       22.241 -19.156   4.702  0.00  0.00    +0.000 A 
ATOM     16  C   LIG    1       23.068 -18.461   3.827  0.00  0.00    +0.001 A 
ATOM     17  C   LIG    1       24.437 -18.724   3.814  0.00  0.00    +0.020 A 
ENDBRANCH  10  13
ENDBRANCH   1  10
TORSDOF 2
ENDMDL
MODEL 9
REMARK VINA RESULT:      -7.3      6.016      7.847
REMARK  Name = *****
REMARK                            x       y       z     vdW  Elec       q    Type
REMARK                         _______ _______ _______ _____ _____    ______ ____
ROOT
ATOM      1  N   LIG    1       25.273 -25.438   6.913  0.00  0.00    -0.294 NA
ATOM      2  C   LIG    1       26.175 -24.280   6.684  0.00  0.00    +0.120 C 
ATOM      3  C   LIG    1       25.447 -22.980   6.913  0.00  0.00    -0.023 A 
ATOM      4  C   LIG    1       24.071 -22.883   6.881  0.00  0.00    -0.005 A 
ATOM      5  S   LIG    1       23.498 -21.304   7.119  0.00  0.00    -0.101 S 
ATOM      6  C   LIG    1       25.093 -20.702   7.277  0.00  0.00    +0.045 A 
ATOM      7  C   LIG    1       23.169 -24.053   6.688  0.00  0.00    +0.058 C 
ATOM      8  C   LIG    1       26.039 -21.699   7.149  0.00  0.00    +0.013 A 
ATOM      9  C   LIG    1       23.991 -25.256   6.181  0.00  0.00    +0.090 C 
ENDROOT
BRANCH   1  10
ATOM     10  C   LIG    1       25.906 -26.691   6.448  0.00  0.00    +0.121 C 
BRANCH  10  13
ATOM     11 CL   LIG    1       23.856 -28.957   5.629  0.00  0.00    -0.083 Cl
ATOM     12  C   LIG    1       24.799 -28.920   7.077  0.00  0.00    +0.045 A 
ATOM     13  C   LIG    1       25.709 -27.888   7.358  0.00  0.00    -0.015 A 
ATOM     14  C   LIG    1       26.424 -27.946   8.570  0.00  0.00    +0.006 A 
ATOM     15  C   LIG    1       26.236 -29.001   9.468  0.00  0.00    +0.000 A 
ATOM     16  C   LIG    1       25.332 -30.016   9.172  0.00  0.00    +0.001 A 
ATOM     17  C   LIG    1       24.615 -29.976   7.978  0.00  0.00    +0.020 A 
ENDBRANCH  10  13
ENDBRANCH   1  10
TORSDOF 2
ENDMDL
