MODEL 1
REMARK VINA RESULT:      -0.2      0.000      0.000
REMARK  Name = *****
REMARK                            x       y       z     vdW  Elec       q    Type
REMARK                         _______ _______ _______ _____ _____    ______ ____
ROOT
ATOM      1  C   LIG    1       24.172 -19.167   3.163  0.00  0.00    -0.017 C 
ATOM      2  C   LIG    1       24.872 -18.414   4.045  0.00  0.00    -0.013 C 
ATOM      3  C   LIG    1       25.992 -18.973   4.836  0.00  0.00    -0.011 A 
ATOM      4  C   LIG    1       27.307 -18.502   4.654  0.00  0.00    -0.017 A 
ATOM      5  C   LIG    1       28.347 -19.087   5.398  0.00  0.00    +0.008 A 
ATOM      6  C   LIG    1       28.084 -20.088   6.335  0.00  0.00    +0.001 A 
ATOM      7  C   LIG    1       26.779 -20.518   6.545  0.00  0.00    +0.001 A 
ATOM      8  C   LIG    1       27.669 -17.455   3.678  0.00  0.00    +0.009 C 
ATOM      9  C   LIG    1       26.937 -16.403   3.297  0.00  0.00    +0.009 C 
ATOM     10  C   LIG    1       25.579 -16.024   3.741  0.00  0.00    -0.017 A 
ATOM     11  C   LIG    1       25.255 -14.658   3.761  0.00  0.00    +0.008 A 
ATOM     12  C   LIG    1       23.978 -14.224   4.119  0.00  0.00    +0.001 A 
ATOM     13  C   LIG    1       23.000 -15.152   4.461  0.00  0.00    +0.001 A 
ATOM     14  C   LIG    1       23.298 -16.513   4.439  0.00  0.00    +0.009 A 
ATOM     15  C   LIG    1       25.737 -19.961   5.802  0.00  0.00    +0.009 A 
ATOM     16  C   LIG    1       24.579 -16.960   4.069  0.00  0.00    -0.011 A 
ENDROOT
BRANCH   1  17
ATOM     17  C   LIG    1       24.397 -20.617   2.812  0.00  0.00    +0.043 C 
BRANCH  17  18
ATOM     18  C   LIG    1       23.565 -21.572   3.691  0.00  0.00    +0.088 C 
BRANCH  18  20
ATOM     19  C   LIG    1       21.377 -20.814   4.431  0.00  0.00    +0.104 C 
ATOM     20  N   LIG    1       22.804 -20.878   4.752  0.00  0.00    -0.308 NA
ATOM     21  C   LIG    1       22.984 -21.557   6.039  0.00  0.00    +0.104 C 
ENDBRANCH  18  20
ENDBRANCH  17  18
ENDBRANCH   1  17
TORSDOF 3
ENDMDL
MODEL 2
REMARK VINA RESULT:       0.5      1.884      4.389
REMARK  Name = *****
REMARK                            x       y       z     vdW  Elec       q    Type
REMARK                         _______ _______ _______ _____ _____    ______ ____
ROOT
ATOM      1  C   LIG    1       26.962 -17.550   4.325  0.00  0.00    -0.017 C 
ATOM      2  C   LIG    1       25.818 -17.214   3.683  0.00  0.00    -0.013 C 
ATOM      3  C   LIG    1       24.735 -18.198   3.448  0.00  0.00    -0.011 A 
ATOM      4  C   LIG    1       23.472 -18.035   4.048  0.00  0.00    -0.017 A 
ATOM      5  C   LIG    1       22.484 -19.012   3.829  0.00  0.00    +0.008 A 
ATOM      6  C   LIG    1       22.729 -20.105   2.997  0.00  0.00    +0.001 A 
ATOM      7  C   LIG    1       23.961 -20.239   2.368  0.00  0.00    +0.001 A 
ATOM      8  C   LIG    1       23.137 -16.912   4.948  0.00  0.00    +0.009 C 
ATOM      9  C   LIG    1       23.587 -15.655   4.890  0.00  0.00    +0.009 C 
ATOM     10  C   LIG    1       24.539 -15.067   3.925  0.00  0.00    -0.017 A 
ATOM     11  C   LIG    1       24.397 -13.706   3.613  0.00  0.00    +0.008 A 
ATOM     12  C   LIG    1       25.288 -13.066   2.750  0.00  0.00    +0.001 A 
ATOM     13  C   LIG    1       26.341 -13.778   2.186  0.00  0.00    +0.001 A 
ATOM     14  C   LIG    1       26.506 -15.129   2.490  0.00  0.00    +0.009 A 
ATOM     15  C   LIG    1       24.959 -19.288   2.589  0.00  0.00    +0.009 A 
ATOM     16  C   LIG    1       25.619 -15.779   3.367  0.00  0.00    -0.011 A 
ENDROOT
BRANCH   1  17
ATOM     17  C   LIG    1       27.325 -18.890   4.915  0.00  0.00    +0.043 C 
BRANCH  17  18
ATOM     18  C   LIG    1       28.520 -18.802   5.884  0.00  0.00    +0.088 C 
BRANCH  18  20
ATOM     19  C   LIG    1       27.102 -20.386   7.062  0.00  0.00    +0.104 C 
ATOM     20  N   LIG    1       28.394 -19.696   7.054  0.00  0.00    -0.308 NA
ATOM     21  C   LIG    1       29.475 -20.687   7.062  0.00  0.00    +0.104 C 
ENDBRANCH  18  20
ENDBRANCH  17  18
ENDBRANCH   1  17
TORSDOF 3
ENDMDL
MODEL 3
REMARK VINA RESULT:       1.7      2.327      5.484
REMARK  Name = *****
REMARK                            x       y       z     vdW  Elec       q    Type
REMARK                         _______ _______ _______ _____ _____    ______ ____
ROOT
ATOM      1  C   LIG    1       22.579 -16.278   4.752  0.00  0.00    -0.017 C 
ATOM      2  C   LIG    1       22.806 -17.496   4.204  0.00  0.00    -0.013 C 
ATOM      3  C   LIG    1       24.172 -18.056   4.079  0.00  0.00    -0.011 A 
ATOM      4  C   LIG    1       24.540 -19.218   4.782  0.00  0.00    -0.017 A 
ATOM      5  C   LIG    1       25.858 -19.695   4.666  0.00  0.00    +0.008 A 
ATOM      6  C   LIG    1       26.780 -19.057   3.834  0.00  0.00    +0.001 A 
ATOM      7  C   LIG    1       26.400 -17.936   3.105  0.00  0.00    +0.001 A 
ATOM      8  C   LIG    1       23.628 -19.945   5.689  0.00  0.00    +0.009 C 
ATOM      9  C   LIG    1       22.305 -20.093   5.572  0.00  0.00    +0.009 C 
ATOM     10  C   LIG    1       21.414 -19.561   4.519  0.00  0.00    -0.017 A 
ATOM     11  C   LIG    1       20.266 -20.304   4.198  0.00  0.00    +0.008 A 
ATOM     12  C   LIG    1       19.350 -19.843   3.251  0.00  0.00    +0.001 A 
ATOM     13  C   LIG    1       19.565 -18.626   2.611  0.00  0.00    +0.001 A 
ATOM     14  C   LIG    1       20.694 -17.869   2.922  0.00  0.00    +0.009 A 
ATOM     15  C   LIG    1       25.101 -17.440   3.224  0.00  0.00    +0.009 A 
ATOM     16  C   LIG    1       21.617 -18.321   3.883  0.00  0.00    -0.011 A 
ENDROOT
BRANCH   1  17
ATOM     17  C   LIG    1       23.597 -15.327   5.332  0.00  0.00    +0.043 C 
BRANCH  17  18
ATOM     18  C   LIG    1       23.833 -14.098   4.433  0.00  0.00    +0.088 C 
BRANCH  18  20
ATOM     19  C   LIG    1       25.197 -13.238   2.612  0.00  0.00    +0.104 C 
ATOM     20  N   LIG    1       25.177 -14.071   3.817  0.00  0.00    -0.308 NA
ATOM     21  C   LIG    1       26.169 -13.567   4.773  0.00  0.00    +0.104 C 
ENDBRANCH  18  20
ENDBRANCH  17  18
ENDBRANCH   1  17
TORSDOF 3
ENDMDL
MODEL 4
REMARK VINA RESULT:       2.5      2.622      6.188
REMARK  Name = *****
REMARK                            x       y       z     vdW  Elec       q    Type
REMARK                         _______ _______ _______ _____ _____    ______ ____
ROOT
ATOM      1  C   LIG    1       26.577 -15.483   2.833  0.00  0.00    -0.017 C 
ATOM      2  C   LIG    1       26.096 -16.328   3.776  0.00  0.00    -0.013 C 
ATOM      3  C   LIG    1       24.663 -16.347   4.151  0.00  0.00    -0.011 A 
ATOM      4  C   LIG    1       23.871 -17.485   3.909  0.00  0.00    -0.017 A 
ATOM      5  C   LIG    1       22.506 -17.448   4.246  0.00  0.00    +0.008 A 
ATOM      6  C   LIG    1       21.948 -16.321   4.852  0.00  0.00    +0.001 A 
ATOM      7  C   LIG    1       22.743 -15.216   5.133  0.00  0.00    +0.001 A 
ATOM      8  C   LIG    1       24.383 -18.712   3.263  0.00  0.00    +0.009 C 
ATOM      9  C   LIG    1       25.608 -19.236   3.360  0.00  0.00    +0.009 C 
ATOM     10  C   LIG    1       26.766 -18.722   4.122  0.00  0.00    -0.017 A 
ATOM     11  C   LIG    1       27.685 -19.658   4.622  0.00  0.00    +0.008 A 
ATOM     12  C   LIG    1       28.831 -19.249   5.308  0.00  0.00    +0.001 A 
ATOM     13  C   LIG    1       29.078 -17.894   5.501  0.00  0.00    +0.001 A 
ATOM     14  C   LIG    1       28.182 -16.948   5.004  0.00  0.00    +0.009 A 
ATOM     15  C   LIG    1       24.096 -15.230   4.788  0.00  0.00    +0.009 A 
ATOM     16  C   LIG    1       27.031 -17.351   4.303  0.00  0.00    -0.011 A 
ENDROOT
BRANCH   1  17
ATOM     17  C   LIG    1       25.800 -14.483   2.012  0.00  0.00    +0.043 C 
BRANCH  17  18
ATOM     18  C   LIG    1       25.788 -13.081   2.651  0.00  0.00    +0.088 C 
BRANCH  18  20
ATOM     19  C   LIG    1       24.210 -11.986   4.143  0.00  0.00    +0.104 C 
ATOM     20  N   LIG    1       24.429 -12.514   2.795  0.00  0.00    -0.308 NA
ATOM     21  C   LIG    1       24.212 -11.447   1.812  0.00  0.00    +0.104 C 
ENDBRANCH  18  20
ENDBRANCH  17  18
ENDBRANCH   1  17
TORSDOF 3
ENDMDL
MODEL 5
REMARK VINA RESULT:       2.7      2.510      6.200
REMARK  Name = *****
REMARK                            x       y       z     vdW  Elec       q    Type
REMARK                         _______ _______ _______ _____ _____    ______ ____
ROOT
ATOM      1  C   LIG    1       26.808 -16.084   2.938  0.00  0.00    -0.017 C 
ATOM      2  C   LIG    1       26.170 -16.841   3.861  0.00  0.00    -0.013 C 
ATOM      3  C   LIG    1       24.732 -16.654   4.168  0.00  0.00    -0.011 A 
ATOM      4  C   LIG    1       23.800 -17.672   3.894  0.00  0.00    -0.017 A 
ATOM      5  C   LIG    1       22.439 -17.439   4.165  0.00  0.00    +0.008 A 
ATOM      6  C   LIG    1       22.018 -16.238   4.738  0.00  0.00    +0.001 A 
ATOM      7  C   LIG    1       22.947 -15.253   5.050  0.00  0.00    +0.001 A 
ATOM      8  C   LIG    1       24.163 -18.966   3.281  0.00  0.00    +0.009 C 
ATOM      9  C   LIG    1       25.297 -19.656   3.439  0.00  0.00    +0.009 C 
ATOM     10  C   LIG    1       26.478 -19.302   4.253  0.00  0.00    -0.017 A 
ATOM     11  C   LIG    1       27.232 -20.351   4.802  0.00  0.00    +0.008 A 
ATOM     12  C   LIG    1       28.391 -20.098   5.539  0.00  0.00    +0.001 A 
ATOM     13  C   LIG    1       28.817 -18.789   5.736  0.00  0.00    +0.001 A 
ATOM     14  C   LIG    1       28.088 -17.733   5.191  0.00  0.00    +0.009 A 
ATOM     15  C   LIG    1       24.299 -15.461   4.770  0.00  0.00    +0.009 A 
ATOM     16  C   LIG    1       26.925 -17.979   4.438  0.00  0.00    -0.011 A 
ENDROOT
BRANCH   1  17
ATOM     17  C   LIG    1       26.219 -14.995   2.075  0.00  0.00    +0.043 C 
BRANCH  17  18
ATOM     18  C   LIG    1       26.631 -13.586   2.543  0.00  0.00    +0.088 C 
BRANCH  18  20
ATOM     19  C   LIG    1       28.685 -12.867   3.629  0.00  0.00    +0.104 C 
ATOM     20  N   LIG    1       27.422 -13.591   3.793  0.00  0.00    -0.308 NA
ATOM     21  C   LIG    1       26.655 -12.990   4.888  0.00  0.00    +0.104 C 
ENDBRANCH  18  20
ENDBRANCH  17  18
ENDBRANCH   1  17
TORSDOF 3
ENDMDL
