MODEL 1
REMARK VINA RESULT:      -7.2      0.000      0.000
REMARK  Name = *****
REMARK                            x       y       z     vdW  Elec       q    Type
REMARK                         _______ _______ _______ _____ _____    ______ ____
ROOT
ATOM      1  C   LIG    1       30.040 -19.283   7.953  0.00  0.00    +0.113 A 
ATOM      2  C   LIG    1       30.070 -18.460   6.823  0.00  0.00    +0.031 A 
ATOM      3  C   LIG    1       29.180 -18.701   5.775  0.00  0.00    +0.024 A 
ATOM      4  C   LIG    1       28.293 -19.782   5.822  0.00  0.00    +0.025 A 
ATOM      5  C   LIG    1       28.238 -20.559   6.985  0.00  0.00    +0.024 A 
ATOM      6  C   LIG    1       29.123 -20.330   8.043  0.00  0.00    +0.031 A 
ENDROOT
BRANCH   1   7
ATOM      7  S   LIG    1       31.184 -18.960   9.286  0.00  0.00    +0.102 S 
ATOM      8  O   LIG    1       30.395 -18.906  10.503  0.00  0.00    -0.146 OA
ATOM      9  O   LIG    1       32.247 -19.934   9.124  0.00  0.00    -0.146 OA
BRANCH   7  12
ATOM     10  C   LIG    1       32.983 -15.485   9.518  0.00  0.00    +0.110 C 
ATOM     11  C   LIG    1       32.449 -16.856   9.788  0.00  0.00    +0.204 C 
ATOM     12  N   LIG    1       31.726 -17.477   8.927  0.00  0.00    -0.096 NA
BRANCH  11  13
ATOM     13  O   LIG    1       32.803 -17.357  10.983  0.00  0.00    -0.495 OA
ATOM     14  H   LIG    1       32.789 -18.328  11.017  0.00  0.00    +0.293 HD
ENDBRANCH  11  13
ENDBRANCH   7  12
ENDBRANCH   1   7
BRANCH   4  15
ATOM     15  N   LIG    1       27.323 -19.940   4.825  0.00  0.00    -0.358 N 
ATOM     16  H   LIG    1       27.692 -20.303   3.951  0.00  0.00    +0.142 HD
ATOM     17  H   LIG    1       26.502 -20.453   5.132  0.00  0.00    +0.142 HD
ENDBRANCH   4  15
TORSDOF 4
ENDMDL
MODEL 2
REMARK VINA RESULT:      -7.1      2.116      2.605
REMARK  Name = *****
REMARK                            x       y       z     vdW  Elec       q    Type
REMARK                         _______ _______ _______ _____ _____    ______ ____
ROOT
ATOM      1  C   LIG    1       28.228 -20.189   7.277  0.00  0.00    +0.113 A 
ATOM      2  C   LIG    1       28.028 -20.009   5.906  0.00  0.00    +0.031 A 
ATOM      3  C   LIG    1       26.744 -20.148   5.375  0.00  0.00    +0.024 A 
ATOM      4  C   LIG    1       25.667 -20.511   6.192  0.00  0.00    +0.025 A 
ATOM      5  C   LIG    1       25.877 -20.631   7.571  0.00  0.00    +0.024 A 
ATOM      6  C   LIG    1       27.156 -20.495   8.116  0.00  0.00    +0.031 A 
ENDROOT
BRANCH   1   7
ATOM      7  S   LIG    1       29.877 -20.004   7.940  0.00  0.00    +0.102 S 
ATOM      8  O   LIG    1       30.163 -21.219   8.681  0.00  0.00    -0.146 OA
ATOM      9  O   LIG    1       30.699 -19.601   6.815  0.00  0.00    -0.146 OA
BRANCH   7  12
ATOM     10  C   LIG    1       30.614 -17.265  10.646  0.00  0.00    +0.110 C 
ATOM     11  C   LIG    1       30.709 -18.399   9.674  0.00  0.00    +0.204 C 
ATOM     12  N   LIG    1       29.700 -18.770   8.973  0.00  0.00    -0.096 NA
BRANCH  11  13
ATOM     13  O   LIG    1       31.926 -18.964   9.609  0.00  0.00    -0.495 OA
ATOM     14  H   LIG    1       32.574 -18.439   9.111  0.00  0.00    +0.293 HD
ENDBRANCH  11  13
ENDBRANCH   7  12
ENDBRANCH   1   7
BRANCH   4  15
ATOM     15  N   LIG    1       24.367 -20.527   5.674  0.00  0.00    -0.358 N 
ATOM     16  H   LIG    1       24.242 -21.176   4.903  0.00  0.00    +0.142 HD
ATOM     17  H   LIG    1       23.647 -20.637   6.382  0.00  0.00    +0.142 HD
ENDBRANCH   4  15
TORSDOF 4
ENDMDL
MODEL 3
REMARK VINA RESULT:      -6.9      2.431      5.577
REMARK  Name = *****
REMARK                            x       y       z     vdW  Elec       q    Type
REMARK                         _______ _______ _______ _____ _____    ______ ____
ROOT
ATOM      1  C   LIG    1       31.198 -18.040   9.209  0.00  0.00    +0.113 A 
ATOM      2  C   LIG    1       32.332 -17.241   9.039  0.00  0.00    +0.031 A 
ATOM      3  C   LIG    1       32.730 -16.387  10.069  0.00  0.00    +0.024 A 
ATOM      4  C   LIG    1       31.980 -16.287  11.247  0.00  0.00    +0.025 A 
ATOM      5  C   LIG    1       30.882 -17.137  11.421  0.00  0.00    +0.024 A 
ATOM      6  C   LIG    1       30.471 -17.996  10.399  0.00  0.00    +0.031 A 
ENDROOT
BRANCH   1   7
ATOM      7  S   LIG    1       30.704 -19.130   7.882  0.00  0.00    +0.102 S 
ATOM      8  O   LIG    1       30.662 -18.322   6.677  0.00  0.00    -0.146 OA
ATOM      9  O   LIG    1       31.582 -20.280   7.983  0.00  0.00    -0.146 OA
BRANCH   7  12
ATOM     10  C   LIG    1       27.175 -20.835   7.952  0.00  0.00    +0.110 C 
ATOM     11  C   LIG    1       28.569 -20.412   7.610  0.00  0.00    +0.204 C 
ATOM     12  N   LIG    1       29.197 -19.539   8.311  0.00  0.00    -0.096 NA
BRANCH  11  13
ATOM     13  O   LIG    1       29.080 -21.028   6.531  0.00  0.00    -0.495 OA
ATOM     14  H   LIG    1       30.037 -20.900   6.427  0.00  0.00    +0.293 HD
ENDBRANCH  11  13
ENDBRANCH   7  12
ENDBRANCH   1   7
BRANCH   4  15
ATOM     15  N   LIG    1       32.455 -15.523  12.319  0.00  0.00    -0.358 N 
ATOM     16  H   LIG    1       32.948 -14.682  12.034  0.00  0.00    +0.142 HD
ATOM     17  H   LIG    1       31.751 -15.329  13.025  0.00  0.00    +0.142 HD
ENDBRANCH   4  15
TORSDOF 4
ENDMDL
MODEL 4
REMARK VINA RESULT:      -6.8      3.121      5.946
REMARK  Name = *****
REMARK                            x       y       z     vdW  Elec       q    Type
REMARK                         _______ _______ _______ _____ _____    ______ ____
ROOT
ATOM      1  C   LIG    1       31.574 -17.482  10.092  0.00  0.00    +0.113 A 
ATOM      2  C   LIG    1       31.101 -17.606  11.402  0.00  0.00    +0.031 A 
ATOM      3  C   LIG    1       31.603 -16.763  12.395  0.00  0.00    +0.024 A 
ATOM      4  C   LIG    1       32.605 -15.830  12.104  0.00  0.00    +0.025 A 
ATOM      5  C   LIG    1       33.024 -15.683  10.777  0.00  0.00    +0.024 A 
ATOM      6  C   LIG    1       32.532 -16.520   9.772  0.00  0.00    +0.031 A 
ENDROOT
BRANCH   1   7
ATOM      7  S   LIG    1       30.920 -18.567   8.833  0.00  0.00    +0.102 S 
ATOM      8  O   LIG    1       29.479 -18.579   9.005  0.00  0.00    -0.146 OA
ATOM      9  O   LIG    1       31.523 -18.120   7.591  0.00  0.00    -0.146 OA
BRANCH   7  12
ATOM     10  C   LIG    1       31.565 -22.426   9.075  0.00  0.00    +0.110 C 
ATOM     11  C   LIG    1       31.048 -21.066   8.724  0.00  0.00    +0.204 C 
ATOM     12  N   LIG    1       31.528 -20.005   9.262  0.00  0.00    -0.096 NA
BRANCH  11  13
ATOM     13  O   LIG    1       30.065 -21.074   7.808  0.00  0.00    -0.495 OA
ATOM     14  H   LIG    1       29.236 -21.464   8.130  0.00  0.00    +0.293 HD
ENDBRANCH  11  13
ENDBRANCH   7  12
ENDBRANCH   1   7
BRANCH   4  15
ATOM     15  N   LIG    1       33.011 -14.909  13.077  0.00  0.00    -0.358 N 
ATOM     16  H   LIG    1       32.337 -14.783  13.826  0.00  0.00    +0.142 HD
ATOM     17  H   LIG    1       33.947 -15.078  13.433  0.00  0.00    +0.142 HD
ENDBRANCH   4  15
TORSDOF 4
ENDMDL
MODEL 5
REMARK VINA RESULT:      -6.7      5.388      7.843
REMARK  Name = *****
REMARK                            x       y       z     vdW  Elec       q    Type
REMARK                         _______ _______ _______ _____ _____    ______ ____
ROOT
ATOM      1  C   LIG    1       26.363 -21.344   6.671  0.00  0.00    +0.113 A 
ATOM      2  C   LIG    1       27.311 -21.836   7.572  0.00  0.00    +0.031 A 
ATOM      3  C   LIG    1       28.610 -21.326   7.548  0.00  0.00    +0.024 A 
ATOM      4  C   LIG    1       28.985 -20.365   6.603  0.00  0.00    +0.025 A 
ATOM      5  C   LIG    1       28.008 -19.844   5.747  0.00  0.00    +0.024 A 
ATOM      6  C   LIG    1       26.703 -20.345   5.759  0.00  0.00    +0.031 A 
ENDROOT
BRANCH   1   7
ATOM      7  S   LIG    1       24.704 -22.006   6.716  0.00  0.00    +0.102 S 
ATOM      8  O   LIG    1       24.220 -21.815   8.071  0.00  0.00    -0.146 OA
ATOM      9  O   LIG    1       24.022 -21.407   5.585  0.00  0.00    -0.146 OA
BRANCH   7  12
ATOM     10  C   LIG    1       24.100 -25.842   6.186  0.00  0.00    +0.110 C 
ATOM     11  C   LIG    1       23.941 -24.374   6.430  0.00  0.00    +0.204 C 
ATOM     12  N   LIG    1       24.951 -23.583   6.448  0.00  0.00    -0.096 NA
BRANCH  11  13
ATOM     13  O   LIG    1       22.669 -23.984   6.613  0.00  0.00    -0.495 OA
ATOM     14  H   LIG    1       22.279 -23.551   5.835  0.00  0.00    +0.293 HD
ENDBRANCH  11  13
ENDBRANCH   7  12
ENDBRANCH   1   7
BRANCH   4  15
ATOM     15  N   LIG    1       30.252 -19.772   6.667  0.00  0.00    -0.358 N 
ATOM     16  H   LIG    1       31.004 -20.434   6.838  0.00  0.00    +0.142 HD
ATOM     17  H   LIG    1       30.456 -19.160   5.883  0.00  0.00    +0.142 HD
ENDBRANCH   4  15
TORSDOF 4
ENDMDL
MODEL 6
REMARK VINA RESULT:      -6.6      5.083      6.765
REMARK  Name = *****
REMARK                            x       y       z     vdW  Elec       q    Type
REMARK                         _______ _______ _______ _____ _____    ______ ____
ROOT
ATOM      1  C   LIG    1       24.882 -22.766   7.317  0.00  0.00    +0.113 A 
ATOM      2  C   LIG    1       23.580 -23.124   6.954  0.00  0.00    +0.031 A 
ATOM      3  C   LIG    1       23.335 -24.401   6.446  0.00  0.00    +0.024 A 
ATOM      4  C   LIG    1       24.383 -25.307   6.251  0.00  0.00    +0.025 A 
ATOM      5  C   LIG    1       25.669 -24.952   6.673  0.00  0.00    +0.024 A 
ATOM      6  C   LIG    1       25.930 -23.677   7.183  0.00  0.00    +0.031 A 
ENDROOT
BRANCH   1   7
ATOM      7  S   LIG    1       25.177 -21.130   7.968  0.00  0.00    +0.102 S 
ATOM      8  O   LIG    1       23.904 -20.434   7.931  0.00  0.00    -0.146 OA
ATOM      9  O   LIG    1       25.883 -21.337   9.219  0.00  0.00    -0.146 OA
BRANCH   7  12
ATOM     10  C   LIG    1       28.409 -19.875   6.138  0.00  0.00    +0.110 C 
ATOM     11  C   LIG    1       27.433 -20.451   7.115  0.00  0.00    +0.204 C 
ATOM     12  N   LIG    1       26.175 -20.491   6.865  0.00  0.00    -0.096 NA
BRANCH  11  13
ATOM     13  O   LIG    1       27.996 -20.916   8.243  0.00  0.00    -0.495 OA
ATOM     14  H   LIG    1       27.631 -20.521   9.052  0.00  0.00    +0.293 HD
ENDBRANCH  11  13
ENDBRANCH   7  12
ENDBRANCH   1   7
BRANCH   4  15
ATOM     15  N   LIG    1       24.110 -26.623   5.858  0.00  0.00    -0.358 N 
ATOM     16  H   LIG    1       24.941 -27.196   5.745  0.00  0.00    +0.142 HD
ATOM     17  H   LIG    1       23.408 -27.082   6.430  0.00  0.00    +0.142 HD
ENDBRANCH   4  15
TORSDOF 4
ENDMDL
MODEL 7
REMARK VINA RESULT:      -6.6      4.287      6.589
REMARK  Name = *****
REMARK                            x       y       z     vdW  Elec       q    Type
REMARK                         _______ _______ _______ _____ _____    ______ ____
ROOT
ATOM      1  C   LIG    1       27.660 -20.958   7.543  0.00  0.00    +0.113 A 
ATOM      2  C   LIG    1       28.730 -21.410   8.319  0.00  0.00    +0.031 A 
ATOM      3  C   LIG    1       30.004 -20.879   8.110  0.00  0.00    +0.024 A 
ATOM      4  C   LIG    1       30.229 -19.935   7.101  0.00  0.00    +0.025 A 
ATOM      5  C   LIG    1       29.135 -19.453   6.373  0.00  0.00    +0.024 A 
ATOM      6  C   LIG    1       27.855 -19.976   6.572  0.00  0.00    +0.031 A 
ENDROOT
BRANCH   1   7
ATOM      7  S   LIG    1       26.037 -21.647   7.826  0.00  0.00    +0.102 S 
ATOM      8  O   LIG    1       26.099 -23.036   7.411  0.00  0.00    -0.146 OA
ATOM      9  O   LIG    1       25.700 -21.286   9.191  0.00  0.00    -0.146 OA
BRANCH   7  12
ATOM     10  C   LIG    1       22.936 -20.179   5.929  0.00  0.00    +0.110 C 
ATOM     11  C   LIG    1       23.842 -20.923   6.859  0.00  0.00    +0.204 C 
ATOM     12  N   LIG    1       25.118 -20.813   6.786  0.00  0.00    -0.096 NA
BRANCH  11  13
ATOM     13  O   LIG    1       23.198 -21.687   7.757  0.00  0.00    -0.495 OA
ATOM     14  H   LIG    1       22.230 -21.621   7.701  0.00  0.00    +0.293 HD
ENDBRANCH  11  13
ENDBRANCH   7  12
ENDBRANCH   1   7
BRANCH   4  15
ATOM     15  N   LIG    1       31.480 -19.319   6.981  0.00  0.00    -0.358 N 
ATOM     16  H   LIG    1       31.865 -19.001   7.866  0.00  0.00    +0.142 HD
ATOM     17  H   LIG    1       32.153 -19.862   6.449  0.00  0.00    +0.142 HD
ENDBRANCH   4  15
TORSDOF 4
ENDMDL
MODEL 8
REMARK VINA RESULT:      -6.6      4.089      5.298
REMARK  Name = *****
REMARK                            x       y       z     vdW  Elec       q    Type
REMARK                         _______ _______ _______ _____ _____    ______ ____
ROOT
ATOM      1  C   LIG    1       25.371 -20.764   6.638  0.00  0.00    +0.113 A 
ATOM      2  C   LIG    1       25.581 -20.344   5.321  0.00  0.00    +0.031 A 
ATOM      3  C   LIG    1       24.493 -19.930   4.551  0.00  0.00    +0.024 A 
ATOM      4  C   LIG    1       23.192 -19.977   5.065  0.00  0.00    +0.025 A 
ATOM      5  C   LIG    1       23.009 -20.346   6.402  0.00  0.00    +0.024 A 
ATOM      6  C   LIG    1       24.088 -20.762   7.186  0.00  0.00    +0.031 A 
ENDROOT
BRANCH   1   7
ATOM      7  S   LIG    1       26.774 -21.287   7.611  0.00  0.00    +0.102 S 
ATOM      8  O   LIG    1       26.498 -20.894   8.980  0.00  0.00    -0.146 OA
ATOM      9  O   LIG    1       26.987 -22.679   7.259  0.00  0.00    -0.146 OA
BRANCH   7  12
ATOM     10  C   LIG    1       30.302 -19.696   6.992  0.00  0.00    +0.110 C 
ATOM     11  C   LIG    1       29.153 -20.509   7.497  0.00  0.00    +0.204 C 
ATOM     12  N   LIG    1       27.970 -20.373   7.017  0.00  0.00    -0.096 NA
BRANCH  11  13
ATOM     13  O   LIG    1       29.480 -21.377   8.469  0.00  0.00    -0.495 OA
ATOM     14  H   LIG    1       30.283 -21.889   8.279  0.00  0.00    +0.293 HD
ENDBRANCH  11  13
ENDBRANCH   7  12
ENDBRANCH   1   7
BRANCH   4  15
ATOM     15  N   LIG    1       22.127 -19.445   4.329  0.00  0.00    -0.358 N 
ATOM     16  H   LIG    1       21.217 -19.795   4.617  0.00  0.00    +0.142 HD
ATOM     17  H   LIG    1       22.140 -18.432   4.266  0.00  0.00    +0.142 HD
ENDBRANCH   4  15
TORSDOF 4
ENDMDL
MODEL 9
REMARK VINA RESULT:      -6.5      5.443      7.516
REMARK  Name = *****
REMARK                            x       y       z     vdW  Elec       q    Type
REMARK                         _______ _______ _______ _____ _____    ______ ____
ROOT
ATOM      1  C   LIG    1       26.347 -21.170   6.507  0.00  0.00    +0.113 A 
ATOM      2  C   LIG    1       26.966 -20.214   5.697  0.00  0.00    +0.031 A 
ATOM      3  C   LIG    1       28.294 -19.862   5.942  0.00  0.00    +0.024 A 
ATOM      4  C   LIG    1       28.996 -20.420   7.017  0.00  0.00    +0.025 A 
ATOM      5  C   LIG    1       28.378 -21.417   7.781  0.00  0.00    +0.024 A 
ATOM      6  C   LIG    1       27.049 -21.778   7.547  0.00  0.00    +0.031 A 
ENDROOT
BRANCH   1   7
ATOM      7  S   LIG    1       24.647 -21.610   6.177  0.00  0.00    +0.102 S 
ATOM      8  O   LIG    1       24.676 -22.615   5.131  0.00  0.00    -0.146 OA
ATOM      9  O   LIG    1       24.067 -21.896   7.476  0.00  0.00    -0.146 OA
BRANCH   7  12
ATOM     10  C   LIG    1       22.220 -18.990   4.563  0.00  0.00    +0.110 C 
ATOM     11  C   LIG    1       22.842 -20.230   5.123  0.00  0.00    +0.204 C 
ATOM     12  N   LIG    1       24.039 -20.231   5.586  0.00  0.00    -0.096 NA
BRANCH  11  13
ATOM     13  O   LIG    1       22.037 -21.305   5.100  0.00  0.00    -0.495 OA
ATOM     14  H   LIG    1       22.481 -22.117   4.805  0.00  0.00    +0.293 HD
ENDBRANCH  11  13
ENDBRANCH   7  12
ENDBRANCH   1   7
BRANCH   4  15
ATOM     15  N   LIG    1       30.361 -20.154   7.178  0.00  0.00    -0.358 N 
ATOM     16  H   LIG    1       30.749 -19.558   6.453  0.00  0.00    +0.142 HD
ATOM     17  H   LIG    1       30.605 -19.828   8.108  0.00  0.00    +0.142 HD
ENDBRANCH   4  15
TORSDOF 4
ENDMDL
