MODEL 1
REMARK VINA RESULT:      -4.5      0.000      0.000
REMARK  Name = *****
REMARK                            x       y       z     vdW  Elec       q    Type
REMARK                         _______ _______ _______ _____ _____    ______ ____
ROOT
ATOM      1  N   LIG    1       26.480 -23.133   6.887  0.00  0.00    -0.230 N 
ATOM      2  H   LIG    1       27.218 -23.533   6.320  0.00  0.00    +0.173 HD
ATOM      3  C   LIG    1       26.669 -22.018   7.687  0.00  0.00    +0.260 C 
ATOM      4  O   LIG    1       25.902 -21.617   8.555  0.00  0.00    -0.269 OA
ENDROOT
BRANCH   1   7
ATOM      5  C   LIG    1       24.103 -22.225   5.642  0.00  0.00    +0.030 C 
ATOM      6  C   LIG    1       24.007 -23.342   6.686  0.00  0.00    +0.096 C 
ATOM      7  N   LIG    1       25.333 -23.921   7.054  0.00  0.00    -0.247 N 
ATOM      8  C   LIG    1       25.377 -25.180   6.401  0.00  0.00    +0.051 A 
ATOM      9  C   LIG    1       24.137 -25.565   5.886  0.00  0.00    -0.023 A 
ATOM     10  C   LIG    1       23.950 -26.788   5.259  0.00  0.00    +0.005 A 
ATOM     11  C   LIG    1       25.047 -27.641   5.138  0.00  0.00    +0.000 A 
ATOM     12  C   LIG    1       26.299 -27.264   5.646  0.00  0.00    +0.002 A 
ATOM     13  C   LIG    1       26.467 -26.032   6.289  0.00  0.00    +0.025 A 
ATOM     14  C   LIG    1       23.123 -24.508   6.166  0.00  0.00    +0.061 C 
ENDBRANCH   1   7
BRANCH   3  15
ATOM     15  C   LIG    1       27.937 -21.269   7.431  0.00  0.00    +0.040 A 
ATOM     16  C   LIG    1       29.158 -21.685   7.981  0.00  0.00    +0.043 A 
ATOM     17  C   LIG    1       30.334 -20.945   7.746  0.00  0.00    +0.124 A 
ATOM     18  C   LIG    1       30.297 -19.806   6.942  0.00  0.00    +0.067 A 
ATOM     19 CL   LIG    1       31.671 -18.819   6.598  0.00  0.00    -0.082 Cl
ATOM     20  C   LIG    1       29.081 -19.417   6.363  0.00  0.00    +0.022 A 
ATOM     21  C   LIG    1       27.909 -20.142   6.604  0.00  0.00    +0.014 A 
BRANCH  17  22
ATOM     22  S   LIG    1       31.815 -21.488   8.541  0.00  0.00    +0.057 S 
ATOM     23  O   LIG    1       31.539 -22.731   9.225  0.00  0.00    -0.153 OA
ATOM     24  O   LIG    1       32.424 -20.368   9.224  0.00  0.00    -0.153 OA
BRANCH  22  25
ATOM     25  N   LIG    1       32.832 -21.910   7.281  0.00  0.00    -0.203 NA
ATOM     26  H   LIG    1       33.763 -22.127   7.640  0.00  0.00    +0.144 HD
ATOM     27  H   LIG    1       32.830 -21.166   6.580  0.00  0.00    +0.144 HD
ENDBRANCH  22  25
ENDBRANCH  17  22
ENDBRANCH   3  15
TORSDOF 4
ENDMDL
MODEL 2
REMARK VINA RESULT:      -2.0      2.342      3.753
REMARK  Name = *****
REMARK                            x       y       z     vdW  Elec       q    Type
REMARK                         _______ _______ _______ _____ _____    ______ ____
ROOT
ATOM      1  N   LIG    1       26.084 -21.722   5.351  0.00  0.00    -0.230 N 
ATOM      2  H   LIG    1       26.821 -22.379   5.121  0.00  0.00    +0.173 HD
ATOM      3  C   LIG    1       26.314 -20.557   6.063  0.00  0.00    +0.260 C 
ATOM      4  O   LIG    1       25.455 -19.839   6.563  0.00  0.00    -0.269 OA
ENDROOT
BRANCH   1   7
ATOM      5  C   LIG    1       24.692 -22.589   7.661  0.00  0.00    +0.030 C 
ATOM      6  C   LIG    1       24.112 -22.923   6.284  0.00  0.00    +0.096 C 
ATOM      7  N   LIG    1       24.772 -22.179   5.170  0.00  0.00    -0.247 N 
ATOM      8  C   LIG    1       23.840 -21.176   4.796  0.00  0.00    +0.051 A 
ATOM      9  C   LIG    1       22.580 -21.370   5.367  0.00  0.00    -0.023 A 
ATOM     10  C   LIG    1       21.510 -20.533   5.085  0.00  0.00    +0.005 A 
ATOM     11  C   LIG    1       21.721 -19.464   4.214  0.00  0.00    +0.000 A 
ATOM     12  C   LIG    1       22.983 -19.255   3.639  0.00  0.00    +0.002 A 
ATOM     13  C   LIG    1       24.048 -20.117   3.923  0.00  0.00    +0.025 A 
ATOM     14  C   LIG    1       22.597 -22.586   6.228  0.00  0.00    +0.061 C 
ENDBRANCH   1   7
BRANCH   3  15
ATOM     15  C   LIG    1       27.754 -20.182   6.207  0.00  0.00    +0.040 A 
ATOM     16  C   LIG    1       28.588 -20.820   7.136  0.00  0.00    +0.043 A 
ATOM     17  C   LIG    1       29.935 -20.429   7.271  0.00  0.00    +0.124 A 
ATOM     18  C   LIG    1       30.456 -19.419   6.462  0.00  0.00    +0.067 A 
ATOM     19 CL   LIG    1       32.084 -18.853   6.550  0.00  0.00    -0.082 Cl
ATOM     20  C   LIG    1       29.629 -18.812   5.508  0.00  0.00    +0.022 A 
ATOM     21  C   LIG    1       28.287 -19.189   5.380  0.00  0.00    +0.014 A 
BRANCH  17  22
ATOM     22  S   LIG    1       30.897 -21.225   8.520  0.00  0.00    +0.057 S 
ATOM     23  O   LIG    1       30.050 -22.160   9.225  0.00  0.00    -0.153 OA
ATOM     24  O   LIG    1       31.676 -20.230   9.225  0.00  0.00    -0.153 OA
BRANCH  22  25
ATOM     25  N   LIG    1       31.974 -22.182   7.668  0.00  0.00    -0.203 NA
ATOM     26  H   LIG    1       32.857 -22.253   8.175  0.00  0.00    +0.144 HD
ATOM     27  H   LIG    1       32.079 -21.812   6.720  0.00  0.00    +0.144 HD
ENDBRANCH  22  25
ENDBRANCH  17  22
ENDBRANCH   3  15
TORSDOF 4
ENDMDL
