MODEL 1
REMARK VINA RESULT:      -3.8      0.000      0.000
REMARK  Name = *****
REMARK                            x       y       z     vdW  Elec       q    Type
REMARK                         _______ _______ _______ _____ _____    ______ ____
ROOT
ATOM      1  C   LIG    1       24.968 -12.858   3.417  0.00  0.00    +0.286 A 
ATOM      2  C   LIG    1       26.280 -12.451   3.677  0.00  0.00    +0.172 A 
ATOM      3  C   LIG    1       27.254 -13.434   3.898  0.00  0.00    +0.327 A 
ATOM      4  C   LIG    1       26.963 -14.804   3.856  0.00  0.00    +0.274 A 
ATOM      5  C   LIG    1       25.638 -15.189   3.590  0.00  0.00    +0.327 A 
ATOM      6  C   LIG    1       24.637 -14.221   3.374  0.00  0.00    +0.172 A 
ENDROOT
BRANCH   1   8
ATOM      7  O   LIG    1       23.276 -11.464   4.167  0.00  0.00    +0.041 OA
ATOM      8  N   LIG    1       23.924 -11.848   3.187  0.00  0.00    +0.080 N 
ATOM      9  O   LIG    1       23.766 -11.447   2.027  0.00  0.00    -0.576 OA
ENDBRANCH   1   8
BRANCH   3  10
ATOM     10  N   LIG    1       28.606 -12.984   4.170  0.00  0.00    +0.084 N 
ATOM     11  O   LIG    1       29.475 -13.327   3.358  0.00  0.00    -0.576 OA
ATOM     12  O   LIG    1       28.769 -12.230   5.137  0.00  0.00    +0.042 OA
ENDBRANCH   3  10
BRANCH   5  13
ATOM     13  N   LIG    1       25.261 -16.607   3.518  0.00  0.00    +0.084 N 
ATOM     14  O   LIG    1       26.062 -17.380   2.971  0.00  0.00    -0.576 OA
ATOM     15  O   LIG    1       24.174 -16.943   4.002  0.00  0.00    +0.042 OA
ENDBRANCH   5  13
BRANCH   4  16
ATOM     16  O   LIG    1       27.990 -15.686   4.051  0.00  0.00    -0.497 OA
ATOM     17  H   LIG    1       28.317 -15.667   4.978  0.00  0.00    +0.293 HD
ENDBRANCH   4  16
TORSDOF 4
ENDMDL
MODEL 2
REMARK VINA RESULT:      -3.6      0.213      3.842
REMARK  Name = *****
REMARK                            x       y       z     vdW  Elec       q    Type
REMARK                         _______ _______ _______ _____ _____    ______ ____
ROOT
ATOM      1  C   LIG    1       24.893 -12.878   3.644  0.00  0.00    +0.286 A 
ATOM      2  C   LIG    1       24.567 -14.233   3.539  0.00  0.00    +0.172 A 
ATOM      3  C   LIG    1       25.598 -15.177   3.637  0.00  0.00    +0.327 A 
ATOM      4  C   LIG    1       26.935 -14.814   3.847  0.00  0.00    +0.274 A 
ATOM      5  C   LIG    1       27.236 -13.444   3.951  0.00  0.00    +0.327 A 
ATOM      6  C   LIG    1       26.221 -12.473   3.847  0.00  0.00    +0.172 A 
ENDROOT
BRANCH   1   8
ATOM      7  O   LIG    1       23.506 -11.494   2.405  0.00  0.00    +0.041 OA
ATOM      8  N   LIG    1       23.832 -11.864   3.539  0.00  0.00    +0.080 N 
ATOM      9  O   LIG    1       23.333 -11.450   4.593  0.00  0.00    -0.576 OA
ENDBRANCH   1   8
BRANCH   3  10
ATOM     10  N   LIG    1       25.234 -16.577   3.521  0.00  0.00    +0.084 N 
ATOM     11  O   LIG    1       24.133 -16.900   3.986  0.00  0.00    -0.576 OA
ATOM     12  O   LIG    1       26.007 -17.314   2.897  0.00  0.00    +0.042 OA
ENDBRANCH   3  10
BRANCH   5  13
ATOM     13  N   LIG    1       28.613 -12.988   4.184  0.00  0.00    +0.084 N 
ATOM     14  O   LIG    1       29.475 -13.341   3.364  0.00  0.00    -0.576 OA
ATOM     15  O   LIG    1       28.830 -12.285   5.177  0.00  0.00    +0.042 OA
ENDBRANCH   5  13
BRANCH   4  16
ATOM     16  O   LIG    1       27.863 -15.811   3.963  0.00  0.00    -0.497 OA
ATOM     17  H   LIG    1       28.178 -15.911   4.888  0.00  0.00    +0.293 HD
ENDBRANCH   4  16
TORSDOF 4
ENDMDL
MODEL 3
REMARK VINA RESULT:      -3.5      0.814      3.944
REMARK  Name = *****
REMARK                            x       y       z     vdW  Elec       q    Type
REMARK                         _______ _______ _______ _____ _____    ______ ____
ROOT
ATOM      1  C   LIG    1       27.303 -13.416   3.904  0.00  0.00    +0.286 A 
ATOM      2  C   LIG    1       26.257 -12.497   4.027  0.00  0.00    +0.172 A 
ATOM      3  C   LIG    1       24.940 -12.968   3.944  0.00  0.00    +0.327 A 
ATOM      4  C   LIG    1       24.636 -14.323   3.755  0.00  0.00    +0.274 A 
ATOM      5  C   LIG    1       25.705 -15.228   3.638  0.00  0.00    +0.327 A 
ATOM      6  C   LIG    1       27.039 -14.780   3.708  0.00  0.00    +0.172 A 
ENDROOT
BRANCH   1   8
ATOM      7  O   LIG    1       29.472 -13.318   3.093  0.00  0.00    +0.041 OA
ATOM      8  N   LIG    1       28.696 -12.949   3.982  0.00  0.00    +0.080 N 
ATOM      9  O   LIG    1       28.998 -12.214   4.931  0.00  0.00    -0.576 OA
ENDBRANCH   1   8
BRANCH   3  10
ATOM     10  N   LIG    1       23.873 -11.993   4.069  0.00  0.00    +0.084 N 
ATOM     11  O   LIG    1       23.503 -11.727   5.220  0.00  0.00    -0.576 OA
ATOM     12  O   LIG    1       23.480 -11.447   3.032  0.00  0.00    +0.042 OA
ENDBRANCH   3  10
BRANCH   5  13
ATOM     13  N   LIG    1       25.463 -16.665   3.452  0.00  0.00    +0.084 N 
ATOM     14  O   LIG    1       26.399 -17.345   3.003  0.00  0.00    -0.576 OA
ATOM     15  O   LIG    1       24.349 -17.109   3.751  0.00  0.00    +0.042 OA
ENDBRANCH   5  13
BRANCH   4  16
ATOM     16  O   LIG    1       23.318 -14.689   3.722  0.00  0.00    -0.497 OA
ATOM     17  H   LIG    1       22.745 -14.030   4.173  0.00  0.00    +0.293 HD
ENDBRANCH   4  16
TORSDOF 4
ENDMDL
MODEL 4
REMARK VINA RESULT:      -2.7      3.299      4.905
REMARK  Name = *****
REMARK                            x       y       z     vdW  Elec       q    Type
REMARK                         _______ _______ _______ _____ _____    ______ ____
ROOT
ATOM      1  C   LIG    1       26.910 -16.596   3.681  0.00  0.00    +0.286 A 
ATOM      2  C   LIG    1       27.908 -17.221   4.435  0.00  0.00    +0.172 A 
ATOM      3  C   LIG    1       27.711 -18.549   4.834  0.00  0.00    +0.327 A 
ATOM      4  C   LIG    1       26.560 -19.274   4.497  0.00  0.00    +0.274 A 
ATOM      5  C   LIG    1       25.573 -18.625   3.735  0.00  0.00    +0.327 A 
ATOM      6  C   LIG    1       25.741 -17.286   3.328  0.00  0.00    +0.172 A 
ENDROOT
BRANCH   1   8
ATOM      7  O   LIG    1       27.836 -14.486   3.930  0.00  0.00    +0.041 OA
ATOM      8  N   LIG    1       27.088 -15.200   3.252  0.00  0.00    +0.080 N 
ATOM      9  O   LIG    1       26.479 -14.833   2.239  0.00  0.00    -0.576 OA
ENDBRANCH   1   8
BRANCH   3  10
ATOM     10  N   LIG    1       28.760 -19.173   5.620  0.00  0.00    +0.084 N 
ATOM     11  O   LIG    1       29.475 -18.413   6.286  0.00  0.00    -0.576 OA
ATOM     12  O   LIG    1       28.803 -20.409   5.629  0.00  0.00    +0.042 OA
ENDBRANCH   3  10
BRANCH   5  13
ATOM     13  N   LIG    1       24.346 -19.325   3.333  0.00  0.00    +0.084 N 
ATOM     14  O   LIG    1       23.273 -18.715   3.468  0.00  0.00    -0.576 OA
ATOM     15  O   LIG    1       24.453 -20.473   2.887  0.00  0.00    +0.042 OA
ENDBRANCH   5  13
BRANCH   4  16
ATOM     16  O   LIG    1       26.476 -20.576   4.905  0.00  0.00    -0.497 OA
ATOM     17  H   LIG    1       26.975 -20.731   5.738  0.00  0.00    +0.293 HD
ENDBRANCH   4  16
TORSDOF 4
ENDMDL
MODEL 5
REMARK VINA RESULT:      -2.6      3.865      5.631
REMARK  Name = *****
REMARK                            x       y       z     vdW  Elec       q    Type
REMARK                         _______ _______ _______ _____ _____    ______ ____
ROOT
ATOM      1  C   LIG    1       26.715 -17.432   3.973  0.00  0.00    +0.286 A 
ATOM      2  C   LIG    1       27.649 -18.131   4.744  0.00  0.00    +0.172 A 
ATOM      3  C   LIG    1       27.339 -19.437   5.146  0.00  0.00    +0.327 A 
ATOM      4  C   LIG    1       26.139 -20.069   4.794  0.00  0.00    +0.274 A 
ATOM      5  C   LIG    1       25.218 -19.346   4.016  0.00  0.00    +0.327 A 
ATOM      6  C   LIG    1       25.499 -18.028   3.606  0.00  0.00    +0.172 A 
ENDROOT
BRANCH   1   8
ATOM      7  O   LIG    1       27.961 -15.480   4.084  0.00  0.00    +0.041 OA
ATOM      8  N   LIG    1       27.011 -16.057   3.542  0.00  0.00    +0.080 N 
ATOM      9  O   LIG    1       26.290 -15.569   2.662  0.00  0.00    -0.576 OA
ENDBRANCH   1   8
BRANCH   3  10
ATOM     10  N   LIG    1       28.324 -20.139   5.949  0.00  0.00    +0.084 N 
ATOM     11  O   LIG    1       29.475 -19.684   5.931  0.00  0.00    -0.576 OA
ATOM     12  O   LIG    1       27.921 -21.076   6.647  0.00  0.00    +0.042 OA
ENDBRANCH   3  10
BRANCH   5  13
ATOM     13  N   LIG    1       23.944 -19.948   3.598  0.00  0.00    +0.084 N 
ATOM     14  O   LIG    1       23.966 -21.137   3.245  0.00  0.00    -0.576 OA
ATOM     15  O   LIG    1       22.933 -19.237   3.622  0.00  0.00    +0.042 OA
ENDBRANCH   5  13
BRANCH   4  16
ATOM     16  O   LIG    1       25.945 -21.358   5.206  0.00  0.00    -0.497 OA
ATOM     17  H   LIG    1       26.448 -21.559   6.027  0.00  0.00    +0.293 HD
ENDBRANCH   4  16
TORSDOF 4
ENDMDL
MODEL 6
REMARK VINA RESULT:      -2.5      4.475      6.908
REMARK  Name = *****
REMARK                            x       y       z     vdW  Elec       q    Type
REMARK                         _______ _______ _______ _____ _____    ______ ____
ROOT
ATOM      1  C   LIG    1       25.473 -20.358   4.874  0.00  0.00    +0.286 A 
ATOM      2  C   LIG    1       26.562 -20.753   5.656  0.00  0.00    +0.172 A 
ATOM      3  C   LIG    1       27.687 -19.919   5.706  0.00  0.00    +0.327 A 
ATOM      4  C   LIG    1       27.754 -18.704   5.012  0.00  0.00    +0.274 A 
ATOM      5  C   LIG    1       26.645 -18.328   4.233  0.00  0.00    +0.327 A 
ATOM      6  C   LIG    1       25.505 -19.152   4.158  0.00  0.00    +0.172 A 
ENDROOT
BRANCH   1   8
ATOM      7  O   LIG    1       23.881 -21.542   3.674  0.00  0.00    +0.041 OA
ATOM      8  N   LIG    1       24.281 -21.217   4.798  0.00  0.00    +0.080 N 
ATOM      9  O   LIG    1       23.759 -21.561   5.867  0.00  0.00    -0.576 OA
ENDBRANCH   1   8
BRANCH   3  10
ATOM     10  N   LIG    1       28.805 -20.354   6.522  0.00  0.00    +0.084 N 
ATOM     11  O   LIG    1       29.473 -19.462   7.061  0.00  0.00    -0.576 OA
ATOM     12  O   LIG    1       28.949 -21.572   6.682  0.00  0.00    +0.042 OA
ENDBRANCH   3  10
BRANCH   5  13
ATOM     13  N   LIG    1       26.638 -17.062   3.488  0.00  0.00    +0.084 N 
ATOM     14  O   LIG    1       25.714 -16.884   2.680  0.00  0.00    -0.576 OA
ATOM     15  O   LIG    1       27.548 -16.255   3.708  0.00  0.00    +0.042 OA
ENDBRANCH   5  13
BRANCH   4  16
ATOM     16  O   LIG    1       28.882 -17.944   5.151  0.00  0.00    -0.497 OA
ATOM     17  H   LIG    1       29.221 -17.631   4.283  0.00  0.00    +0.293 HD
ENDBRANCH   4  16
TORSDOF 4
ENDMDL
MODEL 7
REMARK VINA RESULT:      -2.4      4.478      7.778
REMARK  Name = *****
REMARK                            x       y       z     vdW  Elec       q    Type
REMARK                         _______ _______ _______ _____ _____    ______ ____
ROOT
ATOM      1  C   LIG    1       27.506 -19.976   5.796  0.00  0.00    +0.286 A 
ATOM      2  C   LIG    1       26.386 -20.802   5.665  0.00  0.00    +0.172 A 
ATOM      3  C   LIG    1       25.338 -20.379   4.836  0.00  0.00    +0.327 A 
ATOM      4  C   LIG    1       25.378 -19.171   4.128  0.00  0.00    +0.274 A 
ATOM      5  C   LIG    1       26.517 -18.359   4.275  0.00  0.00    +0.327 A 
ATOM      6  C   LIG    1       27.581 -18.755   5.110  0.00  0.00    +0.172 A 
ENDROOT
BRANCH   1   8
ATOM      7  O   LIG    1       29.473 -19.541   6.944  0.00  0.00    +0.041 OA
ATOM      8  N   LIG    1       28.619 -20.391   6.665  0.00  0.00    +0.080 N 
ATOM      9  O   LIG    1       28.625 -21.564   7.061  0.00  0.00    -0.576 OA
ENDBRANCH   1   8
BRANCH   3  10
ATOM     10  N   LIG    1       24.186 -21.253   4.720  0.00  0.00    +0.084 N 
ATOM     11  O   LIG    1       23.627 -21.571   5.779  0.00  0.00    -0.576 OA
ATOM     12  O   LIG    1       23.804 -21.540   3.580  0.00  0.00    +0.042 OA
ENDBRANCH   3  10
BRANCH   5  13
ATOM     13  N   LIG    1       26.635 -17.084   3.555  0.00  0.00    +0.084 N 
ATOM     14  O   LIG    1       27.706 -16.467   3.664  0.00  0.00    -0.576 OA
ATOM     15  O   LIG    1       25.666 -16.703   2.888  0.00  0.00    +0.042 OA
ENDBRANCH   5  13
BRANCH   4  16
ATOM     16  O   LIG    1       24.320 -18.863   3.318  0.00  0.00    -0.497 OA
ATOM     17  H   LIG    1       23.648 -19.580   3.308  0.00  0.00    +0.293 HD
ENDBRANCH   4  16
TORSDOF 4
ENDMDL
MODEL 8
REMARK VINA RESULT:      -2.4      4.594      6.834
REMARK  Name = *****
REMARK                            x       y       z     vdW  Elec       q    Type
REMARK                         _______ _______ _______ _____ _____    ______ ____
ROOT
ATOM      1  C   LIG    1       25.209 -20.385   5.193  0.00  0.00    +0.286 A 
ATOM      2  C   LIG    1       25.253 -19.293   4.323  0.00  0.00    +0.172 A 
ATOM      3  C   LIG    1       26.437 -18.546   4.246  0.00  0.00    +0.327 A 
ATOM      4  C   LIG    1       27.575 -18.861   4.999  0.00  0.00    +0.274 A 
ATOM      5  C   LIG    1       27.507 -19.966   5.866  0.00  0.00    +0.327 A 
ATOM      6  C   LIG    1       26.326 -20.728   5.969  0.00  0.00    +0.172 A 
ENDROOT
BRANCH   1   8
ATOM      7  O   LIG    1       23.637 -21.561   6.425  0.00  0.00    +0.041 OA
ATOM      8  N   LIG    1       23.978 -21.183   5.298  0.00  0.00    +0.080 N 
ATOM      9  O   LIG    1       23.363 -21.422   4.251  0.00  0.00    -0.576 OA
ENDBRANCH   1   8
BRANCH   3  10
ATOM     10  N   LIG    1       26.454 -17.414   3.338  0.00  0.00    +0.084 N 
ATOM     11  O   LIG    1       25.485 -17.304   2.576  0.00  0.00    -0.576 OA
ATOM     12  O   LIG    1       27.386 -16.609   3.454  0.00  0.00    +0.042 OA
ENDBRANCH   3  10
BRANCH   5  13
ATOM     13  N   LIG    1       28.665 -20.365   6.677  0.00  0.00    +0.084 N 
ATOM     14  O   LIG    1       29.473 -19.476   6.989  0.00  0.00    -0.576 OA
ATOM     15  O   LIG    1       28.766 -21.554   6.997  0.00  0.00    +0.042 OA
ENDBRANCH   5  13
BRANCH   4  16
ATOM     16  O   LIG    1       28.693 -18.092   4.829  0.00  0.00    -0.497 OA
ATOM     17  H   LIG    1       29.460 -18.625   4.525  0.00  0.00    +0.293 HD
ENDBRANCH   4  16
TORSDOF 4
ENDMDL
MODEL 9
REMARK VINA RESULT:      -2.3      3.820      6.249
REMARK  Name = *****
REMARK                            x       y       z     vdW  Elec       q    Type
REMARK                         _______ _______ _______ _____ _____    ______ ____
ROOT
ATOM      1  C   LIG    1       25.221 -19.383   4.078  0.00  0.00    +0.286 A 
ATOM      2  C   LIG    1       26.121 -20.119   4.854  0.00  0.00    +0.172 A 
ATOM      3  C   LIG    1       27.348 -19.532   5.192  0.00  0.00    +0.327 A 
ATOM      4  C   LIG    1       27.697 -18.236   4.792  0.00  0.00    +0.274 A 
ATOM      5  C   LIG    1       26.774 -17.515   4.015  0.00  0.00    +0.327 A 
ATOM      6  C   LIG    1       25.538 -18.084   3.653  0.00  0.00    +0.172 A 
ENDROOT
BRANCH   1   8
ATOM      7  O   LIG    1       23.914 -21.177   3.410  0.00  0.00    +0.041 OA
ATOM      8  N   LIG    1       23.928 -19.976   3.703  0.00  0.00    +0.080 N 
ATOM      9  O   LIG    1       22.938 -19.233   3.709  0.00  0.00    -0.576 OA
ENDBRANCH   1   8
BRANCH   3  10
ATOM     10  N   LIG    1       28.265 -20.320   5.994  0.00  0.00    +0.084 N 
ATOM     11  O   LIG    1       29.472 -20.093   5.834  0.00  0.00    -0.576 OA
ATOM     12  O   LIG    1       27.772 -21.088   6.828  0.00  0.00    +0.042 OA
ENDBRANCH   3  10
BRANCH   5  13
ATOM     13  N   LIG    1       27.066 -16.145   3.570  0.00  0.00    +0.084 N 
ATOM     14  O   LIG    1       26.369 -15.686   2.652  0.00  0.00    -0.576 OA
ATOM     15  O   LIG    1       27.984 -15.537   4.132  0.00  0.00    +0.042 OA
ENDBRANCH   5  13
BRANCH   4  16
ATOM     16  O   LIG    1       28.904 -17.739   5.202  0.00  0.00    -0.497 OA
ATOM     17  H   LIG    1       29.475 -18.440   5.587  0.00  0.00    +0.293 HD
ENDBRANCH   4  16
TORSDOF 4
ENDMDL
