MODEL 1
REMARK VINA RESULT:      -5.1      0.000      0.000
REMARK  Name = *****
REMARK                            x       y       z     vdW  Elec       q    Type
REMARK                         _______ _______ _______ _____ _____    ______ ____
ROOT
ATOM      1  C   LIG    1       24.994 -29.925   7.439  0.00  0.00    +0.065 C 
ATOM      2  C   LIG    1       24.985 -31.133   8.399  0.00  0.00    +0.097 C 
ATOM      3  C   LIG    1       26.126 -31.059   9.433  0.00  0.00    +0.065 C 
ATOM      4  C   LIG    1       26.720 -29.866   9.695  0.00  0.00    +0.016 C 
ATOM      5  C   LIG    1       27.833 -29.640  10.686  0.00  0.00    +0.061 C 
ATOM      6  N   LIG    1       26.299 -28.732   9.017  0.00  0.00    -0.321 N 
ATOM      7  H   LIG    1       26.839 -27.884   9.183  0.00  0.00    +0.152 HD
ATOM      8  C   LIG    1       25.578 -28.763   7.830  0.00  0.00    +0.016 C 
ATOM      9  C   LIG    1       25.545 -27.445   7.096  0.00  0.00    +0.061 C 
ENDROOT
BRANCH   2  10
ATOM     10  C   LIG    1       23.611 -31.265   9.099  0.00  0.00    -0.015 A 
ATOM     11  C   LIG    1       22.742 -32.368   8.928  0.00  0.00    +0.063 A 
ATOM     12 CL   LIG    1       23.087 -33.607   7.762  0.00  0.00    -0.082 Cl
ATOM     13  C   LIG    1       21.573 -32.469   9.710  0.00  0.00    +0.059 A 
ATOM     14 CL   LIG    1       20.494 -33.824   9.611  0.00  0.00    -0.082 Cl
ATOM     15  C   LIG    1       21.238 -31.471  10.627  0.00  0.00    +0.021 A 
ATOM     16  C   LIG    1       22.051 -30.355  10.763  0.00  0.00    +0.002 A 
ATOM     17  C   LIG    1       23.220 -30.255  10.010  0.00  0.00    +0.006 A 
ENDBRANCH   2  10
BRANCH   1  18
ATOM     18  C   LIG    1       24.415 -30.110   6.082  0.00  0.00    +0.338 C 
ATOM     19  O   LIG    1       23.258 -29.857   5.769  0.00  0.00    -0.245 OA
BRANCH  18  20
ATOM     20  O   LIG    1       25.361 -30.565   5.229  0.00  0.00    -0.462 OA
BRANCH  20  22
ATOM     21  C   LIG    1       26.622 -32.618   5.387  0.00  0.00    +0.048 C 
ATOM     22  C   LIG    1       25.337 -31.965   4.913  0.00  0.00    +0.229 C 
ENDBRANCH  20  22
ENDBRANCH  18  20
ENDBRANCH   1  18
BRANCH   3  23
ATOM     23  C   LIG    1       26.500 -32.362  10.053  0.00  0.00    +0.337 C 
ATOM     24  O   LIG    1       27.235 -33.184   9.516  0.00  0.00    -0.245 OA
BRANCH  23  25
ATOM     25  O   LIG    1       25.970 -32.475  11.288  0.00  0.00    -0.465 OA
ATOM     26  C   LIG    1       25.065 -33.550  11.552  0.00  0.00    +0.280 C 
ENDBRANCH  23  25
ENDBRANCH   3  23
TORSDOF 6
ENDMDL
MODEL 2
REMARK VINA RESULT:      -5.0      7.769     10.663
REMARK  Name = *****
REMARK                            x       y       z     vdW  Elec       q    Type
REMARK                         _______ _______ _______ _____ _____    ______ ____
ROOT
ATOM      1  C   LIG    1       26.532 -20.719   6.441  0.00  0.00    +0.065 C 
ATOM      2  C   LIG    1       25.165 -21.435   6.428  0.00  0.00    +0.097 C 
ATOM      3  C   LIG    1       24.164 -20.752   5.475  0.00  0.00    +0.065 C 
ATOM      4  C   LIG    1       24.621 -19.937   4.489  0.00  0.00    +0.016 C 
ATOM      5  C   LIG    1       23.765 -19.216   3.480  0.00  0.00    +0.061 C 
ATOM      6  N   LIG    1       25.985 -19.721   4.362  0.00  0.00    -0.321 N 
ATOM      7  H   LIG    1       26.267 -19.032   3.667  0.00  0.00    +0.152 HD
ATOM      8  C   LIG    1       26.905 -19.967   5.373  0.00  0.00    +0.016 C 
ATOM      9  C   LIG    1       28.254 -19.330   5.146  0.00  0.00    +0.061 C 
ENDROOT
BRANCH   2  10
ATOM     10  C   LIG    1       25.334 -22.931   6.072  0.00  0.00    -0.015 A 
ATOM     11  C   LIG    1       25.732 -23.922   6.999  0.00  0.00    +0.063 A 
ATOM     12 CL   LIG    1       26.232 -23.495   8.606  0.00  0.00    -0.082 Cl
ATOM     13  C   LIG    1       25.728 -25.281   6.621  0.00  0.00    +0.059 A 
ATOM     14 CL   LIG    1       26.132 -26.561   7.720  0.00  0.00    -0.082 Cl
ATOM     15  C   LIG    1       25.375 -25.661   5.325  0.00  0.00    +0.021 A 
ATOM     16  C   LIG    1       25.039 -24.695   4.387  0.00  0.00    +0.002 A 
ATOM     17  C   LIG    1       25.019 -23.350   4.756  0.00  0.00    +0.006 A 
ENDBRANCH   2  10
BRANCH   1  18
ATOM     18  C   LIG    1       27.363 -20.830   7.669  0.00  0.00    +0.338 C 
ATOM     19  O   LIG    1       27.065 -20.373   8.766  0.00  0.00    -0.245 OA
BRANCH  18  20
ATOM     20  O   LIG    1       28.483 -21.544   7.411  0.00  0.00    -0.462 OA
BRANCH  20  22
ATOM     21  C   LIG    1       30.479 -20.248   7.818  0.00  0.00    +0.048 C 
ATOM     22  C   LIG    1       29.587 -21.372   8.312  0.00  0.00    +0.229 C 
ENDBRANCH  20  22
ENDBRANCH  18  20
ENDBRANCH   1  18
BRANCH   3  23
ATOM     23  C   LIG    1       22.729 -21.043   5.755  0.00  0.00    +0.337 C 
ATOM     24  O   LIG    1       21.811 -20.707   5.014  0.00  0.00    -0.245 OA
BRANCH  23  25
ATOM     25  O   LIG    1       22.597 -21.763   6.886  0.00  0.00    -0.465 OA
ATOM     26  C   LIG    1       22.119 -23.108   6.795  0.00  0.00    +0.280 C 
ENDBRANCH  23  25
ENDBRANCH   3  23
TORSDOF 6
ENDMDL
MODEL 3
REMARK VINA RESULT:      -4.9      8.226     11.513
REMARK  Name = *****
REMARK                            x       y       z     vdW  Elec       q    Type
REMARK                         _______ _______ _______ _____ _____    ______ ____
ROOT
ATOM      1  C   LIG    1       24.579 -22.867   5.913  0.00  0.00    +0.065 C 
ATOM      2  C   LIG    1       25.399 -21.671   5.385  0.00  0.00    +0.097 C 
ATOM      3  C   LIG    1       24.505 -20.610   4.714  0.00  0.00    +0.065 C 
ATOM      4  C   LIG    1       23.175 -20.576   4.991  0.00  0.00    +0.016 C 
ATOM      5  C   LIG    1       22.187 -19.591   4.422  0.00  0.00    +0.061 C 
ATOM      6  N   LIG    1       22.639 -21.508   5.866  0.00  0.00    -0.321 N 
ATOM      7  H   LIG    1       21.625 -21.496   5.966  0.00  0.00    +0.152 HD
ATOM      8  C   LIG    1       23.263 -22.702   6.204  0.00  0.00    +0.016 C 
ATOM      9  C   LIG    1       22.353 -23.705   6.870  0.00  0.00    +0.061 C 
ENDROOT
BRANCH   2  10
ATOM     10  C   LIG    1       26.245 -21.044   6.519  0.00  0.00    -0.015 A 
ATOM     11  C   LIG    1       27.481 -20.390   6.310  0.00  0.00    +0.063 A 
ATOM     12 CL   LIG    1       28.239 -20.387   4.748  0.00  0.00    -0.082 Cl
ATOM     13  C   LIG    1       28.117 -19.730   7.382  0.00  0.00    +0.059 A 
ATOM     14 CL   LIG    1       29.596 -18.844   7.191  0.00  0.00    -0.082 Cl
ATOM     15  C   LIG    1       27.561 -19.747   8.663  0.00  0.00    +0.021 A 
ATOM     16  C   LIG    1       26.379 -20.435   8.895  0.00  0.00    +0.002 A 
ATOM     17  C   LIG    1       25.731 -21.074   7.838  0.00  0.00    +0.006 A 
ENDBRANCH   2  10
BRANCH   1  18
ATOM     18  C   LIG    1       25.261 -24.185   6.018  0.00  0.00    +0.338 C 
ATOM     19  O   LIG    1       25.870 -24.587   7.002  0.00  0.00    -0.245 OA
BRANCH  18  20
ATOM     20  O   LIG    1       25.079 -24.896   4.882  0.00  0.00    -0.462 OA
BRANCH  20  22
ATOM     21  C   LIG    1       24.407 -27.115   5.555  0.00  0.00    +0.048 C 
ATOM     22  C   LIG    1       25.487 -26.272   4.901  0.00  0.00    +0.229 C 
ENDBRANCH  20  22
ENDBRANCH  18  20
ENDBRANCH   1  18
BRANCH   3  23
ATOM     23  C   LIG    1       25.210 -19.700   3.766  0.00  0.00    +0.337 C 
ATOM     24  O   LIG    1       25.629 -20.054   2.669  0.00  0.00    -0.245 OA
BRANCH  23  25
ATOM     25  O   LIG    1       25.267 -18.446   4.258  0.00  0.00    -0.465 OA
ATOM     26  C   LIG    1       25.832 -17.413   3.446  0.00  0.00    +0.280 C 
ENDBRANCH  23  25
ENDBRANCH   3  23
TORSDOF 6
ENDMDL
MODEL 4
REMARK VINA RESULT:      -4.8      2.020      4.922
REMARK  Name = *****
REMARK                            x       y       z     vdW  Elec       q    Type
REMARK                         _______ _______ _______ _____ _____    ______ ____
ROOT
ATOM      1  C   LIG    1       26.221 -31.657   9.089  0.00  0.00    +0.065 C 
ATOM      2  C   LIG    1       25.031 -30.849   8.533  0.00  0.00    +0.097 C 
ATOM      3  C   LIG    1       25.037 -30.798   6.992  0.00  0.00    +0.065 C 
ATOM      4  C   LIG    1       25.739 -31.726   6.290  0.00  0.00    +0.016 C 
ATOM      5  C   LIG    1       25.825 -31.807   4.788  0.00  0.00    +0.061 C 
ATOM      6  N   LIG    1       26.453 -32.698   6.973  0.00  0.00    -0.321 N 
ATOM      7  H   LIG    1       27.035 -33.310   6.403  0.00  0.00    +0.152 HD
ATOM      8  C   LIG    1       26.817 -32.597   8.310  0.00  0.00    +0.016 C 
ATOM      9  C   LIG    1       27.879 -33.581   8.735  0.00  0.00    +0.061 C 
ENDROOT
BRANCH   2  10
ATOM     10  C   LIG    1       23.691 -31.412   9.062  0.00  0.00    -0.015 A 
ATOM     11  C   LIG    1       22.935 -30.808  10.093  0.00  0.00    +0.063 A 
ATOM     12 CL   LIG    1       23.553 -29.447  10.977  0.00  0.00    -0.082 Cl
ATOM     13  C   LIG    1       21.659 -31.315  10.419  0.00  0.00    +0.059 A 
ATOM     14 CL   LIG    1       20.640 -30.587  11.620  0.00  0.00    -0.082 Cl
ATOM     15  C   LIG    1       21.146 -32.435   9.761  0.00  0.00    +0.021 A 
ATOM     16  C   LIG    1       21.902 -33.073   8.788  0.00  0.00    +0.002 A 
ATOM     17  C   LIG    1       23.155 -32.568   8.444  0.00  0.00    +0.006 A 
ENDBRANCH   2  10
BRANCH   1  18
ATOM     18  C   LIG    1       26.715 -31.320  10.451  0.00  0.00    +0.338 C 
ATOM     19  O   LIG    1       26.257 -31.764  11.497  0.00  0.00    -0.245 OA
BRANCH  18  20
ATOM     20  O   LIG    1       27.772 -30.480  10.369  0.00  0.00    -0.462 OA
BRANCH  20  22
ATOM     21  C   LIG    1       26.938 -28.249  10.762  0.00  0.00    +0.048 C 
ATOM     22  C   LIG    1       27.802 -29.379  11.290  0.00  0.00    +0.229 C 
ENDBRANCH  20  22
ENDBRANCH  18  20
ENDBRANCH   1  18
BRANCH   3  23
ATOM     23  C   LIG    1       24.259 -29.674   6.395  0.00  0.00    +0.337 C 
ATOM     24  O   LIG    1       23.224 -29.829   5.756  0.00  0.00    -0.245 OA
BRANCH  23  25
ATOM     25  O   LIG    1       24.818 -28.487   6.704  0.00  0.00    -0.465 OA
ATOM     26  C   LIG    1       24.381 -27.318   6.006  0.00  0.00    +0.280 C 
ENDBRANCH  23  25
ENDBRANCH   3  23
TORSDOF 6
ENDMDL
MODEL 5
REMARK VINA RESULT:      -4.7      2.867      4.729
REMARK  Name = *****
REMARK                            x       y       z     vdW  Elec       q    Type
REMARK                         _______ _______ _______ _____ _____    ______ ____
ROOT
ATOM      1  C   LIG    1       24.659 -29.711   7.385  0.00  0.00    +0.065 C 
ATOM      2  C   LIG    1       24.141 -30.011   8.807  0.00  0.00    +0.097 C 
ATOM      3  C   LIG    1       23.584 -31.443   8.929  0.00  0.00    +0.065 C 
ATOM      4  C   LIG    1       23.949 -32.387   8.022  0.00  0.00    +0.016 C 
ATOM      5  C   LIG    1       23.496 -33.824   8.023  0.00  0.00    +0.061 C 
ATOM      6  N   LIG    1       24.808 -32.042   6.990  0.00  0.00    -0.321 N 
ATOM      7  H   LIG    1       24.975 -32.762   6.287  0.00  0.00    +0.152 HD
ATOM      8  C   LIG    1       25.043 -30.736   6.581  0.00  0.00    +0.016 C 
ATOM      9  C   LIG    1       25.715 -30.624   5.235  0.00  0.00    +0.061 C 
ENDROOT
BRANCH   2  10
ATOM     10  C   LIG    1       25.247 -29.756   9.858  0.00  0.00    -0.015 A 
ATOM     11  C   LIG    1       24.994 -29.325  11.181  0.00  0.00    +0.063 A 
ATOM     12 CL   LIG    1       23.393 -28.878  11.685  0.00  0.00    -0.082 Cl
ATOM     13  C   LIG    1       26.051 -29.249  12.111  0.00  0.00    +0.059 A 
ATOM     14 CL   LIG    1       25.810 -28.799  13.769  0.00  0.00    -0.082 Cl
ATOM     15  C   LIG    1       27.359 -29.558  11.732  0.00  0.00    +0.021 A 
ATOM     16  C   LIG    1       27.632 -29.926  10.422  0.00  0.00    +0.002 A 
ATOM     17  C   LIG    1       26.591 -30.024   9.500  0.00  0.00    +0.006 A 
ENDBRANCH   2  10
BRANCH   1  18
ATOM     18  C   LIG    1       24.652 -28.296   6.926  0.00  0.00    +0.338 C 
ATOM     19  O   LIG    1       23.735 -27.757   6.319  0.00  0.00    -0.245 OA
BRANCH  18  20
ATOM     20  O   LIG    1       25.792 -27.676   7.309  0.00  0.00    -0.462 OA
BRANCH  20  22
ATOM     21  C   LIG    1       25.850 -25.322   6.779  0.00  0.00    +0.048 C 
ATOM     22  C   LIG    1       26.342 -26.707   6.404  0.00  0.00    +0.229 C 
ENDBRANCH  20  22
ENDBRANCH  18  20
ENDBRANCH   1  18
BRANCH   3  23
ATOM     23  C   LIG    1       22.640 -31.658  10.063  0.00  0.00    +0.337 C 
ATOM     24  O   LIG    1       22.922 -32.303  11.067  0.00  0.00    -0.245 OA
BRANCH  23  25
ATOM     25  O   LIG    1       21.479 -31.007   9.851  0.00  0.00    -0.465 OA
ATOM     26  C   LIG    1       20.413 -31.177  10.788  0.00  0.00    +0.280 C 
ENDBRANCH  23  25
ENDBRANCH   3  23
TORSDOF 6
ENDMDL
MODEL 6
REMARK VINA RESULT:      -4.6      2.669      4.558
REMARK  Name = *****
REMARK                            x       y       z     vdW  Elec       q    Type
REMARK                         _______ _______ _______ _____ _____    ______ ____
ROOT
ATOM      1  C   LIG    1       25.656 -32.236   7.627  0.00  0.00    +0.065 C 
ATOM      2  C   LIG    1       24.661 -31.181   8.151  0.00  0.00    +0.097 C 
ATOM      3  C   LIG    1       24.357 -31.367   9.650  0.00  0.00    +0.065 C 
ATOM      4  C   LIG    1       25.216 -32.076  10.429  0.00  0.00    +0.016 C 
ATOM      5  C   LIG    1       25.055 -32.328  11.906  0.00  0.00    +0.061 C 
ATOM      6  N   LIG    1       26.349 -32.633   9.858  0.00  0.00    -0.321 N 
ATOM      7  H   LIG    1       26.909 -33.230  10.465  0.00  0.00    +0.152 HD
ATOM      8  C   LIG    1       26.504 -32.847   8.494  0.00  0.00    +0.016 C 
ATOM      9  C   LIG    1       27.639 -33.778   8.143  0.00  0.00    +0.061 C 
ENDROOT
BRANCH   2  10
ATOM     10  C   LIG    1       25.178 -29.751   7.865  0.00  0.00    -0.015 A 
ATOM     11  C   LIG    1       24.739 -28.955   6.783  0.00  0.00    +0.063 A 
ATOM     12 CL   LIG    1       23.681 -29.602   5.567  0.00  0.00    -0.082 Cl
ATOM     13  C   LIG    1       25.163 -27.614   6.678  0.00  0.00    +0.059 A 
ATOM     14 CL   LIG    1       24.612 -26.552   5.422  0.00  0.00    -0.082 Cl
ATOM     15  C   LIG    1       26.048 -27.069   7.611  0.00  0.00    +0.021 A 
ATOM     16  C   LIG    1       26.534 -27.856   8.645  0.00  0.00    +0.002 A 
ATOM     17  C   LIG    1       26.104 -29.177   8.770  0.00  0.00    +0.006 A 
ENDBRANCH   2  10
BRANCH   1  18
ATOM     18  C   LIG    1       25.596 -32.593   6.184  0.00  0.00    +0.338 C 
ATOM     19  O   LIG    1       26.270 -32.076   5.302  0.00  0.00    -0.245 OA
BRANCH  18  20
ATOM     20  O   LIG    1       24.715 -33.601   5.990  0.00  0.00    -0.462 OA
BRANCH  20  22
ATOM     21  C   LIG    1       23.697 -33.813   3.811  0.00  0.00    +0.048 C 
ATOM     22  C   LIG    1       23.536 -33.299   5.230  0.00  0.00    +0.229 C 
ENDBRANCH  20  22
ENDBRANCH  18  20
ENDBRANCH   1  18
BRANCH   3  23
ATOM     23  C   LIG    1       23.083 -30.748  10.117  0.00  0.00    +0.337 C 
ATOM     24  O   LIG    1       23.030 -29.851  10.952  0.00  0.00    -0.245 OA
BRANCH  23  25
ATOM     25  O   LIG    1       22.027 -31.268   9.459  0.00  0.00    -0.465 OA
ATOM     26  C   LIG    1       21.396 -32.438   9.986  0.00  0.00    +0.280 C 
ENDBRANCH  23  25
ENDBRANCH   3  23
TORSDOF 6
ENDMDL
MODEL 7
REMARK VINA RESULT:      -4.5      3.480      6.030
REMARK  Name = *****
REMARK                            x       y       z     vdW  Elec       q    Type
REMARK                         _______ _______ _______ _____ _____    ______ ____
ROOT
ATOM      1  C   LIG    1       25.401 -31.433  12.688  0.00  0.00    +0.065 C 
ATOM      2  C   LIG    1       24.870 -30.482  11.595  0.00  0.00    +0.097 C 
ATOM      3  C   LIG    1       24.684 -31.200  10.244  0.00  0.00    +0.065 C 
ATOM      4  C   LIG    1       24.580 -32.555  10.210  0.00  0.00    +0.016 C 
ATOM      5  C   LIG    1       24.384 -33.387   8.969  0.00  0.00    +0.061 C 
ATOM      6  N   LIG    1       24.656 -33.273  11.394  0.00  0.00    -0.321 N 
ATOM      7  H   LIG    1       24.665 -34.287  11.302  0.00  0.00    +0.152 HD
ATOM      8  C   LIG    1       25.194 -32.770  12.571  0.00  0.00    +0.016 C 
ATOM      9  C   LIG    1       25.500 -33.825  13.607  0.00  0.00    +0.061 C 
ENDROOT
BRANCH   2  10
ATOM     10  C   LIG    1       23.553 -29.808  12.049  0.00  0.00    -0.015 A 
ATOM     11  C   LIG    1       23.481 -28.506  12.596  0.00  0.00    +0.063 A 
ATOM     12 CL   LIG    1       24.922 -27.609  12.962  0.00  0.00    -0.082 Cl
ATOM     13  C   LIG    1       22.225 -27.921  12.856  0.00  0.00    +0.059 A 
ATOM     14 CL   LIG    1       22.051 -26.303  13.457  0.00  0.00    -0.082 Cl
ATOM     15  C   LIG    1       21.044 -28.627  12.615  0.00  0.00    +0.021 A 
ATOM     16  C   LIG    1       21.101 -29.927  12.134  0.00  0.00    +0.002 A 
ATOM     17  C   LIG    1       22.337 -30.508  11.855  0.00  0.00    +0.006 A 
ENDBRANCH   2  10
BRANCH   1  18
ATOM     18  C   LIG    1       26.187 -30.841  13.803  0.00  0.00    +0.338 C 
ATOM     19  O   LIG    1       25.721 -30.465  14.872  0.00  0.00    -0.245 OA
BRANCH  18  20
ATOM     20  O   LIG    1       27.501 -30.811  13.484  0.00  0.00    -0.462 OA
BRANCH  20  22
ATOM     21  C   LIG    1       28.389 -29.347  11.782  0.00  0.00    +0.048 C 
ATOM     22  C   LIG    1       28.089 -29.521  13.260  0.00  0.00    +0.229 C 
ENDBRANCH  20  22
ENDBRANCH  18  20
ENDBRANCH   1  18
BRANCH   3  23
ATOM     23  C   LIG    1       24.661 -30.305   9.052  0.00  0.00    +0.337 C 
ATOM     24  O   LIG    1       23.631 -29.948   8.491  0.00  0.00    -0.245 OA
BRANCH  23  25
ATOM     25  O   LIG    1       25.908 -29.909   8.725  0.00  0.00    -0.465 OA
ATOM     26  C   LIG    1       26.240 -28.522   8.835  0.00  0.00    +0.280 C 
ENDBRANCH  23  25
ENDBRANCH   3  23
TORSDOF 6
ENDMDL
MODEL 8
REMARK VINA RESULT:      -4.4      1.922      2.647
REMARK  Name = *****
REMARK                            x       y       z     vdW  Elec       q    Type
REMARK                         _______ _______ _______ _____ _____    ______ ____
ROOT
ATOM      1  C   LIG    1       25.250 -30.254   9.519  0.00  0.00    +0.065 C 
ATOM      2  C   LIG    1       24.613 -31.173  10.582  0.00  0.00    +0.097 C 
ATOM      3  C   LIG    1       25.431 -31.197  11.889  0.00  0.00    +0.065 C 
ATOM      4  C   LIG    1       26.302 -30.190  12.157  0.00  0.00    +0.016 C 
ATOM      5  C   LIG    1       27.154 -30.075  13.395  0.00  0.00    +0.061 C 
ATOM      6  N   LIG    1       26.453 -29.160  11.242  0.00  0.00    -0.321 N 
ATOM      7  H   LIG    1       27.184 -28.481  11.449  0.00  0.00    +0.152 HD
ATOM      8  C   LIG    1       26.070 -29.245   9.910  0.00  0.00    +0.016 C 
ATOM      9  C   LIG    1       26.650 -28.162   9.032  0.00  0.00    +0.061 C 
ENDROOT
BRANCH   2  10
ATOM     10  C   LIG    1       23.147 -30.762  10.854  0.00  0.00    -0.015 A 
ATOM     11  C   LIG    1       22.026 -31.434  10.314  0.00  0.00    +0.063 A 
ATOM     12 CL   LIG    1       22.222 -32.700   9.142  0.00  0.00    -0.082 Cl
ATOM     13  C   LIG    1       20.725 -31.075  10.724  0.00  0.00    +0.059 A 
ATOM     14 CL   LIG    1       19.305 -31.898  10.163  0.00  0.00    -0.082 Cl
ATOM     15  C   LIG    1       20.525 -30.032  11.631  0.00  0.00    +0.021 A 
ATOM     16  C   LIG    1       21.612 -29.325  12.125  0.00  0.00    +0.002 A 
ATOM     17  C   LIG    1       22.903 -29.686  11.742  0.00  0.00    +0.006 A 
ENDBRANCH   2  10
BRANCH   1  18
ATOM     18  C   LIG    1       24.987 -30.561   8.088  0.00  0.00    +0.338 C 
ATOM     19  O   LIG    1       25.548 -31.435   7.439  0.00  0.00    -0.245 OA
BRANCH  18  20
ATOM     20  O   LIG    1       24.008 -29.758   7.611  0.00  0.00    -0.462 OA
BRANCH  20  22
ATOM     21  C   LIG    1       24.400 -27.921   6.094  0.00  0.00    +0.048 C 
ATOM     22  C   LIG    1       24.078 -29.398   6.223  0.00  0.00    +0.229 C 
ENDBRANCH  20  22
ENDBRANCH  18  20
ENDBRANCH   1  18
BRANCH   3  23
ATOM     23  C   LIG    1       25.195 -32.386  12.758  0.00  0.00    +0.337 C 
ATOM     24  O   LIG    1       25.761 -33.463  12.603  0.00  0.00    -0.245 OA
BRANCH  23  25
ATOM     25  O   LIG    1       24.332 -32.091  13.750  0.00  0.00    -0.465 OA
ATOM     26  C   LIG    1       23.138 -32.867  13.877  0.00  0.00    +0.280 C 
ENDBRANCH  23  25
ENDBRANCH   3  23
TORSDOF 6
ENDMDL
MODEL 9
REMARK VINA RESULT:      -4.4      2.961      4.991
REMARK  Name = *****
REMARK                            x       y       z     vdW  Elec       q    Type
REMARK                         _______ _______ _______ _____ _____    ______ ____
ROOT
ATOM      1  C   LIG    1       23.719 -30.763  11.296  0.00  0.00    +0.065 C 
ATOM      2  C   LIG    1       24.962 -30.152  10.616  0.00  0.00    +0.097 C 
ATOM      3  C   LIG    1       26.105 -29.902  11.619  0.00  0.00    +0.065 C 
ATOM      4  C   LIG    1       26.118 -30.565  12.805  0.00  0.00    +0.016 C 
ATOM      5  C   LIG    1       27.174 -30.432  13.872  0.00  0.00    +0.061 C 
ATOM      6  N   LIG    1       25.092 -31.450  13.101  0.00  0.00    -0.321 N 
ATOM      7  H   LIG    1       25.102 -31.849  14.038  0.00  0.00    +0.152 HD
ATOM      8  C   LIG    1       23.861 -31.449  12.459  0.00  0.00    +0.016 C 
ATOM      9  C   LIG    1       22.793 -32.240  13.176  0.00  0.00    +0.061 C 
ENDROOT
BRANCH   2  10
ATOM     10  C   LIG    1       25.440 -31.044   9.445  0.00  0.00    -0.015 A 
ATOM     11  C   LIG    1       25.314 -30.690   8.082  0.00  0.00    +0.063 A 
ATOM     12 CL   LIG    1       24.443 -29.266   7.604  0.00  0.00    -0.082 Cl
ATOM     13  C   LIG    1       25.899 -31.501   7.087  0.00  0.00    +0.059 A 
ATOM     14 CL   LIG    1       25.852 -31.097   5.401  0.00  0.00    -0.082 Cl
ATOM     15  C   LIG    1       26.570 -32.678   7.428  0.00  0.00    +0.021 A 
ATOM     16  C   LIG    1       26.650 -33.069   8.758  0.00  0.00    +0.002 A 
ATOM     17  C   LIG    1       26.093 -32.263   9.750  0.00  0.00    +0.006 A 
ENDBRANCH   2  10
BRANCH   1  18
ATOM     18  C   LIG    1       22.392 -30.511  10.674  0.00  0.00    +0.338 C 
ATOM     19  O   LIG    1       21.524 -29.781  11.137  0.00  0.00    -0.245 OA
BRANCH  18  20
ATOM     20  O   LIG    1       22.293 -31.175   9.499  0.00  0.00    -0.462 OA
BRANCH  20  22
ATOM     21  C   LIG    1       22.679 -33.309   8.440  0.00  0.00    +0.048 C 
ATOM     22  C   LIG    1       21.977 -32.573   9.566  0.00  0.00    +0.229 C 
ENDBRANCH  20  22
ENDBRANCH  18  20
ENDBRANCH   1  18
BRANCH   3  23
ATOM     23  C   LIG    1       27.116 -28.896  11.185  0.00  0.00    +0.337 C 
ATOM     24  O   LIG    1       28.231 -29.190  10.767  0.00  0.00    -0.245 OA
BRANCH  23  25
ATOM     25  O   LIG    1       26.615 -27.647  11.263  0.00  0.00    -0.465 OA
ATOM     26  C   LIG    1       26.772 -26.917  12.483  0.00  0.00    +0.280 C 
ENDBRANCH  23  25
ENDBRANCH   3  23
TORSDOF 6
ENDMDL
