MODEL 1
REMARK VINA RESULT:      -6.2      0.000      0.000
REMARK  Name = *****
REMARK                            x       y       z     vdW  Elec       q    Type
REMARK                         _______ _______ _______ _____ _____    ______ ____
ROOT
ATOM      1  C   LIG    1       29.230 -20.317   6.358  0.00  0.00    +0.176 C 
ATOM      2  C   LIG    1       29.081 -21.189   7.598  0.00  0.00    +0.176 C 
ATOM      3  C   LIG    1       30.413 -21.284   8.350  0.00  0.00    +0.176 C 
ATOM      4  C   LIG    1       30.922 -19.890   8.754  0.00  0.00    +0.176 C 
ATOM      5  C   LIG    1       31.053 -18.978   7.525  0.00  0.00    +0.176 C 
ATOM      6  C   LIG    1       29.770 -18.925   6.691  0.00  0.00    +0.176 C 
ENDROOT
BRANCH   1   7
ATOM      7  O   LIG    1       27.936 -20.162   5.748  0.00  0.00    -0.387 OA
ATOM      8  H   LIG    1       27.423 -20.953   6.026  0.00  0.00    +0.210 HD
ENDBRANCH   1   7
BRANCH   2   9
ATOM      9  O   LIG    1       28.090 -20.624   8.479  0.00  0.00    -0.387 OA
ATOM     10  H   LIG    1       27.356 -21.270   8.467  0.00  0.00    +0.210 HD
ENDBRANCH   2   9
BRANCH   3  11
ATOM     11  O   LIG    1       30.254 -22.076   9.530  0.00  0.00    -0.387 OA
ATOM     12  H   LIG    1       29.852 -21.482  10.203  0.00  0.00    +0.210 HD
ENDBRANCH   3  11
BRANCH   4  13
ATOM     13  O   LIG    1       32.216 -19.985   9.363  0.00  0.00    -0.387 OA
ATOM     14  H   LIG    1       32.278 -19.288  10.041  0.00  0.00    +0.210 HD
ENDBRANCH   4  13
BRANCH   5  15
ATOM     15  O   LIG    1       31.357 -17.622   7.897  0.00  0.00    -0.387 OA
ATOM     16  H   LIG    1       30.545 -17.094   7.799  0.00  0.00    +0.210 HD
ENDBRANCH   5  15
BRANCH   6  17
ATOM     17  O   LIG    1       30.045 -18.238   5.455  0.00  0.00    -0.387 OA
ATOM     18  H   LIG    1       30.171 -17.300   5.709  0.00  0.00    +0.210 HD
ENDBRANCH   6  17
TORSDOF 6
ENDMDL
MODEL 2
REMARK VINA RESULT:      -5.9      0.623      4.256
REMARK  Name = *****
REMARK                            x       y       z     vdW  Elec       q    Type
REMARK                         _______ _______ _______ _____ _____    ______ ____
ROOT
ATOM      1  C   LIG    1       31.349 -20.063   8.113  0.00  0.00    +0.176 C 
ATOM      2  C   LIG    1       31.068 -18.847   7.241  0.00  0.00    +0.176 C 
ATOM      3  C   LIG    1       30.156 -19.226   6.070  0.00  0.00    +0.176 C 
ATOM      4  C   LIG    1       28.829 -19.822   6.571  0.00  0.00    +0.176 C 
ATOM      5  C   LIG    1       29.083 -21.034   7.480  0.00  0.00    +0.176 C 
ATOM      6  C   LIG    1       30.065 -20.725   8.614  0.00  0.00    +0.176 C 
ENDROOT
BRANCH   1   7
ATOM      7  O   LIG    1       32.112 -19.641   9.258  0.00  0.00    -0.387 OA
ATOM      8  H   LIG    1       33.049 -19.642   8.959  0.00  0.00    +0.210 HD
ENDBRANCH   1   7
BRANCH   2   9
ATOM      9  O   LIG    1       30.421 -17.822   8.021  0.00  0.00    -0.387 OA
ATOM     10  H   LIG    1       30.181 -18.268   8.858  0.00  0.00    +0.210 HD
ENDBRANCH   2   9
BRANCH   3  11
ATOM     11  O   LIG    1       29.870 -18.070   5.277  0.00  0.00    -0.387 OA
ATOM     12  H   LIG    1       30.729 -17.795   4.883  0.00  0.00    +0.210 HD
ENDBRANCH   3  11
BRANCH   4  13
ATOM     13  O   LIG    1       28.030 -20.268   5.468  0.00  0.00    -0.387 OA
ATOM     14  H   LIG    1       28.573 -20.871   4.931  0.00  0.00    +0.210 HD
ENDBRANCH   4  13
BRANCH   5  15
ATOM     15  O   LIG    1       27.872 -21.500   8.100  0.00  0.00    -0.387 OA
ATOM     16  H   LIG    1       27.713 -22.412   7.802  0.00  0.00    +0.210 HD
ENDBRANCH   5  15
BRANCH   6  17
ATOM     17  O   LIG    1       30.416 -21.957   9.274  0.00  0.00    -0.387 OA
ATOM     18  H   LIG    1       31.104 -21.708   9.926  0.00  0.00    +0.210 HD
ENDBRANCH   6  17
TORSDOF 6
ENDMDL
MODEL 3
REMARK VINA RESULT:      -5.6      3.047      5.074
REMARK  Name = *****
REMARK                            x       y       z     vdW  Elec       q    Type
REMARK                         _______ _______ _______ _____ _____    ______ ____
ROOT
ATOM      1  C   LIG    1       24.765 -20.858   7.390  0.00  0.00    +0.176 C 
ATOM      2  C   LIG    1       24.941 -21.013   5.885  0.00  0.00    +0.176 C 
ATOM      3  C   LIG    1       26.070 -20.109   5.382  0.00  0.00    +0.176 C 
ATOM      4  C   LIG    1       27.395 -20.426   6.094  0.00  0.00    +0.176 C 
ATOM      5  C   LIG    1       27.239 -20.307   7.617  0.00  0.00    +0.176 C 
ATOM      6  C   LIG    1       26.062 -21.125   8.155  0.00  0.00    +0.176 C 
ENDROOT
BRANCH   1   7
ATOM      7  O   LIG    1       23.777 -21.805   7.837  0.00  0.00    -0.387 OA
ATOM      8  H   LIG    1       23.040 -21.260   8.193  0.00  0.00    +0.210 HD
ENDBRANCH   1   7
BRANCH   2   9
ATOM      9  O   LIG    1       25.265 -22.381   5.568  0.00  0.00    -0.387 OA
ATOM     10  H   LIG    1       24.425 -22.866   5.689  0.00  0.00    +0.210 HD
ENDBRANCH   2   9
BRANCH   3  11
ATOM     11  O   LIG    1       26.249 -20.287   3.973  0.00  0.00    -0.387 OA
ATOM     12  H   LIG    1       26.082 -19.407   3.566  0.00  0.00    +0.210 HD
ENDBRANCH   3  11
BRANCH   4  13
ATOM     13  O   LIG    1       28.417 -19.505   5.690  0.00  0.00    -0.387 OA
ATOM     14  H   LIG    1       28.361 -18.725   6.270  0.00  0.00    +0.210 HD
ENDBRANCH   4  13
BRANCH   5  15
ATOM     15  O   LIG    1       28.412 -20.768   8.312  0.00  0.00    -0.387 OA
ATOM     16  H   LIG    1       28.305 -21.720   8.482  0.00  0.00    +0.210 HD
ENDBRANCH   5  15
BRANCH   6  17
ATOM     17  O   LIG    1       25.852 -20.785   9.539  0.00  0.00    -0.387 OA
ATOM     18  H   LIG    1       25.851 -19.805   9.562  0.00  0.00    +0.210 HD
ENDBRANCH   6  17
TORSDOF 6
ENDMDL
MODEL 4
REMARK VINA RESULT:      -5.4      3.768      5.718
REMARK  Name = *****
REMARK                            x       y       z     vdW  Elec       q    Type
REMARK                         _______ _______ _______ _____ _____    ______ ____
ROOT
ATOM      1  C   LIG    1       26.579 -20.094   5.760  0.00  0.00    +0.176 C 
ATOM      2  C   LIG    1       26.854 -20.689   7.134  0.00  0.00    +0.176 C 
ATOM      3  C   LIG    1       25.578 -20.694   7.982  0.00  0.00    +0.176 C 
ATOM      4  C   LIG    1       24.455 -21.485   7.289  0.00  0.00    +0.176 C 
ATOM      5  C   LIG    1       24.177 -20.925   5.887  0.00  0.00    +0.176 C 
ATOM      6  C   LIG    1       25.443 -20.816   5.033  0.00  0.00    +0.176 C 
ENDROOT
BRANCH   1   7
ATOM      7  O   LIG    1       27.770 -20.213   4.961  0.00  0.00    -0.387 OA
ATOM      8  H   LIG    1       27.452 -20.323   4.038  0.00  0.00    +0.210 HD
ENDBRANCH   1   7
BRANCH   2   9
ATOM      9  O   LIG    1       27.325 -22.044   6.997  0.00  0.00    -0.387 OA
ATOM     10  H   LIG    1       26.585 -22.594   7.320  0.00  0.00    +0.210 HD
ENDBRANCH   2   9
BRANCH   3  11
ATOM     11  O   LIG    1       25.839 -21.286   9.258  0.00  0.00    -0.387 OA
ATOM     12  H   LIG    1       26.805 -21.470   9.278  0.00  0.00    +0.210 HD
ENDBRANCH   3  11
BRANCH   4  13
ATOM     13  O   LIG    1       23.238 -21.394   8.042  0.00  0.00    -0.387 OA
ATOM     14  H   LIG    1       23.127 -22.228   8.531  0.00  0.00    +0.210 HD
ENDBRANCH   4  13
BRANCH   5  15
ATOM     15  O   LIG    1       23.257 -21.753   5.154  0.00  0.00    -0.387 OA
ATOM     16  H   LIG    1       23.476 -21.680   4.208  0.00  0.00    +0.210 HD
ENDBRANCH   5  15
BRANCH   6  17
ATOM     17  O   LIG    1       25.134 -20.083   3.832  0.00  0.00    -0.387 OA
ATOM     18  H   LIG    1       25.381 -20.683   3.098  0.00  0.00    +0.210 HD
ENDBRANCH   6  17
TORSDOF 6
ENDMDL
MODEL 5
REMARK VINA RESULT:      -5.4      0.945      3.037
REMARK  Name = *****
REMARK                            x       y       z     vdW  Elec       q    Type
REMARK                         _______ _______ _______ _____ _____    ______ ____
ROOT
ATOM      1  C   LIG    1       29.643 -18.658   6.778  0.00  0.00    +0.176 C 
ATOM      2  C   LIG    1       30.990 -18.700   7.486  0.00  0.00    +0.176 C 
ATOM      3  C   LIG    1       30.912 -19.581   8.737  0.00  0.00    +0.176 C 
ATOM      4  C   LIG    1       30.467 -21.010   8.383  0.00  0.00    +0.176 C 
ATOM      5  C   LIG    1       29.123 -20.996   7.640  0.00  0.00    +0.176 C 
ATOM      6  C   LIG    1       29.127 -20.056   6.431  0.00  0.00    +0.176 C 
ENDROOT
BRANCH   1   7
ATOM      7  O   LIG    1       29.790 -17.918   5.553  0.00  0.00    -0.387 OA
ATOM      8  H   LIG    1       29.331 -18.455   4.870  0.00  0.00    +0.210 HD
ENDBRANCH   1   7
BRANCH   2   9
ATOM      9  O   LIG    1       31.993 -19.239   6.601  0.00  0.00    -0.387 OA
ATOM     10  H   LIG    1       32.348 -18.459   6.131  0.00  0.00    +0.210 HD
ENDBRANCH   2   9
BRANCH   3  11
ATOM     11  O   LIG    1       32.191 -19.641   9.375  0.00  0.00    -0.387 OA
ATOM     12  H   LIG    1       32.132 -20.372  10.030  0.00  0.00    +0.210 HD
ENDBRANCH   3  11
BRANCH   4  13
ATOM     13  O   LIG    1       30.297 -21.793   9.572  0.00  0.00    -0.387 OA
ATOM     14  H   LIG    1       31.036 -22.425   9.620  0.00  0.00    +0.210 HD
ENDBRANCH   4  13
BRANCH   5  15
ATOM     15  O   LIG    1       28.774 -22.301   7.145  0.00  0.00    -0.387 OA
ATOM     16  H   LIG    1       29.555 -22.672   6.699  0.00  0.00    +0.210 HD
ENDBRANCH   5  15
BRANCH   6  17
ATOM     17  O   LIG    1       27.781 -19.933   5.932  0.00  0.00    -0.387 OA
ATOM     18  H   LIG    1       27.477 -20.854   5.793  0.00  0.00    +0.210 HD
ENDBRANCH   6  17
TORSDOF 6
ENDMDL
MODEL 6
REMARK VINA RESULT:      -5.4      4.053      5.569
REMARK  Name = *****
REMARK                            x       y       z     vdW  Elec       q    Type
REMARK                         _______ _______ _______ _____ _____    ______ ____
ROOT
ATOM      1  C   LIG    1       24.101 -22.547   6.515  0.00  0.00    +0.176 C 
ATOM      2  C   LIG    1       24.257 -21.861   7.866  0.00  0.00    +0.176 C 
ATOM      3  C   LIG    1       25.709 -21.422   8.080  0.00  0.00    +0.176 C 
ATOM      4  C   LIG    1       26.173 -20.474   6.961  0.00  0.00    +0.176 C 
ATOM      5  C   LIG    1       25.998 -21.128   5.583  0.00  0.00    +0.176 C 
ATOM      6  C   LIG    1       24.582 -21.666   5.361  0.00  0.00    +0.176 C 
ENDROOT
BRANCH   1   7
ATOM      7  O   LIG    1       22.708 -22.839   6.306  0.00  0.00    -0.387 OA
ATOM      8  H   LIG    1       22.478 -23.504   6.993  0.00  0.00    +0.210 HD
ENDBRANCH   1   7
BRANCH   2   9
ATOM      9  O   LIG    1       23.407 -20.699   7.928  0.00  0.00    -0.387 OA
ATOM     10  H   LIG    1       23.563 -20.330   8.819  0.00  0.00    +0.210 HD
ENDBRANCH   2   9
BRANCH   3  11
ATOM     11  O   LIG    1       25.838 -20.751   9.336  0.00  0.00    -0.387 OA
ATOM     12  H   LIG    1       25.911 -19.793   9.125  0.00  0.00    +0.210 HD
ENDBRANCH   3  11
BRANCH   4  13
ATOM     13  O   LIG    1       27.562 -20.155   7.117  0.00  0.00    -0.387 OA
ATOM     14  H   LIG    1       27.796 -19.502   6.434  0.00  0.00    +0.210 HD
ENDBRANCH   4  13
BRANCH   5  15
ATOM     15  O   LIG    1       26.258 -20.201   4.515  0.00  0.00    -0.387 OA
ATOM     16  H   LIG    1       27.200 -20.270   4.280  0.00  0.00    +0.210 HD
ENDBRANCH   5  15
BRANCH   6  17
ATOM     17  O   LIG    1       24.566 -22.451   4.153  0.00  0.00    -0.387 OA
ATOM     18  H   LIG    1       23.847 -22.066   3.609  0.00  0.00    +0.210 HD
ENDBRANCH   6  17
TORSDOF 6
ENDMDL
MODEL 7
REMARK VINA RESULT:      -5.3      1.708      2.652
REMARK  Name = *****
REMARK                            x       y       z     vdW  Elec       q    Type
REMARK                         _______ _______ _______ _____ _____    ______ ____
ROOT
ATOM      1  C   LIG    1       26.852 -21.189   6.531  0.00  0.00    +0.176 C 
ATOM      2  C   LIG    1       27.584 -21.295   7.862  0.00  0.00    +0.176 C 
ATOM      3  C   LIG    1       29.098 -21.207   7.650  0.00  0.00    +0.176 C 
ATOM      4  C   LIG    1       29.485 -19.894   6.949  0.00  0.00    +0.176 C 
ATOM      5  C   LIG    1       28.738 -19.745   5.616  0.00  0.00    +0.176 C 
ATOM      6  C   LIG    1       27.223 -19.918   5.766  0.00  0.00    +0.176 C 
ENDROOT
BRANCH   1   7
ATOM      7  O   LIG    1       25.436 -21.162   6.786  0.00  0.00    -0.387 OA
ATOM      8  H   LIG    1       25.021 -21.542   5.980  0.00  0.00    +0.210 HD
ENDBRANCH   1   7
BRANCH   2   9
ATOM      9  O   LIG    1       27.174 -20.223   8.734  0.00  0.00    -0.387 OA
ATOM     10  H   LIG    1       27.862 -19.539   8.620  0.00  0.00    +0.210 HD
ENDBRANCH   2   9
BRANCH   3  11
ATOM     11  O   LIG    1       29.774 -21.273   8.909  0.00  0.00    -0.387 OA
ATOM     12  H   LIG    1       29.189 -21.795   9.503  0.00  0.00    +0.210 HD
ENDBRANCH   3  11
BRANCH   4  13
ATOM     13  O   LIG    1       30.889 -19.871   6.664  0.00  0.00    -0.387 OA
ATOM     14  H   LIG    1       31.003 -19.549   5.752  0.00  0.00    +0.210 HD
ENDBRANCH   4  13
BRANCH   5  15
ATOM     15  O   LIG    1       28.947 -18.449   5.028  0.00  0.00    -0.387 OA
ATOM     16  H   LIG    1       28.768 -17.778   5.709  0.00  0.00    +0.210 HD
ENDBRANCH   5  15
BRANCH   6  17
ATOM     17  O   LIG    1       26.630 -19.987   4.455  0.00  0.00    -0.387 OA
ATOM     18  H   LIG    1       25.676 -20.140   4.616  0.00  0.00    +0.210 HD
ENDBRANCH   6  17
TORSDOF 6
ENDMDL
MODEL 8
REMARK VINA RESULT:      -5.3      3.426      5.578
REMARK  Name = *****
REMARK                            x       y       z     vdW  Elec       q    Type
REMARK                         _______ _______ _______ _____ _____    ______ ____
ROOT
ATOM      1  C   LIG    1       25.512 -20.759   8.081  0.00  0.00    +0.176 C 
ATOM      2  C   LIG    1       24.457 -21.447   7.226  0.00  0.00    +0.176 C 
ATOM      3  C   LIG    1       24.387 -20.801   5.839  0.00  0.00    +0.176 C 
ATOM      4  C   LIG    1       25.750 -20.861   5.129  0.00  0.00    +0.176 C 
ATOM      5  C   LIG    1       26.842 -20.201   5.984  0.00  0.00    +0.176 C 
ATOM      6  C   LIG    1       26.887 -20.754   7.411  0.00  0.00    +0.176 C 
ENDROOT
BRANCH   1   7
ATOM      7  O   LIG    1       25.624 -21.467   9.329  0.00  0.00    -0.387 OA
ATOM      8  H   LIG    1       24.797 -21.992   9.403  0.00  0.00    +0.210 HD
ENDBRANCH   1   7
BRANCH   2   9
ATOM      9  O   LIG    1       24.783 -22.842   7.072  0.00  0.00    -0.387 OA
ATOM     10  H   LIG    1       24.406 -23.087   6.204  0.00  0.00    +0.210 HD
ENDBRANCH   2   9
BRANCH   3  11
ATOM     11  O   LIG    1       23.417 -21.475   5.032  0.00  0.00    -0.387 OA
ATOM     12  H   LIG    1       23.225 -22.323   5.492  0.00  0.00    +0.210 HD
ENDBRANCH   3  11
BRANCH   4  13
ATOM     13  O   LIG    1       25.697 -20.163   3.878  0.00  0.00    -0.387 OA
ATOM     14  H   LIG    1       26.232 -20.661   3.235  0.00  0.00    +0.210 HD
ENDBRANCH   4  13
BRANCH   5  15
ATOM     15  O   LIG    1       28.152 -20.400   5.424  0.00  0.00    -0.387 OA
ATOM     16  H   LIG    1       28.273 -21.354   5.275  0.00  0.00    +0.210 HD
ENDBRANCH   5  15
BRANCH   6  17
ATOM     17  O   LIG    1       27.774 -19.936   8.199  0.00  0.00    -0.387 OA
ATOM     18  H   LIG    1       27.246 -19.670   8.981  0.00  0.00    +0.210 HD
ENDBRANCH   6  17
TORSDOF 6
ENDMDL
MODEL 9
REMARK VINA RESULT:      -5.2      1.489      3.518
REMARK  Name = *****
REMARK                            x       y       z     vdW  Elec       q    Type
REMARK                         _______ _______ _______ _____ _____    ______ ____
ROOT
ATOM      1  C   LIG    1       28.546 -21.105   7.618  0.00  0.00    +0.176 C 
ATOM      2  C   LIG    1       29.622 -20.156   8.130  0.00  0.00    +0.176 C 
ATOM      3  C   LIG    1       30.376 -19.520   6.958  0.00  0.00    +0.176 C 
ATOM      4  C   LIG    1       29.417 -18.761   6.026  0.00  0.00    +0.176 C 
ATOM      5  C   LIG    1       28.302 -19.688   5.518  0.00  0.00    +0.176 C 
ATOM      6  C   LIG    1       27.579 -20.417   6.654  0.00  0.00    +0.176 C 
ENDROOT
BRANCH   1   7
ATOM      7  O   LIG    1       27.790 -21.590   8.742  0.00  0.00    -0.387 OA
ATOM      8  H   LIG    1       28.461 -21.882   9.399  0.00  0.00    +0.210 HD
ENDBRANCH   1   7
BRANCH   2   9
ATOM      9  O   LIG    1       29.019 -19.110   8.917  0.00  0.00    -0.387 OA
ATOM     10  H   LIG    1       28.506 -19.583   9.600  0.00  0.00    +0.210 HD
ENDBRANCH   2   9
BRANCH   3  11
ATOM     11  O   LIG    1       31.361 -18.605   7.448  0.00  0.00    -0.387 OA
ATOM     12  H   LIG    1       32.221 -19.082   7.399  0.00  0.00    +0.210 HD
ENDBRANCH   3  11
BRANCH   4  13
ATOM     13  O   LIG    1       30.119 -18.261   4.881  0.00  0.00    -0.387 OA
ATOM     14  H   LIG    1       30.016 -17.293   4.868  0.00  0.00    +0.210 HD
ENDBRANCH   4  13
BRANCH   5  15
ATOM     15  O   LIG    1       27.296 -18.963   4.789  0.00  0.00    -0.387 OA
ATOM     16  H   LIG    1       26.788 -19.603   4.261  0.00  0.00    +0.210 HD
ENDBRANCH   5  15
BRANCH   6  17
ATOM     17  O   LIG    1       26.713 -21.420   6.087  0.00  0.00    -0.387 OA
ATOM     18  H   LIG    1       27.317 -22.107   5.736  0.00  0.00    +0.210 HD
ENDBRANCH   6  17
TORSDOF 6
ENDMDL
