MODEL 1
REMARK VINA RESULT:      -7.7      0.000      0.000
REMARK  Name = *****
REMARK                            x       y       z     vdW  Elec       q    Type
REMARK                         _______ _______ _______ _____ _____    ______ ____
ROOT
ATOM      1  C   LIG    1       25.152 -20.120   3.623  0.00  0.00    +0.044 C 
ATOM      2  C   LIG    1       25.273 -20.353   5.099  0.00  0.00    -0.043 C 
ATOM      3  C   LIG    1       26.587 -20.163   5.697  0.00  0.00    +0.028 C 
ATOM      4  C   LIG    1       26.796 -20.356   7.015  0.00  0.00    +0.065 C 
ATOM      5  N   LIG    1       25.706 -20.732   7.777  0.00  0.00    -0.151 N 
ATOM      6  C   LIG    1       24.423 -20.936   7.318  0.00  0.00    +0.284 C 
ATOM      7  O   LIG    1       23.486 -21.272   8.039  0.00  0.00    -0.265 OA
ATOM      8  C   LIG    1       24.231 -20.722   5.862  0.00  0.00    +0.076 C 
ENDROOT
BRANCH   4   9
ATOM      9  C   LIG    1       28.143 -20.169   7.712  0.00  0.00    +0.039 C 
ATOM     10  C   LIG    1       29.013 -19.026   7.145  0.00  0.00    +0.010 C 
ATOM     11  C   LIG    1       30.320 -18.883   7.923  0.00  0.00    +0.001 C 
ATOM     12  C   LIG    1       31.106 -20.190   7.933  0.00  0.00    +0.000 C 
ATOM     13  C   LIG    1       30.265 -21.348   8.460  0.00  0.00    +0.001 C 
ATOM     14  C   LIG    1       28.943 -21.485   7.704  0.00  0.00    +0.010 C 
ENDBRANCH   4   9
BRANCH   5  15
ATOM     15  O   LIG    1       25.915 -20.931   9.160  0.00  0.00    -0.423 OA
ATOM     16  H   LIG    1       26.252 -21.851   9.173  0.00  0.00    +0.326 HD
ENDBRANCH   5  15
TORSDOF 2
ENDMDL
MODEL 2
REMARK VINA RESULT:      -7.7      2.472      5.432
REMARK  Name = *****
REMARK                            x       y       z     vdW  Elec       q    Type
REMARK                         _______ _______ _______ _____ _____    ______ ____
ROOT
ATOM      1  C   LIG    1       30.790 -21.565   9.101  0.00  0.00    +0.044 C 
ATOM      2  C   LIG    1       29.972 -20.913   8.028  0.00  0.00    -0.043 C 
ATOM      3  C   LIG    1       28.617 -21.407   7.831  0.00  0.00    +0.028 C 
ATOM      4  C   LIG    1       27.808 -20.889   6.884  0.00  0.00    +0.065 C 
ATOM      5  N   LIG    1       28.318 -19.859   6.115  0.00  0.00    -0.151 N 
ATOM      6  C   LIG    1       29.580 -19.314   6.218  0.00  0.00    +0.284 C 
ATOM      7  O   LIG    1       29.986 -18.397   5.507  0.00  0.00    -0.265 OA
ATOM      8  C   LIG    1       30.444 -19.914   7.264  0.00  0.00    +0.076 C 
ENDROOT
BRANCH   4   9
ATOM      9  C   LIG    1       26.375 -21.351   6.625  0.00  0.00    +0.039 C 
ATOM     10  C   LIG    1       25.291 -20.557   7.385  0.00  0.00    +0.010 C 
ATOM     11  C   LIG    1       23.889 -21.057   7.040  0.00  0.00    +0.001 C 
ATOM     12  C   LIG    1       23.747 -22.549   7.322  0.00  0.00    +0.000 C 
ATOM     13  C   LIG    1       24.823 -23.361   6.608  0.00  0.00    +0.001 C 
ATOM     14  C   LIG    1       26.228 -22.854   6.929  0.00  0.00    +0.010 C 
ENDBRANCH   4   9
BRANCH   5  15
ATOM     15  O   LIG    1       27.476 -19.306   5.125  0.00  0.00    -0.423 OA
ATOM     16  H   LIG    1       26.781 -18.888   5.676  0.00  0.00    +0.326 HD
ENDBRANCH   5  15
TORSDOF 2
ENDMDL
MODEL 3
REMARK VINA RESULT:      -7.5      1.745      2.481
REMARK  Name = *****
REMARK                            x       y       z     vdW  Elec       q    Type
REMARK                         _______ _______ _______ _____ _____    ______ ____
ROOT
ATOM      1  C   LIG    1       22.309 -19.613   4.997  0.00  0.00    +0.044 C 
ATOM      2  C   LIG    1       23.199 -20.656   5.601  0.00  0.00    -0.043 C 
ATOM      3  C   LIG    1       24.599 -20.305   5.793  0.00  0.00    +0.028 C 
ATOM      4  C   LIG    1       25.478 -21.180   6.322  0.00  0.00    +0.065 C 
ATOM      5  N   LIG    1       24.991 -22.422   6.685  0.00  0.00    -0.151 N 
ATOM      6  C   LIG    1       23.690 -22.857   6.552  0.00  0.00    +0.284 C 
ATOM      7  O   LIG    1       23.307 -23.974   6.889  0.00  0.00    -0.265 OA
ATOM      8  C   LIG    1       22.752 -21.872   5.959  0.00  0.00    +0.076 C 
ENDROOT
BRANCH   4   9
ATOM      9  C   LIG    1       26.957 -20.880   6.560  0.00  0.00    +0.039 C 
ATOM     10  C   LIG    1       27.298 -20.384   7.982  0.00  0.00    +0.010 C 
ATOM     11  C   LIG    1       28.798 -20.146   8.144  0.00  0.00    +0.001 C 
ATOM     12  C   LIG    1       29.322 -19.163   7.102  0.00  0.00    +0.000 C 
ATOM     13  C   LIG    1       28.976 -19.610   5.685  0.00  0.00    +0.001 C 
ATOM     14  C   LIG    1       27.479 -19.873   5.518  0.00  0.00    +0.010 C 
ENDBRANCH   4   9
BRANCH   5  15
ATOM     15  O   LIG    1       25.904 -23.342   7.246  0.00  0.00    -0.423 OA
ATOM     16  H   LIG    1       25.790 -24.113   6.651  0.00  0.00    +0.326 HD
ENDBRANCH   5  15
TORSDOF 2
ENDMDL
MODEL 4
REMARK VINA RESULT:      -7.5      3.250      5.291
REMARK  Name = *****
REMARK                            x       y       z     vdW  Elec       q    Type
REMARK                         _______ _______ _______ _____ _____    ______ ____
ROOT
ATOM      1  C   LIG    1       25.143 -25.324   5.178  0.00  0.00    +0.044 C 
ATOM      2  C   LIG    1       25.272 -24.065   5.981  0.00  0.00    -0.043 C 
ATOM      3  C   LIG    1       24.752 -22.842   5.387  0.00  0.00    +0.028 C 
ATOM      4  C   LIG    1       24.829 -21.658   6.029  0.00  0.00    +0.065 C 
ATOM      5  N   LIG    1       25.415 -21.658   7.282  0.00  0.00    -0.151 N 
ATOM      6  C   LIG    1       25.936 -22.753   7.937  0.00  0.00    +0.284 C 
ATOM      7  O   LIG    1       26.450 -22.700   9.052  0.00  0.00    -0.265 OA
ATOM      8  C   LIG    1       25.841 -24.036   7.198  0.00  0.00    +0.076 C 
ENDROOT
BRANCH   4   9
ATOM      9  C   LIG    1       24.299 -20.338   5.474  0.00  0.00    +0.039 C 
ATOM     10  C   LIG    1       22.760 -20.233   5.410  0.00  0.00    +0.010 C 
ATOM     11  C   LIG    1       22.316 -18.870   4.881  0.00  0.00    +0.001 C 
ATOM     12  C   LIG    1       22.922 -18.581   3.511  0.00  0.00    +0.000 C 
ATOM     13  C   LIG    1       24.442 -18.706   3.532  0.00  0.00    +0.001 C 
ATOM     14  C   LIG    1       24.897 -20.057   4.082  0.00  0.00    +0.010 C 
ENDBRANCH   4   9
BRANCH   5  15
ATOM     15  O   LIG    1       25.496 -20.424   7.964  0.00  0.00    -0.423 OA
ATOM     16  H   LIG    1       25.931 -20.695   8.799  0.00  0.00    +0.326 HD
ENDBRANCH   5  15
TORSDOF 2
ENDMDL
MODEL 5
REMARK VINA RESULT:      -7.4      2.604      5.651
REMARK  Name = *****
REMARK                            x       y       z     vdW  Elec       q    Type
REMARK                         _______ _______ _______ _____ _____    ______ ____
ROOT
ATOM      1  C   LIG    1       30.606 -16.639   9.249  0.00  0.00    +0.044 C 
ATOM      2  C   LIG    1       30.531 -18.104   8.945  0.00  0.00    -0.043 C 
ATOM      3  C   LIG    1       29.341 -18.580   8.253  0.00  0.00    +0.028 C 
ATOM      4  C   LIG    1       29.179 -19.883   7.945  0.00  0.00    +0.065 C 
ATOM      5  N   LIG    1       30.197 -20.747   8.304  0.00  0.00    -0.151 N 
ATOM      6  C   LIG    1       31.362 -20.405   8.956  0.00  0.00    +0.284 C 
ATOM      7  O   LIG    1       32.238 -21.214   9.255  0.00  0.00    -0.265 OA
ATOM      8  C   LIG    1       31.503 -18.966   9.287  0.00  0.00    +0.076 C 
ENDROOT
BRANCH   4   9
ATOM      9  C   LIG    1       27.964 -20.453   7.215  0.00  0.00    +0.039 C 
ATOM     10  C   LIG    1       27.635 -19.768   5.871  0.00  0.00    +0.010 C 
ATOM     11  C   LIG    1       26.434 -20.423   5.191  0.00  0.00    +0.001 C 
ATOM     12  C   LIG    1       25.210 -20.417   6.100  0.00  0.00    +0.000 C 
ATOM     13  C   LIG    1       25.509 -21.061   7.449  0.00  0.00    +0.001 C 
ATOM     14  C   LIG    1       26.724 -20.429   8.128  0.00  0.00    +0.010 C 
ENDBRANCH   4   9
BRANCH   5  15
ATOM     15  O   LIG    1       30.038 -22.112   7.980  0.00  0.00    -0.423 OA
ATOM     16  H   LIG    1       29.375 -22.063   7.260  0.00  0.00    +0.326 HD
ENDBRANCH   5  15
TORSDOF 2
ENDMDL
MODEL 6
REMARK VINA RESULT:      -7.2      1.628      5.103
REMARK  Name = *****
REMARK                            x       y       z     vdW  Elec       q    Type
REMARK                         _______ _______ _______ _____ _____    ______ ____
ROOT
ATOM      1  C   LIG    1       29.629 -18.211   5.350  0.00  0.00    +0.044 C 
ATOM      2  C   LIG    1       28.974 -19.327   6.105  0.00  0.00    -0.043 C 
ATOM      3  C   LIG    1       27.614 -19.681   5.723  0.00  0.00    +0.028 C 
ATOM      4  C   LIG    1       26.940 -20.666   6.350  0.00  0.00    +0.065 C 
ATOM      5  N   LIG    1       27.598 -21.334   7.365  0.00  0.00    -0.151 N 
ATOM      6  C   LIG    1       28.881 -21.084   7.805  0.00  0.00    +0.284 C 
ATOM      7  O   LIG    1       29.422 -21.708   8.716  0.00  0.00    -0.265 OA
ATOM      8  C   LIG    1       29.590 -19.989   7.099  0.00  0.00    +0.076 C 
ENDROOT
BRANCH   4   9
ATOM      9  C   LIG    1       25.517 -21.097   5.998  0.00  0.00    +0.039 C 
ATOM     10  C   LIG    1       24.999 -20.579   4.639  0.00  0.00    +0.010 C 
ATOM     11  C   LIG    1       23.588 -21.088   4.350  0.00  0.00    +0.001 C 
ATOM     12  C   LIG    1       22.620 -20.703   5.464  0.00  0.00    +0.000 C 
ATOM     13  C   LIG    1       23.116 -21.175   6.827  0.00  0.00    +0.001 C 
ATOM     14  C   LIG    1       24.537 -20.691   7.116  0.00  0.00    +0.010 C 
ENDBRANCH   4   9
BRANCH   5  15
ATOM     15  O   LIG    1       26.901 -22.371   8.023  0.00  0.00    -0.423 OA
ATOM     16  H   LIG    1       26.076 -22.412   7.497  0.00  0.00    +0.326 HD
ENDBRANCH   5  15
TORSDOF 2
ENDMDL
MODEL 7
REMARK VINA RESULT:      -7.0      3.909      5.626
REMARK  Name = *****
REMARK                            x       y       z     vdW  Elec       q    Type
REMARK                         _______ _______ _______ _____ _____    ______ ____
ROOT
ATOM      1  C   LIG    1       27.657 -20.927   7.981  0.00  0.00    +0.044 C 
ATOM      2  C   LIG    1       26.334 -21.459   7.520  0.00  0.00    -0.043 C 
ATOM      3  C   LIG    1       26.264 -22.876   7.195  0.00  0.00    +0.028 C 
ATOM      4  C   LIG    1       25.119 -23.445   6.764  0.00  0.00    +0.065 C 
ATOM      5  N   LIG    1       24.011 -22.626   6.655  0.00  0.00    -0.151 N 
ATOM      6  C   LIG    1       23.964 -21.278   6.939  0.00  0.00    +0.284 C 
ATOM      7  O   LIG    1       22.950 -20.592   6.823  0.00  0.00    -0.265 OA
ATOM      8  C   LIG    1       25.242 -20.684   7.401  0.00  0.00    +0.076 C 
ENDROOT
BRANCH   4   9
ATOM      9  C   LIG    1       24.969 -24.924   6.412  0.00  0.00    +0.039 C 
ATOM     10  C   LIG    1       25.880 -25.878   7.215  0.00  0.00    +0.010 C 
ATOM     11  C   LIG    1       25.638 -27.336   6.829  0.00  0.00    +0.001 C 
ATOM     12  C   LIG    1       25.834 -27.554   5.332  0.00  0.00    +0.000 C 
ATOM     13  C   LIG    1       24.969 -26.606   4.508  0.00  0.00    +0.001 C 
ATOM     14  C   LIG    1       25.186 -25.145   4.903  0.00  0.00    +0.010 C 
ENDBRANCH   4   9
BRANCH   5  15
ATOM     15  O   LIG    1       22.806 -23.214   6.211  0.00  0.00    -0.423 OA
ATOM     16  H   LIG    1       22.337 -23.356   7.059  0.00  0.00    +0.326 HD
ENDBRANCH   5  15
TORSDOF 2
ENDMDL
MODEL 8
REMARK VINA RESULT:      -7.0      2.197      5.450
REMARK  Name = *****
REMARK                            x       y       z     vdW  Elec       q    Type
REMARK                         _______ _______ _______ _____ _____    ______ ____
ROOT
ATOM      1  C   LIG    1       28.465 -20.289   7.808  0.00  0.00    +0.044 C 
ATOM      2  C   LIG    1       27.352 -21.138   7.274  0.00  0.00    -0.043 C 
ATOM      3  C   LIG    1       26.371 -20.487   6.417  0.00  0.00    +0.028 C 
ATOM      4  C   LIG    1       25.330 -21.167   5.895  0.00  0.00    +0.065 C 
ATOM      5  N   LIG    1       25.238 -22.512   6.200  0.00  0.00    -0.151 N 
ATOM      6  C   LIG    1       26.108 -23.227   6.995  0.00  0.00    +0.284 C 
ATOM      7  O   LIG    1       25.981 -24.425   7.238  0.00  0.00    -0.265 OA
ATOM      8  C   LIG    1       27.237 -22.446   7.559  0.00  0.00    +0.076 C 
ENDROOT
BRANCH   4   9
ATOM      9  C   LIG    1       24.269 -20.553   4.983  0.00  0.00    +0.039 C 
ATOM     10  C   LIG    1       24.760 -19.370   4.121  0.00  0.00    +0.010 C 
ATOM     11  C   LIG    1       23.649 -18.844   3.213  0.00  0.00    +0.001 C 
ATOM     12  C   LIG    1       22.420 -18.436   4.018  0.00  0.00    +0.000 C 
ATOM     13  C   LIG    1       21.926 -19.575   4.905  0.00  0.00    +0.001 C 
ATOM     14  C   LIG    1       23.035 -20.125   5.800  0.00  0.00    +0.010 C 
ENDBRANCH   4   9
BRANCH   5  15
ATOM     15  O   LIG    1       24.154 -23.233   5.654  0.00  0.00    -0.423 OA
ATOM     16  H   LIG    1       23.571 -22.505   5.353  0.00  0.00    +0.326 HD
ENDBRANCH   5  15
TORSDOF 2
ENDMDL
MODEL 9
REMARK VINA RESULT:      -6.9      2.395      3.074
REMARK  Name = *****
REMARK                            x       y       z     vdW  Elec       q    Type
REMARK                         _______ _______ _______ _____ _____    ______ ____
ROOT
ATOM      1  C   LIG    1       25.732 -25.836   6.869  0.00  0.00    +0.044 C 
ATOM      2  C   LIG    1       25.248 -24.421   6.774  0.00  0.00    -0.043 C 
ATOM      3  C   LIG    1       26.249 -23.368   6.864  0.00  0.00    +0.028 C 
ATOM      4  C   LIG    1       25.909 -22.065   6.797  0.00  0.00    +0.065 C 
ATOM      5  N   LIG    1       24.568 -21.771   6.629  0.00  0.00    -0.151 N 
ATOM      6  C   LIG    1       23.541 -22.685   6.529  0.00  0.00    +0.284 C 
ATOM      7  O   LIG    1       22.362 -22.371   6.381  0.00  0.00    -0.265 OA
ATOM      8  C   LIG    1       23.951 -24.109   6.615  0.00  0.00    +0.076 C 
ENDROOT
BRANCH   4   9
ATOM      9  C   LIG    1       26.903 -20.908   6.876  0.00  0.00    +0.039 C 
ATOM     10  C   LIG    1       27.339 -20.333   5.511  0.00  0.00    +0.010 C 
ATOM     11  C   LIG    1       28.300 -19.158   5.682  0.00  0.00    +0.001 C 
ATOM     12  C   LIG    1       29.523 -19.556   6.502  0.00  0.00    +0.000 C 
ATOM     13  C   LIG    1       29.127 -20.156   7.848  0.00  0.00    +0.001 C 
ATOM     14  C   LIG    1       28.146 -21.317   7.688  0.00  0.00    +0.010 C 
ENDBRANCH   4   9
BRANCH   5  15
ATOM     15  O   LIG    1       24.204 -20.409   6.551  0.00  0.00    -0.423 OA
ATOM     16  H   LIG    1       23.917 -20.234   7.472  0.00  0.00    +0.326 HD
ENDBRANCH   5  15
TORSDOF 2
ENDMDL
