MODEL 1
REMARK VINA RESULT:     117.3      0.000      0.000
REMARK  Name = *****
REMARK                            x       y       z     vdW  Elec       q    Type
REMARK                         _______ _______ _______ _____ _____    ______ ____
ROOT
ATOM      1  C   LIG    1       24.760 -15.113   3.406  0.00  0.00    -0.004 C 
ATOM      2  C   LIG    1       25.931 -14.455   3.648  0.00  0.00    -0.016 C 
ATOM      3  C   LIG    1       26.011 -12.991   3.710  0.00  0.00    +0.015 C 
ATOM      4  C   LIG    1       26.954 -12.389   4.447  0.00  0.00    +0.078 C 
ATOM      5  C   LIG    1       27.946 -13.233   5.197  0.00  0.00    +0.202 C 
ATOM      6  N   LIG    1       28.560 -12.827   6.265  0.00  0.00    -0.234 N 
ATOM      7  C   LIG    1       29.470 -13.714   7.058  0.00  0.00    +0.432 C 
ATOM      8  C   LIG    1       28.346 -11.461   6.843  0.00  0.00    +0.432 C 
ATOM      9  C   LIG    1       28.176 -14.588   4.583  0.00  0.00    +0.078 C 
ATOM     10  C   LIG    1       27.210 -15.147   3.841  0.00  0.00    +0.015 C 
ENDROOT
BRANCH   1  14
ATOM     11  C   LIG    1       21.000 -12.881   3.229  0.00  0.00    +0.029 A 
ATOM     12  C   LIG    1       22.255 -12.244   3.293  0.00  0.00    +0.024 A 
ATOM     13  C   LIG    1       23.470 -12.953   3.330  0.00  0.00    +0.010 A 
ATOM     14  C   LIG    1       23.478 -14.346   3.330  0.00  0.00    -0.017 A 
ATOM     15  C   LIG    1       22.248 -15.007   3.282  0.00  0.00    +0.010 A 
ATOM     16  C   LIG    1       21.038 -14.285   3.240  0.00  0.00    +0.024 A 
BRANCH  11  18
ATOM     17  C   LIG    1       19.393 -11.467   1.992  0.00  0.00    +0.129 C 
ATOM     18  N   LIG    1       19.794 -12.164   3.219  0.00  0.00    -0.336 N 
ATOM     19  C   LIG    1       19.380 -11.478   4.448  0.00  0.00    +0.129 C 
ENDBRANCH  11  18
ENDBRANCH   1  14
BRANCH   1  20
ATOM     20  C   LIG    1       24.726 -16.604   3.361  0.00  0.00    -0.017 A 
ATOM     21  C   LIG    1       25.896 -17.336   3.152  0.00  0.00    +0.010 A 
ATOM     22  C   LIG    1       25.868 -18.742   3.110  0.00  0.00    +0.024 A 
ATOM     23  C   LIG    1       24.685 -19.481   3.286  0.00  0.00    +0.029 A 
ATOM     24  C   LIG    1       23.519 -18.716   3.464  0.00  0.00    +0.024 A 
ATOM     25  C   LIG    1       23.533 -17.308   3.515  0.00  0.00    +0.010 A 
BRANCH  23  26
ATOM     26  N   LIG    1       24.658 -20.884   3.232  0.00  0.00    -0.336 N 
ATOM     27  C   LIG    1       23.355 -21.561   3.252  0.00  0.00    +0.129 C 
ATOM     28  C   LIG    1       25.649 -21.568   2.392  0.00  0.00    +0.129 C 
ENDBRANCH  23  26
ENDBRANCH   1  20
TORSDOF 4
ENDMDL
