MODEL 1
REMARK VINA RESULT:      43.3      0.000      0.000
REMARK  Name = *****
REMARK                            x       y       z     vdW  Elec       q    Type
REMARK                         _______ _______ _______ _____ _____    ______ ____
ROOT
ATOM      1  C   LIG    1       24.589 -12.688   2.676  0.00  0.00    +0.107 C 
ENDROOT
BRANCH   1   2
ATOM      2  N   LIG    1       23.376 -12.199   3.366  0.00  0.00    -0.308 N 
ATOM      3  H   LIG    1       22.777 -11.535   2.887  0.00  0.00    +0.149 HD
ATOM      4  C   LIG    1       22.931 -12.466   4.633  0.00  0.00    +0.234 C 
ATOM      5  O   LIG    1       21.965 -11.835   5.062  0.00  0.00    -0.274 OA
BRANCH   4   6
ATOM      6  C   LIG    1       23.751 -13.442   5.506  0.00  0.00    +0.168 C 
BRANCH   6   7
ATOM      7  N   LIG    1       23.247 -14.797   5.263  0.00  0.00    -0.298 N 
ATOM      8  H   LIG    1       23.682 -15.605   5.664  0.00  0.00    +0.150 HD
ATOM      9  C   LIG    1       22.199 -15.011   4.368  0.00  0.00    +0.263 C 
ATOM     10  O   LIG    1       21.653 -14.120   3.752  0.00  0.00    -0.269 OA
BRANCH   9  11
ATOM     11  C   LIG    1       21.784 -16.436   4.182  0.00  0.00    +0.126 A 
ATOM     12  N   LIG    1       22.351 -17.360   4.993  0.00  0.00    -0.242 NA
ATOM     13  C   LIG    1       21.974 -18.642   4.828  0.00  0.00    +0.072 A 
ATOM     14  C   LIG    1       21.048 -19.043   3.834  0.00  0.00    +0.000 A 
ATOM     15  C   LIG    1       20.703 -20.399   3.686  0.00  0.00    +0.010 A 
ATOM     16  C   LIG    1       21.269 -21.363   4.516  0.00  0.00    +0.001 A 
ATOM     17  C   LIG    1       22.177 -20.978   5.495  0.00  0.00    +0.002 A 
ATOM     18  C   LIG    1       20.500 -18.059   3.006  0.00  0.00    +0.012 A 
ATOM     19  C   LIG    1       22.514 -19.627   5.644  0.00  0.00    +0.028 A 
ATOM     20  C   LIG    1       20.862 -16.729   3.185  0.00  0.00    +0.034 A 
ENDBRANCH   9  11
ENDBRANCH   6   7
BRANCH   6  21
ATOM     21  C   LIG    1       25.248 -13.317   5.254  0.00  0.00    +0.127 C 
BRANCH  21  22
ATOM     22  C   LIG    1       25.980 -12.929   6.531  0.00  0.00    +0.213 C 
ATOM     23  O   LIG    1       26.866 -13.568   7.056  0.00  0.00    -0.276 OA
ATOM     24  N   LIG    1       25.575 -11.725   7.045  0.00  0.00    -0.329 N 
ATOM     25  H   LIG    1       26.005 -11.430   7.907  0.00  0.00    +0.145 HD
ATOM     26  H   LIG    1       24.835 -11.180   6.643  0.00  0.00    +0.145 HD
ENDBRANCH  21  22
ENDBRANCH   6  21
ENDBRANCH   4   6
ENDBRANCH   1   2
BRANCH   1  27
ATOM     27  C   LIG    1       24.769 -14.198   3.018  0.00  0.00    +0.149 C 
BRANCH  27  28
ATOM     28  O   LIG    1       24.663 -14.952   1.815  0.00  0.00    -0.389 OA
ATOM     29  H   LIG    1       24.075 -14.453   1.218  0.00  0.00    +0.210 HD
ENDBRANCH  27  28
BRANCH  27  30
ATOM     30  C   LIG    1       26.083 -14.520   3.804  0.00  0.00    +0.118 C 
BRANCH  30  32
ATOM     31  C   LIG    1       26.725 -16.629   4.991  0.00  0.00    +0.143 C 
ATOM     32  N   LIG    1       26.648 -15.900   3.702  0.00  0.00    -0.289 NA
ATOM     33  C   LIG    1       25.950 -16.695   2.662  0.00  0.00    +0.089 C 
ATOM     34  C   LIG    1       24.684 -17.530   3.011  0.00  0.00    +0.006 C 
ATOM     35  C   LIG    1       24.558 -17.999   4.468  0.00  0.00    -0.005 C 
ATOM     36  C   LIG    1       24.690 -19.513   4.706  0.00  0.00    +0.004 C 
ATOM     37  C   LIG    1       25.533 -20.254   3.688  0.00  0.00    +0.000 C 
ATOM     38  C   LIG    1       25.075 -20.027   2.260  0.00  0.00    +0.000 C 
ATOM     39  C   LIG    1       24.442 -18.661   1.977  0.00  0.00    +0.005 C 
ATOM     40  C   LIG    1       25.355 -17.138   5.459  0.00  0.00    +0.032 C 
BRANCH  31  43
ATOM     41  N   LIG    1       27.661 -18.818   5.770  0.00  0.00    -0.309 N 
ATOM     42  H   LIG    1       26.773 -18.862   6.275  0.00  0.00    +0.149 HD
ATOM     43  C   LIG    1       27.878 -17.646   5.091  0.00  0.00    +0.231 C 
ATOM     44  O   LIG    1       28.888 -17.392   4.458  0.00  0.00    -0.274 OA
BRANCH  41  46
ATOM     45  C   LIG    1       29.473 -20.063   7.037  0.00  0.00    +0.031 C 
ATOM     46  C   LIG    1       28.545 -20.023   5.804  0.00  0.00    +0.026 C 
ATOM     47  C   LIG    1       27.735 -21.335   5.804  0.00  0.00    +0.031 C 
ATOM     48  C   LIG    1       29.462 -19.999   4.566  0.00  0.00    +0.031 C 
ENDBRANCH  41  46
ENDBRANCH  31  43
ENDBRANCH  30  32
ENDBRANCH  27  30
ENDBRANCH   1  27
BRANCH   1  49
ATOM     49  C   LIG    1       25.770 -11.728   2.979  0.00  0.00    +0.060 C 
BRANCH  49  50
ATOM     50  C   LIG    1       27.008 -12.146   3.763  0.00  0.00    -0.045 A 
ATOM     51  C   LIG    1       27.371 -11.697   5.037  0.00  0.00    +0.003 A 
ATOM     52  C   LIG    1       28.622 -12.003   5.589  0.00  0.00    +0.000 A 
ATOM     53  C   LIG    1       29.468 -12.898   4.947  0.00  0.00    +0.000 A 
ATOM     54  C   LIG    1       29.068 -13.467   3.743  0.00  0.00    +0.000 A 
ATOM     55  C   LIG    1       27.863 -13.079   3.150  0.00  0.00    +0.003 A 
ENDBRANCH  49  50
ENDBRANCH   1  49
TORSDOF 14
ENDMDL
