MODEL 1
REMARK VINA RESULT:      -4.5      0.000      0.000
REMARK  Name = *****
REMARK                            x       y       z     vdW  Elec       q    Type
REMARK                         _______ _______ _______ _____ _____    ______ ____
ROOT
ATOM      1  N   LIG    1       26.606 -15.940   3.600  0.00  0.00    -0.324 N 
ENDROOT
BRANCH   1   2
ATOM      2  C   LIG    1       27.458 -14.890   4.059  0.00  0.00    +0.030 A 
ATOM      3  C   LIG    1       28.242 -14.057   3.213  0.00  0.00    +0.023 A 
ATOM      4  C   LIG    1       28.659 -12.725   3.563  0.00  0.00    +0.002 A 
ATOM      5  C   LIG    1       28.344 -12.190   4.802  0.00  0.00    +0.000 A 
ATOM      6  C   LIG    1       27.729 -13.032   5.716  0.00  0.00    +0.002 A 
ATOM      7  C   LIG    1       27.329 -14.352   5.359  0.00  0.00    +0.023 A 
ENDBRANCH   1   2
BRANCH   1   8
ATOM      8  C   LIG    1       27.011 -17.388   3.496  0.00  0.00    +0.126 C 
BRANCH   8   9
ATOM      9  C   LIG    1       26.081 -18.533   4.144  0.00  0.00    +0.100 C 
BRANCH   9  10
ATOM     10  N   LIG    1       26.793 -19.281   5.190  0.00  0.00    -0.296 NA
ATOM     11  C   LIG    1       28.240 -19.271   5.273  0.00  0.00    +0.085 C 
ATOM     12  C   LIG    1       28.564 -20.285   6.370  0.00  0.00    +0.017 C 
ATOM     13  C   LIG    1       27.235 -20.928   6.703  0.00  0.00    +0.017 C 
ATOM     14  C   LIG    1       26.366 -20.626   5.501  0.00  0.00    +0.085 C 
ENDBRANCH   9  10
BRANCH   9  15
ATOM     15  C   LIG    1       25.148 -19.407   3.204  0.00  0.00    +0.180 C 
BRANCH  15  16
ATOM     16  O   LIG    1       23.733 -19.518   3.355  0.00  0.00    -0.378 OA
BRANCH  16  17
ATOM     17  C   LIG    1       22.967 -19.018   4.471  0.00  0.00    +0.162 C 
BRANCH  17  19
ATOM     18  C   LIG    1       21.998 -21.407   5.093  0.00  0.00    +0.009 C 
ATOM     19  C   LIG    1       22.563 -20.087   5.570  0.00  0.00    +0.009 C 
ATOM     20  C   LIG    1       23.320 -20.511   6.819  0.00  0.00    +0.009 C 
ENDBRANCH  17  19
ENDBRANCH  16  17
ENDBRANCH  15  16
ENDBRANCH   9  15
ENDBRANCH   8   9
ENDBRANCH   1   8
BRANCH   1  21
ATOM     21  C   LIG    1       25.108 -15.720   3.424  0.00  0.00    +0.140 C 
BRANCH  21  22
ATOM     22  C   LIG    1       24.587 -14.289   3.349  0.00  0.00    -0.030 A 
ATOM     23  C   LIG    1       24.665 -13.509   2.178  0.00  0.00    +0.005 A 
ATOM     24  C   LIG    1       24.412 -12.108   2.265  0.00  0.00    +0.000 A 
ATOM     25  C   LIG    1       24.022 -11.450   3.385  0.00  0.00    +0.000 A 
ATOM     26  C   LIG    1       23.748 -12.239   4.512  0.00  0.00    +0.000 A 
ATOM     27  C   LIG    1       24.129 -13.584   4.360  0.00  0.00    +0.005 A 
ENDBRANCH  21  22
ENDBRANCH   1  21
TORSDOF 10
ENDMDL
MODEL 2
REMARK VINA RESULT:      -4.5      1.666      5.541
REMARK  Name = *****
REMARK                            x       y       z     vdW  Elec       q    Type
REMARK                         _______ _______ _______ _____ _____    ______ ____
ROOT
ATOM      1  N   LIG    1       24.358 -16.758   3.848  0.00  0.00    -0.324 N 
ENDROOT
BRANCH   1   2
ATOM      2  C   LIG    1       23.865 -18.097   3.804  0.00  0.00    +0.030 A 
ATOM      3  C   LIG    1       24.647 -19.237   3.472  0.00  0.00    +0.023 A 
ATOM      4  C   LIG    1       24.350 -20.572   3.920  0.00  0.00    +0.002 A 
ATOM      5  C   LIG    1       23.222 -20.825   4.685  0.00  0.00    +0.000 A 
ATOM      6  C   LIG    1       22.347 -19.770   4.886  0.00  0.00    +0.002 A 
ATOM      7  C   LIG    1       22.649 -18.454   4.430  0.00  0.00    +0.023 A 
ENDBRANCH   1   2
BRANCH   1   8
ATOM      8  C   LIG    1       25.670 -16.309   3.257  0.00  0.00    +0.126 C 
BRANCH   8   9
ATOM      9  C   LIG    1       26.979 -16.200   4.189  0.00  0.00    +0.100 C 
BRANCH   9  10
ATOM     10  N   LIG    1       27.576 -14.858   4.131  0.00  0.00    -0.296 NA
ATOM     11  C   LIG    1       27.401 -13.907   5.211  0.00  0.00    +0.085 C 
ATOM     12  C   LIG    1       28.026 -12.615   4.682  0.00  0.00    +0.017 C 
ATOM     13  C   LIG    1       28.357 -12.912   3.236  0.00  0.00    +0.017 C 
ATOM     14  C   LIG    1       27.496 -14.110   2.898  0.00  0.00    +0.085 C 
ENDBRANCH   9  10
BRANCH   9  15
ATOM     15  C   LIG    1       28.016 -17.401   4.223  0.00  0.00    +0.180 C 
BRANCH  15  16
ATOM     16  O   LIG    1       28.894 -17.674   5.315  0.00  0.00    -0.378 OA
BRANCH  16  17
ATOM     17  C   LIG    1       29.474 -18.958   5.623  0.00  0.00    +0.162 C 
BRANCH  17  19
ATOM     18  C   LIG    1       27.141 -20.140   6.058  0.00  0.00    +0.009 C 
ATOM     19  C   LIG    1       28.577 -19.936   6.490  0.00  0.00    +0.009 C 
ATOM     20  C   LIG    1       28.923 -21.303   7.060  0.00  0.00    +0.009 C 
ENDBRANCH  17  19
ENDBRANCH  16  17
ENDBRANCH  15  16
ENDBRANCH   9  15
ENDBRANCH   8   9
ENDBRANCH   1   8
BRANCH   1  21
ATOM     21  C   LIG    1       23.462 -15.600   4.274  0.00  0.00    +0.140 C 
BRANCH  21  22
ATOM     22  C   LIG    1       23.854 -14.187   3.856  0.00  0.00    -0.030 A 
ATOM     23  C   LIG    1       23.969 -13.124   4.774  0.00  0.00    +0.005 A 
ATOM     24  C   LIG    1       24.067 -11.791   4.276  0.00  0.00    +0.000 A 
ATOM     25  C   LIG    1       24.138 -11.447   2.967  0.00  0.00    +0.000 A 
ATOM     26  C   LIG    1       24.226 -12.501   2.045  0.00  0.00    +0.000 A 
ATOM     27  C   LIG    1       24.011 -13.766   2.620  0.00  0.00    +0.005 A 
ENDBRANCH  21  22
ENDBRANCH   1  21
TORSDOF 10
ENDMDL
MODEL 3
REMARK VINA RESULT:      -3.1      1.030      3.197
REMARK  Name = *****
REMARK                            x       y       z     vdW  Elec       q    Type
REMARK                         _______ _______ _______ _____ _____    ______ ____
ROOT
ATOM      1  N   LIG    1       26.173 -16.472   3.546  0.00  0.00    -0.324 N 
ENDROOT
BRANCH   1   2
ATOM      2  C   LIG    1       25.263 -15.401   3.299  0.00  0.00    +0.030 A 
ATOM      3  C   LIG    1       24.247 -14.978   4.201  0.00  0.00    +0.023 A 
ATOM      4  C   LIG    1       23.704 -13.646   4.229  0.00  0.00    +0.002 A 
ATOM      5  C   LIG    1       24.128 -12.691   3.318  0.00  0.00    +0.000 A 
ATOM      6  C   LIG    1       24.989 -13.113   2.318  0.00  0.00    +0.002 A 
ATOM      7  C   LIG    1       25.513 -14.437   2.296  0.00  0.00    +0.023 A 
ENDBRANCH   1   2
BRANCH   1   8
ATOM      8  C   LIG    1       25.983 -17.887   3.065  0.00  0.00    +0.126 C 
BRANCH   8   9
ATOM      9  C   LIG    1       25.355 -18.996   4.051  0.00  0.00    +0.100 C 
BRANCH   9  10
ATOM     10  N   LIG    1       26.310 -19.398   5.093  0.00  0.00    -0.296 NA
ATOM     11  C   LIG    1       27.735 -19.453   4.830  0.00  0.00    +0.085 C 
ATOM     12  C   LIG    1       28.331 -20.064   6.098  0.00  0.00    +0.017 C 
ATOM     13  C   LIG    1       27.132 -20.474   6.927  0.00  0.00    +0.017 C 
ATOM     14  C   LIG    1       25.996 -20.533   5.930  0.00  0.00    +0.085 C 
ENDBRANCH   9  10
BRANCH   9  15
ATOM     15  C   LIG    1       24.479 -20.172   3.446  0.00  0.00    +0.180 C 
BRANCH  15  16
ATOM     16  O   LIG    1       23.389 -20.795   4.127  0.00  0.00    -0.378 OA
BRANCH  16  17
ATOM     17  C   LIG    1       22.302 -20.104   4.777  0.00  0.00    +0.162 C 
BRANCH  17  19
ATOM     18  C   LIG    1       20.564 -18.584   3.474  0.00  0.00    +0.009 C 
ATOM     19  C   LIG    1       21.906 -18.698   4.162  0.00  0.00    +0.009 C 
ATOM     20  C   LIG    1       22.061 -17.310   4.764  0.00  0.00    +0.009 C 
ENDBRANCH  17  19
ENDBRANCH  16  17
ENDBRANCH  15  16
ENDBRANCH   9  15
ENDBRANCH   8   9
ENDBRANCH   1   8
BRANCH   1  21
ATOM     21  C   LIG    1       27.568 -16.209   4.104  0.00  0.00    +0.140 C 
BRANCH  21  22
ATOM     22  C   LIG    1       27.965 -14.770   4.418  0.00  0.00    -0.030 A 
ATOM     23  C   LIG    1       27.477 -14.072   5.541  0.00  0.00    +0.005 A 
ATOM     24  C   LIG    1       27.674 -12.661   5.614  0.00  0.00    +0.000 A 
ATOM     25  C   LIG    1       28.370 -11.920   4.718  0.00  0.00    +0.000 A 
ATOM     26  C   LIG    1       29.030 -12.624   3.700  0.00  0.00    +0.000 A 
ATOM     27  C   LIG    1       28.688 -13.987   3.649  0.00  0.00    +0.005 A 
ENDBRANCH  21  22
ENDBRANCH   1  21
TORSDOF 10
ENDMDL
MODEL 4
REMARK VINA RESULT:      -3.1      1.792      7.242
REMARK  Name = *****
REMARK                            x       y       z     vdW  Elec       q    Type
REMARK                         _______ _______ _______ _____ _____    ______ ____
ROOT
ATOM      1  N   LIG    1       25.647 -17.523   3.615  0.00  0.00    -0.324 N 
ENDROOT
BRANCH   1   2
ATOM      2  C   LIG    1       24.596 -18.488   3.623  0.00  0.00    +0.030 A 
ATOM      3  C   LIG    1       24.774 -19.881   3.395  0.00  0.00    +0.023 A 
ATOM      4  C   LIG    1       23.890 -20.896   3.903  0.00  0.00    +0.002 A 
ATOM      5  C   LIG    1       22.758 -20.550   4.624  0.00  0.00    +0.000 A 
ATOM      6  C   LIG    1       22.460 -19.200   4.721  0.00  0.00    +0.002 A 
ATOM      7  C   LIG    1       23.340 -18.205   4.206  0.00  0.00    +0.023 A 
ENDBRANCH   1   2
BRANCH   1   8
ATOM      8  C   LIG    1       25.460 -16.049   3.866  0.00  0.00    +0.126 C 
BRANCH   8   9
ATOM      9  C   LIG    1       26.319 -14.973   3.029  0.00  0.00    +0.100 C 
BRANCH   9  10
ATOM     10  N   LIG    1       27.252 -14.235   3.893  0.00  0.00    -0.296 NA
ATOM     11  C   LIG    1       26.866 -13.797   5.220  0.00  0.00    +0.085 C 
ATOM     12  C   LIG    1       28.043 -12.944   5.694  0.00  0.00    +0.017 C 
ATOM     13  C   LIG    1       28.947 -12.830   4.485  0.00  0.00    +0.017 C 
ATOM     14  C   LIG    1       28.048 -13.176   3.318  0.00  0.00    +0.085 C 
ENDBRANCH   9  10
BRANCH   9  15
ATOM     15  C   LIG    1       25.606 -14.107   1.908  0.00  0.00    +0.180 C 
BRANCH  15  16
ATOM     16  O   LIG    1       25.410 -12.695   1.986  0.00  0.00    -0.378 OA
BRANCH  16  17
ATOM     17  C   LIG    1       24.167 -12.038   2.309  0.00  0.00    +0.162 C 
BRANCH  17  19
ATOM     18  C   LIG    1       23.488 -13.601   4.340  0.00  0.00    +0.009 C 
ATOM     19  C   LIG    1       23.665 -12.198   3.804  0.00  0.00    +0.009 C 
ATOM     20  C   LIG    1       24.110 -11.448   5.050  0.00  0.00    +0.009 C 
ENDBRANCH  17  19
ENDBRANCH  16  17
ENDBRANCH  15  16
ENDBRANCH   9  15
ENDBRANCH   8   9
ENDBRANCH   1   8
BRANCH   1  21
ATOM     21  C   LIG    1       27.111 -17.951   3.610  0.00  0.00    +0.140 C 
BRANCH  21  22
ATOM     22  C   LIG    1       27.664 -18.663   4.840  0.00  0.00    -0.030 A 
ATOM     23  C   LIG    1       28.898 -18.323   5.429  0.00  0.00    +0.005 A 
ATOM     24  C   LIG    1       29.467 -19.204   6.394  0.00  0.00    +0.000 A 
ATOM     25  C   LIG    1       28.882 -20.332   6.867  0.00  0.00    +0.000 A 
ATOM     26  C   LIG    1       27.570 -20.584   6.441  0.00  0.00    +0.000 A 
ATOM     27  C   LIG    1       27.140 -19.724   5.414  0.00  0.00    +0.005 A 
ENDBRANCH  21  22
ENDBRANCH   1  21
TORSDOF 10
ENDMDL
MODEL 5
REMARK VINA RESULT:      -2.8      1.304      5.681
REMARK  Name = *****
REMARK                            x       y       z     vdW  Elec       q    Type
REMARK                         _______ _______ _______ _____ _____    ______ ____
ROOT
ATOM      1  N   LIG    1       26.576 -15.864   3.740  0.00  0.00    -0.324 N 
ENDROOT
BRANCH   1   2
ATOM      2  C   LIG    1       26.981 -14.536   4.074  0.00  0.00    +0.030 A 
ATOM      3  C   LIG    1       26.866 -13.956   5.367  0.00  0.00    +0.023 A 
ATOM      4  C   LIG    1       27.707 -12.891   5.846  0.00  0.00    +0.002 A 
ATOM      5  C   LIG    1       28.672 -12.330   5.024  0.00  0.00    +0.000 A 
ATOM      6  C   LIG    1       28.699 -12.752   3.705  0.00  0.00    +0.002 A 
ATOM      7  C   LIG    1       27.856 -13.802   3.241  0.00  0.00    +0.023 A 
ENDBRANCH   1   2
BRANCH   1   8
ATOM      8  C   LIG    1       25.179 -16.257   3.332  0.00  0.00    +0.126 C 
BRANCH   8   9
ATOM      9  C   LIG    1       23.947 -15.256   3.608  0.00  0.00    +0.100 C 
BRANCH   9  10
ATOM     10  N   LIG    1       24.309 -13.860   3.323  0.00  0.00    -0.296 NA
ATOM     11  C   LIG    1       23.798 -12.768   4.130  0.00  0.00    +0.085 C 
ATOM     12  C   LIG    1       24.273 -11.509   3.406  0.00  0.00    +0.017 C 
ATOM     13  C   LIG    1       24.885 -12.013   2.117  0.00  0.00    +0.017 C 
ATOM     14  C   LIG    1       24.308 -13.403   1.953  0.00  0.00    +0.085 C 
ENDBRANCH   9  10
BRANCH   9  15
ATOM     15  C   LIG    1       23.039 -15.471   4.892  0.00  0.00    +0.180 C 
BRANCH  15  16
ATOM     16  O   LIG    1       22.220 -16.619   5.113  0.00  0.00    -0.378 OA
BRANCH  16  17
ATOM     17  C   LIG    1       22.121 -17.760   4.236  0.00  0.00    +0.162 C 
BRANCH  17  19
ATOM     18  C   LIG    1       22.745 -19.932   5.623  0.00  0.00    +0.009 C 
ATOM     19  C   LIG    1       23.121 -18.953   4.533  0.00  0.00    +0.009 C 
ATOM     20  C   LIG    1       23.857 -19.854   3.553  0.00  0.00    +0.009 C 
ENDBRANCH  17  19
ENDBRANCH  16  17
ENDBRANCH  15  16
ENDBRANCH   9  15
ENDBRANCH   8   9
ENDBRANCH   1   8
BRANCH   1  21
ATOM     21  C   LIG    1       27.602 -16.968   3.512  0.00  0.00    +0.140 C 
BRANCH  21  22
ATOM     22  C   LIG    1       27.810 -18.005   4.611  0.00  0.00    -0.030 A 
ATOM     23  C   LIG    1       28.989 -18.076   5.379  0.00  0.00    +0.005 A 
ATOM     24  C   LIG    1       29.217 -19.229   6.187  0.00  0.00    +0.000 A 
ATOM     25  C   LIG    1       28.349 -20.257   6.346  0.00  0.00    +0.000 A 
ATOM     26  C   LIG    1       27.089 -20.114   5.747  0.00  0.00    +0.000 A 
ATOM     27  C   LIG    1       27.001 -19.003   4.889  0.00  0.00    +0.005 A 
ENDBRANCH  21  22
ENDBRANCH   1  21
TORSDOF 10
ENDMDL
MODEL 6
REMARK VINA RESULT:      -2.4      1.728      7.742
REMARK  Name = *****
REMARK                            x       y       z     vdW  Elec       q    Type
REMARK                         _______ _______ _______ _____ _____    ______ ____
ROOT
ATOM      1  N   LIG    1       24.941 -17.965   3.461  0.00  0.00    -0.324 N 
ENDROOT
BRANCH   1   2
ATOM      2  C   LIG    1       24.138 -19.090   3.818  0.00  0.00    +0.030 A 
ATOM      3  C   LIG    1       24.449 -20.440   3.496  0.00  0.00    +0.023 A 
ATOM      4  C   LIG    1       23.988 -21.572   4.256  0.00  0.00    +0.002 A 
ATOM      5  C   LIG    1       23.153 -21.395   5.349  0.00  0.00    +0.000 A 
ATOM      6  C   LIG    1       22.692 -20.111   5.589  0.00  0.00    +0.002 A 
ATOM      7  C   LIG    1       23.150 -19.000   4.824  0.00  0.00    +0.023 A 
ENDBRANCH   1   2
BRANCH   1   8
ATOM      8  C   LIG    1       24.436 -16.548   3.363  0.00  0.00    +0.126 C 
BRANCH   8   9
ATOM      9  C   LIG    1       25.381 -15.324   3.813  0.00  0.00    +0.100 C 
BRANCH   9  10
ATOM     10  N   LIG    1       24.670 -14.038   3.749  0.00  0.00    -0.296 NA
ATOM     11  C   LIG    1       24.605 -13.272   2.520  0.00  0.00    +0.085 C 
ATOM     12  C   LIG    1       23.935 -11.960   2.927  0.00  0.00    +0.017 C 
ATOM     13  C   LIG    1       23.832 -12.033   4.436  0.00  0.00    +0.017 C 
ATOM     14  C   LIG    1       24.842 -13.090   4.825  0.00  0.00    +0.085 C 
ENDBRANCH   9  10
BRANCH   9  15
ATOM     15  C   LIG    1       26.893 -15.285   3.331  0.00  0.00    +0.180 C 
BRANCH  15  16
ATOM     16  O   LIG    1       27.524 -14.140   2.757  0.00  0.00    -0.378 OA
BRANCH  16  17
ATOM     17  C   LIG    1       28.662 -13.445   3.308  0.00  0.00    +0.162 C 
BRANCH  17  19
ATOM     18  C   LIG    1       27.753 -13.357   5.798  0.00  0.00    +0.009 C 
ATOM     19  C   LIG    1       28.397 -12.627   4.640  0.00  0.00    +0.009 C 
ATOM     20  C   LIG    1       29.311 -11.650   5.363  0.00  0.00    +0.009 C 
ENDBRANCH  17  19
ENDBRANCH  16  17
ENDBRANCH  15  16
ENDBRANCH   9  15
ENDBRANCH   8   9
ENDBRANCH   1   8
BRANCH   1  21
ATOM     21  C   LIG    1       26.461 -18.067   3.404  0.00  0.00    +0.140 C 
BRANCH  21  22
ATOM     22  C   LIG    1       27.196 -18.645   4.609  0.00  0.00    -0.030 A 
ATOM     23  C   LIG    1       28.463 -18.187   5.022  0.00  0.00    +0.005 A 
ATOM     24  C   LIG    1       29.195 -18.954   5.976  0.00  0.00    +0.000 A 
ATOM     25  C   LIG    1       28.745 -20.072   6.594  0.00  0.00    +0.000 A 
ATOM     26  C   LIG    1       27.413 -20.434   6.345  0.00  0.00    +0.000 A 
ATOM     27  C   LIG    1       26.813 -19.686   5.316  0.00  0.00    +0.005 A 
ENDBRANCH  21  22
ENDBRANCH   1  21
TORSDOF 10
ENDMDL
MODEL 7
REMARK VINA RESULT:      -1.7      1.636      5.828
REMARK  Name = *****
REMARK                            x       y       z     vdW  Elec       q    Type
REMARK                         _______ _______ _______ _____ _____    ______ ____
ROOT
ATOM      1  N   LIG    1       24.673 -16.564   3.541  0.00  0.00    -0.324 N 
ENDROOT
BRANCH   1   2
ATOM      2  C   LIG    1       24.860 -15.149   3.522  0.00  0.00    +0.030 A 
ATOM      3  C   LIG    1       25.440 -14.425   2.443  0.00  0.00    +0.023 A 
ATOM      4  C   LIG    1       25.165 -13.039   2.169  0.00  0.00    +0.002 A 
ATOM      5  C   LIG    1       24.329 -12.308   2.998  0.00  0.00    +0.000 A 
ATOM      6  C   LIG    1       23.882 -12.931   4.152  0.00  0.00    +0.002 A 
ATOM      7  C   LIG    1       24.168 -14.302   4.416  0.00  0.00    +0.023 A 
ENDBRANCH   1   2
BRANCH   1   8
ATOM      8  C   LIG    1       25.774 -17.577   3.369  0.00  0.00    +0.126 C 
BRANCH   8   9
ATOM      9  C   LIG    1       27.273 -17.227   3.845  0.00  0.00    +0.100 C 
BRANCH   9  10
ATOM     10  N   LIG    1       27.743 -18.158   4.882  0.00  0.00    -0.296 NA
ATOM     11  C   LIG    1       29.143 -18.229   5.253  0.00  0.00    +0.085 C 
ATOM     12  C   LIG    1       29.219 -19.411   6.219  0.00  0.00    +0.017 C 
ATOM     13  C   LIG    1       27.839 -20.032   6.175  0.00  0.00    +0.017 C 
ATOM     14  C   LIG    1       27.240 -19.511   4.887  0.00  0.00    +0.085 C 
ENDBRANCH   9  10
BRANCH   9  15
ATOM     15  C   LIG    1       27.691 -15.711   4.057  0.00  0.00    +0.180 C 
BRANCH  15  16
ATOM     16  O   LIG    1       27.615 -15.023   5.306  0.00  0.00    -0.378 OA
BRANCH  16  17
ATOM     17  C   LIG    1       27.322 -13.621   5.474  0.00  0.00    +0.162 C 
BRANCH  17  19
ATOM     18  C   LIG    1       29.200 -11.765   5.231  0.00  0.00    +0.009 C 
ATOM     19  C   LIG    1       28.151 -12.624   4.561  0.00  0.00    +0.009 C 
ATOM     20  C   LIG    1       28.781 -12.871   3.199  0.00  0.00    +0.009 C 
ENDBRANCH  17  19
ENDBRANCH  16  17
ENDBRANCH  15  16
ENDBRANCH   9  15
ENDBRANCH   8   9
ENDBRANCH   1   8
BRANCH   1  21
ATOM     21  C   LIG    1       23.358 -17.179   4.008  0.00  0.00    +0.140 C 
BRANCH  21  22
ATOM     22  C   LIG    1       23.302 -18.685   4.238  0.00  0.00    -0.030 A 
ATOM     23  C   LIG    1       22.638 -19.266   5.337  0.00  0.00    +0.005 A 
ATOM     24  C   LIG    1       22.862 -20.644   5.628  0.00  0.00    +0.000 A 
ATOM     25  C   LIG    1       23.616 -21.489   4.884  0.00  0.00    +0.000 A 
ATOM     26  C   LIG    1       24.124 -20.981   3.679  0.00  0.00    +0.000 A 
ATOM     27  C   LIG    1       23.943 -19.594   3.536  0.00  0.00    +0.005 A 
ENDBRANCH  21  22
ENDBRANCH   1  21
TORSDOF 10
ENDMDL
