MODEL 1
REMARK VINA RESULT:      -7.4      0.000      0.000
REMARK  Name = *****
REMARK                            x       y       z     vdW  Elec       q    Type
REMARK                         _______ _______ _______ _____ _____    ______ ____
ROOT
ATOM      1  C   LIG    1       26.712 -20.718   6.651  0.00  0.00    +0.134 A 
ATOM      2  C   LIG    1       28.040 -20.371   6.956  0.00  0.00    +0.044 A 
ATOM      3  C   LIG    1       28.595 -19.431   6.094  0.00  0.00    +0.080 A 
ATOM      4  C   LIG    1       29.820 -18.889   6.421  0.00  0.00    +0.077 A 
ATOM      5  C   LIG    1       30.565 -19.330   7.526  0.00  0.00    +0.164 A 
ATOM      6  C   LIG    1       30.058 -20.341   8.356  0.00  0.00    +0.163 A 
ATOM      7  N   LIG    1       27.990 -18.998   4.985  0.00  0.00    -0.235 NA
ATOM      8  C   LIG    1       26.774 -19.494   4.735  0.00  0.00    +0.224 A 
ATOM      9  C   LIG    1       28.796 -20.852   8.065  0.00  0.00    +0.062 A 
ATOM     10  N   LIG    1       26.086 -20.321   5.527  0.00  0.00    -0.220 NA
ENDROOT
BRANCH   1  11
ATOM     11  N   LIG    1       25.918 -21.443   7.573  0.00  0.00    -0.299 N 
ATOM     12  H   LIG    1       26.571 -21.713   8.310  0.00  0.00    +0.154 HD
BRANCH  11  15
ATOM     13  C   LIG    1       25.089 -24.873   6.401  0.00  0.00    +0.026 A 
ATOM     14  C   LIG    1       25.813 -23.751   6.819  0.00  0.00    +0.040 A 
ATOM     15  C   LIG    1       25.148 -22.583   7.209  0.00  0.00    +0.034 A 
ATOM     16  C   LIG    1       23.746 -22.550   7.141  0.00  0.00    +0.023 A 
ATOM     17  C   LIG    1       23.022 -23.673   6.744  0.00  0.00    +0.003 A 
ATOM     18  C   LIG    1       23.694 -24.836   6.370  0.00  0.00    +0.017 A 
BRANCH  13  20
ATOM     19  C   LIG    1       26.399 -27.024   5.633  0.00  0.00    +0.009 C 
ATOM     20  C   LIG    1       25.782 -26.047   5.979  0.00  0.00    -0.070 C 
ENDBRANCH  13  20
ENDBRANCH  11  15
ENDBRANCH   1  11
BRANCH   6  21
ATOM     21  O   LIG    1       30.805 -20.727   9.441  0.00  0.00    -0.486 OA
BRANCH  21  22
ATOM     22  C   LIG    1       31.073 -22.130   9.596  0.00  0.00    +0.257 C 
BRANCH  22  23
ATOM     23  C   LIG    1       31.968 -22.593   8.439  0.00  0.00    +0.200 C 
BRANCH  23  24
ATOM     24  O   LIG    1       32.224 -23.999   8.522  0.00  0.00    -0.380 OA
ATOM     25  C   LIG    1       33.025 -24.449   7.432  0.00  0.00    +0.194 C 
ENDBRANCH  23  24
ENDBRANCH  22  23
ENDBRANCH  21  22
ENDBRANCH   6  21
BRANCH   5  26
ATOM     26  O   LIG    1       31.790 -18.792   7.833  0.00  0.00    -0.486 OA
BRANCH  26  27
ATOM     27  C   LIG    1       31.898 -18.203   9.135  0.00  0.00    +0.257 C 
BRANCH  27  28
ATOM     28  C   LIG    1       31.465 -16.752   9.042  0.00  0.00    +0.200 C 
BRANCH  28  29
ATOM     29  O   LIG    1       30.470 -16.481  10.029  0.00  0.00    -0.380 OA
ATOM     30  C   LIG    1       30.385 -17.550  10.963  0.00  0.00    +0.194 C 
ENDBRANCH  28  29
ENDBRANCH  27  28
ENDBRANCH  26  27
ENDBRANCH   5  26
TORSDOF 11
ENDMDL
MODEL 2
REMARK VINA RESULT:      -7.4      5.635      9.449
REMARK  Name = *****
REMARK                            x       y       z     vdW  Elec       q    Type
REMARK                         _______ _______ _______ _____ _____    ______ ____
ROOT
ATOM      1  C   LIG    1       25.270 -27.362   6.452  0.00  0.00    +0.134 A 
ATOM      2  C   LIG    1       25.595 -28.251   7.491  0.00  0.00    +0.044 A 
ATOM      3  C   LIG    1       25.150 -29.553   7.286  0.00  0.00    +0.080 A 
ATOM      4  C   LIG    1       25.582 -30.535   8.153  0.00  0.00    +0.077 A 
ATOM      5  C   LIG    1       26.358 -30.247   9.286  0.00  0.00    +0.164 A 
ATOM      6  C   LIG    1       26.743 -28.925   9.557  0.00  0.00    +0.163 A 
ATOM      7  N   LIG    1       24.356 -29.911   6.273  0.00  0.00    -0.235 NA
ATOM      8  C   LIG    1       24.013 -28.948   5.413  0.00  0.00    +0.224 A 
ATOM      9  C   LIG    1       26.359 -27.937   8.653  0.00  0.00    +0.062 A 
ATOM     10  N   LIG    1       24.449 -27.685   5.435  0.00  0.00    -0.220 NA
ENDROOT
BRANCH   1  11
ATOM     11  N   LIG    1       25.873 -26.083   6.373  0.00  0.00    -0.299 N 
ATOM     12  H   LIG    1       26.659 -26.134   7.023  0.00  0.00    +0.154 HD
BRANCH  11  15
ATOM     13  C   LIG    1       25.186 -22.582   7.423  0.00  0.00    +0.026 A 
ATOM     14  C   LIG    1       25.861 -23.772   7.122  0.00  0.00    +0.040 A 
ATOM     15  C   LIG    1       25.165 -24.872   6.612  0.00  0.00    +0.034 A 
ATOM     16  C   LIG    1       23.775 -24.771   6.438  0.00  0.00    +0.023 A 
ATOM     17  C   LIG    1       23.104 -23.581   6.718  0.00  0.00    +0.003 A 
ATOM     18  C   LIG    1       23.809 -22.486   7.214  0.00  0.00    +0.017 A 
BRANCH  13  20
ATOM     19  C   LIG    1       26.495 -20.549   8.464  0.00  0.00    +0.009 C 
ATOM     20  C   LIG    1       25.905 -21.479   7.970  0.00  0.00    -0.070 C 
ENDBRANCH  13  20
ENDBRANCH  11  15
ENDBRANCH   1  11
BRANCH   6  21
ATOM     21  O   LIG    1       27.524 -28.687  10.660  0.00  0.00    -0.486 OA
BRANCH  21  22
ATOM     22  C   LIG    1       26.903 -28.046  11.786  0.00  0.00    +0.257 C 
BRANCH  22  23
ATOM     23  C   LIG    1       27.503 -28.620  13.075  0.00  0.00    +0.200 C 
BRANCH  23  24
ATOM     24  O   LIG    1       28.361 -29.730  12.789  0.00  0.00    -0.380 OA
ATOM     25  C   LIG    1       29.545 -29.692  13.582  0.00  0.00    +0.194 C 
ENDBRANCH  23  24
ENDBRANCH  22  23
ENDBRANCH  21  22
ENDBRANCH   6  21
BRANCH   5  26
ATOM     26  O   LIG    1       26.770 -31.231  10.149  0.00  0.00    -0.486 OA
BRANCH  26  27
ATOM     27  C   LIG    1       25.727 -32.043  10.704  0.00  0.00    +0.257 C 
BRANCH  27  28
ATOM     28  C   LIG    1       25.143 -31.320  11.903  0.00  0.00    +0.200 C 
BRANCH  28  29
ATOM     29  O   LIG    1       23.718 -31.315  11.817  0.00  0.00    -0.380 OA
ATOM     30  C   LIG    1       23.257 -30.137  11.168  0.00  0.00    +0.194 C 
ENDBRANCH  28  29
ENDBRANCH  27  28
ENDBRANCH  26  27
ENDBRANCH   5  26
TORSDOF 11
ENDMDL
MODEL 3
REMARK VINA RESULT:      -6.8      3.036      5.549
REMARK  Name = *****
REMARK                            x       y       z     vdW  Elec       q    Type
REMARK                         _______ _______ _______ _____ _____    ______ ____
ROOT
ATOM      1  C   LIG    1       25.860 -21.517   6.390  0.00  0.00    +0.134 A 
ATOM      2  C   LIG    1       26.945 -20.629   6.485  0.00  0.00    +0.044 A 
ATOM      3  C   LIG    1       27.708 -20.784   7.639  0.00  0.00    +0.080 A 
ATOM      4  C   LIG    1       28.897 -20.093   7.732  0.00  0.00    +0.077 A 
ATOM      5  C   LIG    1       29.305 -19.166   6.761  0.00  0.00    +0.164 A 
ATOM      6  C   LIG    1       28.504 -18.932   5.633  0.00  0.00    +0.163 A 
ATOM      7  N   LIG    1       27.368 -21.593   8.645  0.00  0.00    -0.235 NA
ATOM      8  C   LIG    1       26.244 -22.300   8.491  0.00  0.00    +0.224 A 
ATOM      9  C   LIG    1       27.330 -19.669   5.503  0.00  0.00    +0.062 A 
ATOM     10  N   LIG    1       25.475 -22.323   7.398  0.00  0.00    -0.220 NA
ENDROOT
BRANCH   1  11
ATOM     11  N   LIG    1       25.154 -21.677   5.172  0.00  0.00    -0.299 N 
ATOM     12  H   LIG    1       25.805 -21.345   4.459  0.00  0.00    +0.154 HD
BRANCH  11  15
ATOM     13  C   LIG    1       22.531 -19.093   4.651  0.00  0.00    +0.026 A 
ATOM     14  C   LIG    1       23.778 -19.704   4.833  0.00  0.00    +0.040 A 
ATOM     15  C   LIG    1       23.878 -21.095   4.930  0.00  0.00    +0.034 A 
ATOM     16  C   LIG    1       22.704 -21.863   4.872  0.00  0.00    +0.023 A 
ATOM     17  C   LIG    1       21.463 -21.258   4.671  0.00  0.00    +0.003 A 
ATOM     18  C   LIG    1       21.376 -19.872   4.563  0.00  0.00    +0.017 A 
BRANCH  13  20
ATOM     19  C   LIG    1       22.396 -16.466   4.548  0.00  0.00    +0.009 C 
ATOM     20  C   LIG    1       22.442 -17.671   4.584  0.00  0.00    -0.070 C 
ENDBRANCH  13  20
ENDBRANCH  11  15
ENDBRANCH   1  11
BRANCH   6  21
ATOM     21  O   LIG    1       28.950 -18.038   4.692  0.00  0.00    -0.486 OA
BRANCH  21  22
ATOM     22  C   LIG    1       28.264 -16.778   4.598  0.00  0.00    +0.257 C 
BRANCH  22  23
ATOM     23  C   LIG    1       27.102 -16.921   3.606  0.00  0.00    +0.200 C 
BRANCH  23  24
ATOM     24  O   LIG    1       26.672 -15.639   3.136  0.00  0.00    -0.380 OA
ATOM     25  C   LIG    1       27.458 -14.589   3.692  0.00  0.00    +0.194 C 
ENDBRANCH  23  24
ENDBRANCH  22  23
ENDBRANCH  21  22
ENDBRANCH   6  21
BRANCH   5  26
ATOM     26  O   LIG    1       30.485 -18.474   6.872  0.00  0.00    -0.486 OA
BRANCH  26  27
ATOM     27  C   LIG    1       31.451 -19.038   7.768  0.00  0.00    +0.257 C 
BRANCH  27  28
ATOM     28  C   LIG    1       31.973 -17.933   8.668  0.00  0.00    +0.200 C 
BRANCH  28  29
ATOM     29  O   LIG    1       31.883 -18.339  10.033  0.00  0.00    -0.380 OA
ATOM     30  C   LIG    1       30.730 -17.778  10.648  0.00  0.00    +0.194 C 
ENDBRANCH  28  29
ENDBRANCH  27  28
ENDBRANCH  26  27
ENDBRANCH   5  26
TORSDOF 11
ENDMDL
MODEL 4
REMARK VINA RESULT:      -6.7      5.409      9.753
REMARK  Name = *****
REMARK                            x       y       z     vdW  Elec       q    Type
REMARK                         _______ _______ _______ _____ _____    ______ ____
ROOT
ATOM      1  C   LIG    1       25.289 -27.158   6.321  0.00  0.00    +0.134 A 
ATOM      2  C   LIG    1       25.491 -28.175   7.270  0.00  0.00    +0.044 A 
ATOM      3  C   LIG    1       25.045 -29.428   6.863  0.00  0.00    +0.080 A 
ATOM      4  C   LIG    1       25.369 -30.520   7.642  0.00  0.00    +0.077 A 
ATOM      5  C   LIG    1       26.031 -30.394   8.873  0.00  0.00    +0.164 A 
ATOM      6  C   LIG    1       26.409 -29.126   9.340  0.00  0.00    +0.163 A 
ATOM      7  N   LIG    1       24.353 -29.638   5.741  0.00  0.00    -0.235 NA
ATOM      8  C   LIG    1       24.116 -28.568   4.976  0.00  0.00    +0.224 A 
ATOM      9  C   LIG    1       26.138 -28.026   8.532  0.00  0.00    +0.062 A 
ATOM     10  N   LIG    1       24.571 -27.331   5.195  0.00  0.00    -0.220 NA
ENDROOT
BRANCH   1  11
ATOM     11  N   LIG    1       25.921 -25.897   6.458  0.00  0.00    -0.299 N 
ATOM     12  H   LIG    1       26.594 -26.034   7.214  0.00  0.00    +0.154 HD
BRANCH  11  15
ATOM     13  C   LIG    1       25.213 -22.404   7.518  0.00  0.00    +0.026 A 
ATOM     14  C   LIG    1       25.895 -23.588   7.216  0.00  0.00    +0.040 A 
ATOM     15  C   LIG    1       25.206 -24.691   6.700  0.00  0.00    +0.034 A 
ATOM     16  C   LIG    1       23.816 -24.596   6.522  0.00  0.00    +0.023 A 
ATOM     17  C   LIG    1       23.138 -23.410   6.804  0.00  0.00    +0.003 A 
ATOM     18  C   LIG    1       23.836 -22.314   7.306  0.00  0.00    +0.017 A 
BRANCH  13  20
ATOM     19  C   LIG    1       26.497 -20.353   8.557  0.00  0.00    +0.009 C 
ATOM     20  C   LIG    1       25.925 -21.298   8.072  0.00  0.00    -0.070 C 
ENDBRANCH  13  20
ENDBRANCH  11  15
ENDBRANCH   1  11
BRANCH   6  21
ATOM     21  O   LIG    1       27.078 -29.046  10.536  0.00  0.00    -0.486 OA
BRANCH  21  22
ATOM     22  C   LIG    1       26.331 -28.615  11.686  0.00  0.00    +0.257 C 
BRANCH  22  23
ATOM     23  C   LIG    1       26.913 -27.286  12.184  0.00  0.00    +0.200 C 
BRANCH  23  24
ATOM     24  O   LIG    1       26.309 -26.895  13.421  0.00  0.00    -0.380 OA
ATOM     25  C   LIG    1       26.698 -25.576  13.798  0.00  0.00    +0.194 C 
ENDBRANCH  23  24
ENDBRANCH  22  23
ENDBRANCH  21  22
ENDBRANCH   6  21
BRANCH   5  26
ATOM     26  O   LIG    1       26.334 -31.486   9.646  0.00  0.00    -0.486 OA
BRANCH  26  27
ATOM     27  C   LIG    1       27.330 -32.366   9.109  0.00  0.00    +0.257 C 
BRANCH  27  28
ATOM     28  C   LIG    1       26.678 -33.704   8.811  0.00  0.00    +0.200 C 
BRANCH  28  29
ATOM     29  O   LIG    1       26.440 -33.822   7.409  0.00  0.00    -0.380 OA
ATOM     30  C   LIG    1       27.554 -33.340   6.668  0.00  0.00    +0.194 C 
ENDBRANCH  28  29
ENDBRANCH  27  28
ENDBRANCH  26  27
ENDBRANCH   5  26
TORSDOF 11
ENDMDL
MODEL 5
REMARK VINA RESULT:      -6.6      4.965      7.811
REMARK  Name = *****
REMARK                            x       y       z     vdW  Elec       q    Type
REMARK                         _______ _______ _______ _____ _____    ______ ____
ROOT
ATOM      1  C   LIG    1       25.779 -27.996   7.273  0.00  0.00    +0.134 A 
ATOM      2  C   LIG    1       25.532 -26.691   6.812  0.00  0.00    +0.044 A 
ATOM      3  C   LIG    1       24.451 -26.590   5.942  0.00  0.00    +0.080 A 
ATOM      4  C   LIG    1       24.014 -25.331   5.588  0.00  0.00    +0.077 A 
ATOM      5  C   LIG    1       24.686 -24.164   5.984  0.00  0.00    +0.164 A 
ATOM      6  C   LIG    1       25.832 -24.253   6.789  0.00  0.00    +0.163 A 
ATOM      7  N   LIG    1       23.789 -27.645   5.461  0.00  0.00    -0.235 NA
ATOM      8  C   LIG    1       24.195 -28.848   5.879  0.00  0.00    +0.224 A 
ATOM      9  C   LIG    1       26.244 -25.518   7.200  0.00  0.00    +0.062 A 
ATOM     10  N   LIG    1       25.149 -29.082   6.785  0.00  0.00    -0.220 NA
ENDROOT
BRANCH   1  11
ATOM     11  N   LIG    1       26.657 -28.231   8.360  0.00  0.00    -0.299 N 
ATOM     12  H   LIG    1       27.275 -28.973   8.028  0.00  0.00    +0.154 HD
BRANCH  11  15
ATOM     13  C   LIG    1       26.309 -28.177  12.061  0.00  0.00    +0.026 A 
ATOM     14  C   LIG    1       26.688 -27.839  10.757  0.00  0.00    +0.040 A 
ATOM     15  C   LIG    1       26.205 -28.568   9.666  0.00  0.00    +0.034 A 
ATOM     16  C   LIG    1       25.358 -29.663   9.907  0.00  0.00    +0.023 A 
ATOM     17  C   LIG    1       24.964 -29.990  11.204  0.00  0.00    +0.003 A 
ATOM     18  C   LIG    1       25.441 -29.249  12.283  0.00  0.00    +0.017 A 
BRANCH  13  20
ATOM     19  C   LIG    1       27.245 -26.806  14.104  0.00  0.00    +0.009 C 
ATOM     20  C   LIG    1       26.833 -27.443  13.166  0.00  0.00    -0.070 C 
ENDBRANCH  13  20
ENDBRANCH  11  15
ENDBRANCH   1  11
BRANCH   6  21
ATOM     21  O   LIG    1       26.446 -23.089   7.178  0.00  0.00    -0.486 OA
BRANCH  21  22
ATOM     22  C   LIG    1       25.985 -22.469   8.390  0.00  0.00    +0.257 C 
BRANCH  22  23
ATOM     23  C   LIG    1       26.289 -20.966   8.324  0.00  0.00    +0.200 C 
BRANCH  23  24
ATOM     24  O   LIG    1       27.699 -20.728   8.371  0.00  0.00    -0.380 OA
ATOM     25  C   LIG    1       28.156 -20.068   7.193  0.00  0.00    +0.194 C 
ENDBRANCH  23  24
ENDBRANCH  22  23
ENDBRANCH  21  22
ENDBRANCH   6  21
BRANCH   5  26
ATOM     26  O   LIG    1       24.250 -22.917   5.613  0.00  0.00    -0.486 OA
BRANCH  26  27
ATOM     27  C   LIG    1       23.123 -22.414   6.341  0.00  0.00    +0.257 C 
BRANCH  27  28
ATOM     28  C   LIG    1       23.094 -20.904   6.195  0.00  0.00    +0.200 C 
BRANCH  28  29
ATOM     29  O   LIG    1       22.263 -20.542   5.092  0.00  0.00    -0.380 OA
ATOM     30  C   LIG    1       22.418 -19.164   4.776  0.00  0.00    +0.194 C 
ENDBRANCH  28  29
ENDBRANCH  27  28
ENDBRANCH  26  27
ENDBRANCH   5  26
TORSDOF 11
ENDMDL
MODEL 6
REMARK VINA RESULT:      -6.6      3.989      8.550
REMARK  Name = *****
REMARK                            x       y       z     vdW  Elec       q    Type
REMARK                         _______ _______ _______ _____ _____    ______ ____
ROOT
ATOM      1  C   LIG    1       25.763 -22.186   7.422  0.00  0.00    +0.134 A 
ATOM      2  C   LIG    1       25.330 -23.500   7.173  0.00  0.00    +0.044 A 
ATOM      3  C   LIG    1       24.049 -23.585   6.637  0.00  0.00    +0.080 A 
ATOM      4  C   LIG    1       23.611 -24.811   6.183  0.00  0.00    +0.077 A 
ATOM      5  C   LIG    1       24.365 -25.984   6.344  0.00  0.00    +0.164 A 
ATOM      6  C   LIG    1       25.623 -25.931   6.964  0.00  0.00    +0.163 A 
ATOM      7  N   LIG    1       23.234 -22.536   6.503  0.00  0.00    -0.235 NA
ATOM      8  C   LIG    1       23.716 -21.351   6.889  0.00  0.00    +0.224 A 
ATOM      9  C   LIG    1       26.097 -24.686   7.371  0.00  0.00    +0.062 A 
ATOM     10  N   LIG    1       24.956 -21.113   7.324  0.00  0.00    -0.220 NA
ENDROOT
BRANCH   1  11
ATOM     11  N   LIG    1       27.123 -21.909   7.706  0.00  0.00    -0.299 N 
ATOM     12  H   LIG    1       27.142 -21.753   8.716  0.00  0.00    +0.154 HD
BRANCH  11  15
ATOM     13  C   LIG    1       29.675 -19.260   7.159  0.00  0.00    +0.026 A 
ATOM     14  C   LIG    1       28.965 -20.325   7.727  0.00  0.00    +0.040 A 
ATOM     15  C   LIG    1       27.854 -20.866   7.072  0.00  0.00    +0.034 A 
ATOM     16  C   LIG    1       27.446 -20.301   5.853  0.00  0.00    +0.023 A 
ATOM     17  C   LIG    1       28.163 -19.253   5.276  0.00  0.00    +0.003 A 
ATOM     18  C   LIG    1       29.277 -18.730   5.930  0.00  0.00    +0.017 A 
BRANCH  13  20
ATOM     19  C   LIG    1       31.708 -18.219   8.467  0.00  0.00    +0.009 C 
ATOM     20  C   LIG    1       30.788 -18.700   7.852  0.00  0.00    -0.070 C 
ENDBRANCH  13  20
ENDBRANCH  11  15
ENDBRANCH   1  11
BRANCH   6  21
ATOM     21  O   LIG    1       26.342 -27.094   7.079  0.00  0.00    -0.486 OA
BRANCH  21  22
ATOM     22  C   LIG    1       26.540 -27.622   8.401  0.00  0.00    +0.257 C 
BRANCH  22  23
ATOM     23  C   LIG    1       25.708 -28.902   8.552  0.00  0.00    +0.200 C 
BRANCH  23  24
ATOM     24  O   LIG    1       25.902 -29.489   9.843  0.00  0.00    -0.380 OA
ATOM     25  C   LIG    1       27.100 -30.260   9.891  0.00  0.00    +0.194 C 
ENDBRANCH  23  24
ENDBRANCH  22  23
ENDBRANCH  21  22
ENDBRANCH   6  21
BRANCH   5  26
ATOM     26  O   LIG    1       23.912 -27.202   5.902  0.00  0.00    -0.486 OA
BRANCH  26  27
ATOM     27  C   LIG    1       24.655 -27.783   4.823  0.00  0.00    +0.257 C 
BRANCH  27  28
ATOM     28  C   LIG    1       24.779 -29.274   5.075  0.00  0.00    +0.200 C 
BRANCH  28  29
ATOM     29  O   LIG    1       23.673 -29.725   5.856  0.00  0.00    -0.380 OA
ATOM     30  C   LIG    1       23.870 -31.068   6.279  0.00  0.00    +0.194 C 
ENDBRANCH  28  29
ENDBRANCH  27  28
ENDBRANCH  26  27
ENDBRANCH   5  26
TORSDOF 11
ENDMDL
MODEL 7
REMARK VINA RESULT:      -6.6      1.721      2.715
REMARK  Name = *****
REMARK                            x       y       z     vdW  Elec       q    Type
REMARK                         _______ _______ _______ _____ _____    ______ ____
ROOT
ATOM      1  C   LIG    1       24.939 -22.331   5.509  0.00  0.00    +0.134 A 
ATOM      2  C   LIG    1       26.050 -21.636   6.016  0.00  0.00    +0.044 A 
ATOM      3  C   LIG    1       26.270 -20.400   5.415  0.00  0.00    +0.080 A 
ATOM      4  C   LIG    1       27.216 -19.565   5.970  0.00  0.00    +0.077 A 
ATOM      5  C   LIG    1       28.031 -19.960   7.042  0.00  0.00    +0.164 A 
ATOM      6  C   LIG    1       27.883 -21.237   7.603  0.00  0.00    +0.163 A 
ATOM      7  N   LIG    1       25.590 -19.965   4.352  0.00  0.00    -0.235 NA
ATOM      8  C   LIG    1       24.633 -20.771   3.883  0.00  0.00    +0.224 A 
ATOM      9  C   LIG    1       26.889 -22.065   7.086  0.00  0.00    +0.062 A 
ATOM     10  N   LIG    1       24.251 -21.932   4.422  0.00  0.00    -0.220 NA
ENDROOT
BRANCH   1  11
ATOM     11  N   LIG    1       24.418 -23.463   6.184  0.00  0.00    -0.299 N 
ATOM     12  H   LIG    1       24.545 -23.246   7.174  0.00  0.00    +0.154 HD
BRANCH  11  15
ATOM     13  C   LIG    1       25.746 -26.873   6.842  0.00  0.00    +0.026 A 
ATOM     14  C   LIG    1       25.239 -25.584   7.040  0.00  0.00    +0.040 A 
ATOM     15  C   LIG    1       24.876 -24.789   5.947  0.00  0.00    +0.034 A 
ATOM     16  C   LIG    1       25.060 -25.297   4.651  0.00  0.00    +0.023 A 
ATOM     17  C   LIG    1       25.547 -26.589   4.452  0.00  0.00    +0.003 A 
ATOM     18  C   LIG    1       25.894 -27.377   5.548  0.00  0.00    +0.017 A 
BRANCH  13  20
ATOM     19  C   LIG    1       26.453 -28.354   8.900  0.00  0.00    +0.009 C 
ATOM     20  C   LIG    1       26.139 -27.660   7.965  0.00  0.00    -0.070 C 
ENDBRANCH  13  20
ENDBRANCH  11  15
ENDBRANCH   1  11
BRANCH   6  21
ATOM     21  O   LIG    1       28.680 -21.578   8.667  0.00  0.00    -0.486 OA
BRANCH  21  22
ATOM     22  C   LIG    1       29.985 -22.104   8.376  0.00  0.00    +0.257 C 
BRANCH  22  23
ATOM     23  C   LIG    1       30.933 -21.742   9.527  0.00  0.00    +0.200 C 
BRANCH  23  24
ATOM     24  O   LIG    1       32.284 -22.088   9.205  0.00  0.00    -0.380 OA
ATOM     25  C   LIG    1       32.338 -23.168   8.276  0.00  0.00    +0.194 C 
ENDBRANCH  23  24
ENDBRANCH  22  23
ENDBRANCH  21  22
ENDBRANCH   6  21
BRANCH   5  26
ATOM     26  O   LIG    1       28.980 -19.124   7.576  0.00  0.00    -0.486 OA
BRANCH  26  27
ATOM     27  C   LIG    1       30.058 -18.772   6.700  0.00  0.00    +0.257 C 
BRANCH  27  28
ATOM     28  C   LIG    1       31.363 -18.937   7.456  0.00  0.00    +0.200 C 
BRANCH  28  29
ATOM     29  O   LIG    1       31.788 -17.673   7.965  0.00  0.00    -0.380 OA
ATOM     30  C   LIG    1       31.934 -17.723   9.378  0.00  0.00    +0.194 C 
ENDBRANCH  28  29
ENDBRANCH  27  28
ENDBRANCH  26  27
ENDBRANCH   5  26
TORSDOF 11
ENDMDL
MODEL 8
REMARK VINA RESULT:      -6.6      3.724      7.733
REMARK  Name = *****
REMARK                            x       y       z     vdW  Elec       q    Type
REMARK                         _______ _______ _______ _____ _____    ______ ____
ROOT
ATOM      1  C   LIG    1       23.994 -19.064   4.171  0.00  0.00    +0.134 A 
ATOM      2  C   LIG    1       24.633 -19.962   5.043  0.00  0.00    +0.044 A 
ATOM      3  C   LIG    1       23.801 -20.959   5.543  0.00  0.00    +0.080 A 
ATOM      4  C   LIG    1       24.375 -21.993   6.251  0.00  0.00    +0.077 A 
ATOM      5  C   LIG    1       25.740 -22.014   6.575  0.00  0.00    +0.164 A 
ATOM      6  C   LIG    1       26.578 -20.970   6.154  0.00  0.00    +0.163 A 
ATOM      7  N   LIG    1       22.481 -20.989   5.342  0.00  0.00    -0.235 NA
ATOM      8  C   LIG    1       21.968 -20.009   4.593  0.00  0.00    +0.224 A 
ATOM      9  C   LIG    1       26.017 -19.953   5.388  0.00  0.00    +0.062 A 
ATOM     10  N   LIG    1       22.662 -19.050   3.971  0.00  0.00    -0.220 NA
ENDROOT
BRANCH   1  11
ATOM     11  N   LIG    1       24.744 -18.166   3.371  0.00  0.00    -0.299 N 
ATOM     12  H   LIG    1       25.693 -18.542   3.395  0.00  0.00    +0.154 HD
BRANCH  11  15
ATOM     13  C   LIG    1       26.138 -14.745   3.789  0.00  0.00    +0.026 A 
ATOM     14  C   LIG    1       26.032 -16.110   3.499  0.00  0.00    +0.040 A 
ATOM     15  C   LIG    1       24.802 -16.767   3.619  0.00  0.00    +0.034 A 
ATOM     16  C   LIG    1       23.688 -16.038   4.065  0.00  0.00    +0.023 A 
ATOM     17  C   LIG    1       23.787 -14.673   4.336  0.00  0.00    +0.003 A 
ATOM     18  C   LIG    1       25.014 -14.026   4.201  0.00  0.00    +0.017 A 
BRANCH  13  20
ATOM     19  C   LIG    1       28.488 -13.575   3.586  0.00  0.00    +0.009 C 
ATOM     20  C   LIG    1       27.405 -14.096   3.689  0.00  0.00    -0.070 C 
ENDBRANCH  13  20
ENDBRANCH  11  15
ENDBRANCH   1  11
BRANCH   6  21
ATOM     21  O   LIG    1       27.913 -21.040   6.468  0.00  0.00    -0.486 OA
BRANCH  21  22
ATOM     22  C   LIG    1       28.757 -19.970   6.012  0.00  0.00    +0.257 C 
BRANCH  22  23
ATOM     23  C   LIG    1       30.030 -19.945   6.868  0.00  0.00    +0.200 C 
BRANCH  23  24
ATOM     24  O   LIG    1       30.393 -18.603   7.205  0.00  0.00    -0.380 OA
ATOM     25  C   LIG    1       31.508 -18.571   8.093  0.00  0.00    +0.194 C 
ENDBRANCH  23  24
ENDBRANCH  22  23
ENDBRANCH  21  22
ENDBRANCH   6  21
BRANCH   5  26
ATOM     26  O   LIG    1       26.297 -23.042   7.294  0.00  0.00    -0.486 OA
BRANCH  26  27
ATOM     27  C   LIG    1       25.546 -24.263   7.311  0.00  0.00    +0.257 C 
BRANCH  27  28
ATOM     28  C   LIG    1       26.189 -25.234   6.339  0.00  0.00    +0.200 C 
BRANCH  28  29
ATOM     29  O   LIG    1       25.256 -25.579   5.315  0.00  0.00    -0.380 OA
ATOM     30  C   LIG    1       25.664 -26.763   4.641  0.00  0.00    +0.194 C 
ENDBRANCH  28  29
ENDBRANCH  27  28
ENDBRANCH  26  27
ENDBRANCH   5  26
TORSDOF 11
ENDMDL
MODEL 9
REMARK VINA RESULT:      -6.5      3.886      6.233
REMARK  Name = *****
REMARK                            x       y       z     vdW  Elec       q    Type
REMARK                         _______ _______ _______ _____ _____    ______ ____
ROOT
ATOM      1  C   LIG    1       26.940 -21.535   7.798  0.00  0.00    +0.134 A 
ATOM      2  C   LIG    1       26.564 -20.760   6.687  0.00  0.00    +0.044 A 
ATOM      3  C   LIG    1       27.615 -20.069   6.094  0.00  0.00    +0.080 A 
ATOM      4  C   LIG    1       27.383 -19.436   4.891  0.00  0.00    +0.077 A 
ATOM      5  C   LIG    1       26.108 -19.375   4.309  0.00  0.00    +0.164 A 
ATOM      6  C   LIG    1       25.017 -19.992   4.940  0.00  0.00    +0.163 A 
ATOM      7  N   LIG    1       28.847 -20.015   6.607  0.00  0.00    -0.235 NA
ATOM      8  C   LIG    1       29.054 -20.697   7.737  0.00  0.00    +0.224 A 
ATOM      9  C   LIG    1       25.256 -20.684   6.125  0.00  0.00    +0.062 A 
ATOM     10  N   LIG    1       28.165 -21.481   8.355  0.00  0.00    -0.220 NA
ENDROOT
BRANCH   1  11
ATOM     11  N   LIG    1       26.059 -22.502   8.345  0.00  0.00    -0.299 N 
ATOM     12  H   LIG    1       26.640 -23.031   8.997  0.00  0.00    +0.154 HD
BRANCH  11  15
ATOM     13  C   LIG    1       25.312 -25.355   6.081  0.00  0.00    +0.026 A 
ATOM     14  C   LIG    1       25.998 -24.466   6.917  0.00  0.00    +0.040 A 
ATOM     15  C   LIG    1       25.319 -23.419   7.548  0.00  0.00    +0.034 A 
ATOM     16  C   LIG    1       23.946 -23.258   7.301  0.00  0.00    +0.023 A 
ATOM     17  C   LIG    1       23.256 -24.153   6.483  0.00  0.00    +0.003 A 
ATOM     18  C   LIG    1       23.940 -25.201   5.870  0.00  0.00    +0.017 A 
BRANCH  13  20
ATOM     19  C   LIG    1       26.622 -27.306   4.893  0.00  0.00    +0.009 C 
ATOM     20  C   LIG    1       26.024 -26.401   5.422  0.00  0.00    -0.070 C 
ENDBRANCH  13  20
ENDBRANCH  11  15
ENDBRANCH   1  11
BRANCH   6  21
ATOM     21  O   LIG    1       23.791 -19.934   4.326  0.00  0.00    -0.486 OA
BRANCH  21  22
ATOM     22  C   LIG    1       22.695 -19.398   5.085  0.00  0.00    +0.257 C 
BRANCH  22  23
ATOM     23  C   LIG    1       22.147 -18.162   4.358  0.00  0.00    +0.200 C 
BRANCH  23  24
ATOM     24  O   LIG    1       22.163 -17.016   5.215  0.00  0.00    -0.380 OA
ATOM     25  C   LIG    1       22.656 -15.864   4.536  0.00  0.00    +0.194 C 
ENDBRANCH  23  24
ENDBRANCH  22  23
ENDBRANCH  21  22
ENDBRANCH   6  21
BRANCH   5  26
ATOM     26  O   LIG    1       25.886 -18.729   3.118  0.00  0.00    -0.486 OA
BRANCH  26  27
ATOM     27  C   LIG    1       25.513 -17.350   3.223  0.00  0.00    +0.257 C 
BRANCH  27  28
ATOM     28  C   LIG    1       26.771 -16.526   3.426  0.00  0.00    +0.200 C 
BRANCH  28  29
ATOM     29  O   LIG    1       26.615 -15.248   2.811  0.00  0.00    -0.380 OA
ATOM     30  C   LIG    1       27.447 -14.282   3.440  0.00  0.00    +0.194 C 
ENDBRANCH  28  29
ENDBRANCH  27  28
ENDBRANCH  26  27
ENDBRANCH   5  26
TORSDOF 11
ENDMDL
