MODEL 1
REMARK VINA RESULT:       1.9      0.000      0.000
REMARK  Name = *****
REMARK                            x       y       z     vdW  Elec       q    Type
REMARK                         _______ _______ _______ _____ _____    ______ ____
ROOT
ATOM      1  P   LIG    1       24.971 -19.282   4.892  0.00  0.00    +0.345 P 
ATOM      2  O   LIG    1       23.635 -18.955   5.592  0.00  0.00    -0.257 OA
ENDROOT
BRANCH   1   3
ATOM      3  N   LIG    1       24.355 -20.778   4.217  0.00  0.00    -0.221 NA
ATOM      4  H   LIG    1       23.988 -20.542   3.297  0.00  0.00    +0.133 HD
BRANCH   3   5
ATOM      5  C   LIG    1       23.302 -21.569   4.931  0.00  0.00    +0.169 C 
ATOM      6  C   LIG    1       23.497 -21.363   6.440  0.00  0.00    +0.036 C 
BRANCH   5   7
ATOM      7  C   LIG    1       21.872 -21.060   4.659  0.00  0.00    +0.325 C 
ATOM      8  O   LIG    1       20.862 -21.570   5.088  0.00  0.00    -0.249 OA
BRANCH   7   9
ATOM      9  O   LIG    1       21.882 -20.084   3.679  0.00  0.00    -0.461 OA
BRANCH   9  11
ATOM     10  C   LIG    1       20.875 -18.106   2.632  0.00  0.00    +0.051 C 
ATOM     11  C   LIG    1       20.829 -19.098   3.790  0.00  0.00    +0.170 C 
ATOM     12  C   LIG    1       19.485 -19.830   3.824  0.00  0.00    +0.051 C 
ENDBRANCH   9  11
ENDBRANCH   7   9
ENDBRANCH   5   7
ENDBRANCH   3   5
ENDBRANCH   1   3
BRANCH   1  13
ATOM     13  O   LIG    1       26.440 -19.642   4.123  0.00  0.00    -0.431 OA
BRANCH  13  14
ATOM     14  C   LIG    1       27.504 -19.643   5.014  0.00  0.00    +0.129 A 
ATOM     15  C   LIG    1       27.615 -20.614   6.022  0.00  0.00    +0.046 A 
ATOM     16  C   LIG    1       28.574 -20.491   7.025  0.00  0.00    +0.004 A 
ATOM     17  C   LIG    1       29.462 -19.422   7.004  0.00  0.00    +0.000 A 
ATOM     18  C   LIG    1       29.407 -18.496   5.960  0.00  0.00    +0.004 A 
ATOM     19  C   LIG    1       28.431 -18.606   4.959  0.00  0.00    +0.046 A 
ENDBRANCH  13  14
ENDBRANCH   1  13
BRANCH   1  20
ATOM     20  C   LIG    1       24.617 -18.035   3.331  0.00  0.00    +0.286 C 
BRANCH  20  21
ATOM     21  O   LIG    1       25.001 -16.702   3.720  0.00  0.00    -0.363 OA
BRANCH  21  22
ATOM     22  C   LIG    1       23.953 -16.004   4.422  0.00  0.00    +0.136 C 
ATOM     23  C   LIG    1       22.586 -16.631   4.122  0.00  0.00    +0.039 C 
BRANCH  22  24
ATOM     24  C   LIG    1       23.899 -14.530   3.962  0.00  0.00    +0.156 C 
BRANCH  24  25
ATOM     25  N   LIG    1       25.159 -13.973   3.523  0.00  0.00    -0.312 N 
ATOM     26  C   LIG    1       26.188 -13.542   4.313  0.00  0.00    +0.165 A 
ATOM     27  N   LIG    1       26.262 -13.551   5.654  0.00  0.00    -0.216 NA
ATOM     28  C   LIG    1       27.466 -13.102   6.067  0.00  0.00    +0.225 A 
ATOM     29  N   LIG    1       28.519 -12.701   5.319  0.00  0.00    -0.219 NA
ATOM     30  C   LIG    1       28.381 -12.691   3.973  0.00  0.00    +0.147 A 
ATOM     31  C   LIG    1       27.162 -13.117   3.422  0.00  0.00    +0.147 A 
ATOM     32  N   LIG    1       26.720 -13.228   2.119  0.00  0.00    -0.231 NA
ATOM     33  C   LIG    1       25.502 -13.716   2.221  0.00  0.00    +0.201 A 
BRANCH  30  34
ATOM     34  N   LIG    1       29.470 -12.299   3.201  0.00  0.00    -0.341 N 
ATOM     35  H   LIG    1       29.246 -12.250   2.212  0.00  0.00    +0.144 HD
ATOM     36  H   LIG    1       30.305 -12.810   3.457  0.00  0.00    +0.144 HD
ENDBRANCH  30  34
ENDBRANCH  24  25
ENDBRANCH  22  24
ENDBRANCH  21  22
ENDBRANCH  20  21
ENDBRANCH   1  20
TORSDOF 13
ENDMDL
MODEL 2
REMARK VINA RESULT:       3.5      1.709      3.104
REMARK  Name = *****
REMARK                            x       y       z     vdW  Elec       q    Type
REMARK                         _______ _______ _______ _____ _____    ______ ____
ROOT
ATOM      1  P   LIG    1       25.368 -18.275   4.222  0.00  0.00    +0.345 P 
ATOM      2  O   LIG    1       24.166 -17.352   4.515  0.00  0.00    -0.257 OA
ENDROOT
BRANCH   1   3
ATOM      3  N   LIG    1       24.446 -19.274   3.113  0.00  0.00    -0.221 NA
ATOM      4  H   LIG    1       23.926 -18.630   2.520  0.00  0.00    +0.133 HD
BRANCH   3   5
ATOM      5  C   LIG    1       23.480 -20.299   3.622  0.00  0.00    +0.169 C 
ATOM      6  C   LIG    1       24.271 -21.570   3.957  0.00  0.00    +0.036 C 
BRANCH   5   7
ATOM      7  C   LIG    1       22.819 -19.899   4.957  0.00  0.00    +0.325 C 
ATOM      8  O   LIG    1       23.289 -20.108   6.052  0.00  0.00    -0.249 OA
BRANCH   7   9
ATOM      9  O   LIG    1       21.519 -19.476   4.748  0.00  0.00    -0.461 OA
BRANCH   9  11
ATOM     10  C   LIG    1       20.153 -18.513   2.952  0.00  0.00    +0.051 C 
ATOM     11  C   LIG    1       21.380 -18.356   3.843  0.00  0.00    +0.170 C 
ATOM     12  C   LIG    1       21.286 -17.073   4.674  0.00  0.00    +0.051 C 
ENDBRANCH   9  11
ENDBRANCH   7   9
ENDBRANCH   5   7
ENDBRANCH   3   5
ENDBRANCH   1   3
BRANCH   1  13
ATOM     13  O   LIG    1       26.690 -19.290   3.899  0.00  0.00    -0.431 OA
BRANCH  13  14
ATOM     14  C   LIG    1       27.536 -19.400   4.993  0.00  0.00    +0.129 A 
ATOM     15  C   LIG    1       28.471 -18.398   5.301  0.00  0.00    +0.046 A 
ATOM     16  C   LIG    1       29.442 -18.608   6.278  0.00  0.00    +0.004 A 
ATOM     17  C   LIG    1       29.460 -19.802   6.988  0.00  0.00    +0.000 A 
ATOM     18  C   LIG    1       28.485 -20.771   6.741  0.00  0.00    +0.004 A 
ATOM     19  C   LIG    1       27.517 -20.571   5.746  0.00  0.00    +0.046 A 
ENDBRANCH  13  14
ENDBRANCH   1  13
BRANCH   1  20
ATOM     20  C   LIG    1       26.210 -16.988   2.897  0.00  0.00    +0.286 C 
BRANCH  20  21
ATOM     21  O   LIG    1       27.150 -16.159   3.608  0.00  0.00    -0.363 OA
BRANCH  21  22
ATOM     22  C   LIG    1       27.473 -14.948   2.896  0.00  0.00    +0.136 C 
ATOM     23  C   LIG    1       27.976 -13.868   3.863  0.00  0.00    +0.039 C 
BRANCH  22  24
ATOM     24  C   LIG    1       26.213 -14.394   2.195  0.00  0.00    +0.156 C 
BRANCH  24  25
ATOM     25  N   LIG    1       25.423 -13.471   2.980  0.00  0.00    -0.312 N 
ATOM     26  C   LIG    1       24.488 -13.787   3.926  0.00  0.00    +0.165 A 
ATOM     27  N   LIG    1       24.110 -15.007   4.341  0.00  0.00    -0.216 NA
ATOM     28  C   LIG    1       23.205 -14.911   5.338  0.00  0.00    +0.225 A 
ATOM     29  N   LIG    1       22.707 -13.798   5.920  0.00  0.00    -0.219 NA
ATOM     30  C   LIG    1       23.106 -12.595   5.447  0.00  0.00    +0.147 A 
ATOM     31  C   LIG    1       24.032 -12.564   4.393  0.00  0.00    +0.147 A 
ATOM     32  N   LIG    1       24.628 -11.523   3.709  0.00  0.00    -0.231 NA
ATOM     33  C   LIG    1       25.433 -12.107   2.848  0.00  0.00    +0.201 A 
BRANCH  30  34
ATOM     34  N   LIG    1       22.612 -11.448   6.060  0.00  0.00    -0.341 N 
ATOM     35  H   LIG    1       21.646 -11.552   6.355  0.00  0.00    +0.144 HD
ATOM     36  H   LIG    1       22.841 -10.618   5.529  0.00  0.00    +0.144 HD
ENDBRANCH  30  34
ENDBRANCH  24  25
ENDBRANCH  22  24
ENDBRANCH  21  22
ENDBRANCH  20  21
ENDBRANCH   1  20
TORSDOF 13
ENDMDL
MODEL 3
REMARK VINA RESULT:       4.6      2.700      6.496
REMARK  Name = *****
REMARK                            x       y       z     vdW  Elec       q    Type
REMARK                         _______ _______ _______ _____ _____    ______ ____
ROOT
ATOM      1  P   LIG    1       26.323 -18.685   3.244  0.00  0.00    +0.345 P 
ATOM      2  O   LIG    1       25.291 -19.540   2.479  0.00  0.00    -0.257 OA
ENDROOT
BRANCH   1   3
ATOM      3  N   LIG    1       25.203 -17.350   3.444  0.00  0.00    -0.221 NA
ATOM      4  H   LIG    1       24.804 -17.176   2.524  0.00  0.00    +0.133 HD
BRANCH   3   5
ATOM      5  C   LIG    1       25.664 -16.034   3.991  0.00  0.00    +0.169 C 
ATOM      6  C   LIG    1       26.706 -15.458   3.021  0.00  0.00    +0.036 C 
BRANCH   5   7
ATOM      7  C   LIG    1       24.550 -14.969   4.028  0.00  0.00    +0.325 C 
ATOM      8  O   LIG    1       23.377 -15.185   3.821  0.00  0.00    -0.249 OA
BRANCH   7   9
ATOM      9  O   LIG    1       25.093 -13.699   4.102  0.00  0.00    -0.461 OA
BRANCH   9  11
ATOM     10  C   LIG    1       24.387 -11.600   5.159  0.00  0.00    +0.051 C 
ATOM     11  C   LIG    1       24.131 -12.619   4.054  0.00  0.00    +0.170 C 
ATOM     12  C   LIG    1       24.216 -11.959   2.676  0.00  0.00    +0.051 C 
ENDBRANCH   9  11
ENDBRANCH   7   9
ENDBRANCH   5   7
ENDBRANCH   3   5
ENDBRANCH   1   3
BRANCH   1  13
ATOM     13  O   LIG    1       27.458 -17.745   4.086  0.00  0.00    -0.431 OA
BRANCH  13  14
ATOM     14  C   LIG    1       28.194 -18.504   4.984  0.00  0.00    +0.129 A 
ATOM     15  C   LIG    1       28.194 -19.907   4.930  0.00  0.00    +0.046 A 
ATOM     16  C   LIG    1       28.775 -20.658   5.950  0.00  0.00    +0.004 A 
ATOM     17  C   LIG    1       29.403 -20.014   7.010  0.00  0.00    +0.000 A 
ATOM     18  C   LIG    1       29.474 -18.619   7.029  0.00  0.00    +0.004 A 
ATOM     19  C   LIG    1       28.875 -17.860   6.013  0.00  0.00    +0.046 A 
ENDBRANCH  13  14
ENDBRANCH   1  13
BRANCH   1  20
ATOM     20  C   LIG    1       26.020 -19.647   5.005  0.00  0.00    +0.286 C 
BRANCH  20  21
ATOM     21  O   LIG    1       24.602 -19.691   5.258  0.00  0.00    -0.363 OA
BRANCH  21  22
ATOM     22  C   LIG    1       24.272 -20.431   6.451  0.00  0.00    +0.136 C 
ATOM     23  C   LIG    1       25.446 -21.317   6.883  0.00  0.00    +0.039 C 
BRANCH  22  24
ATOM     24  C   LIG    1       23.064 -21.356   6.182  0.00  0.00    +0.156 C 
BRANCH  24  25
ATOM     25  N   LIG    1       22.070 -20.828   5.275  0.00  0.00    -0.312 N 
ATOM     26  C   LIG    1       21.858 -19.515   4.961  0.00  0.00    +0.165 A 
ATOM     27  N   LIG    1       22.525 -18.439   5.408  0.00  0.00    -0.216 NA
ATOM     28  C   LIG    1       22.064 -17.315   4.819  0.00  0.00    +0.225 A 
ATOM     29  N   LIG    1       21.094 -17.188   3.886  0.00  0.00    -0.219 NA
ATOM     30  C   LIG    1       20.440 -18.303   3.488  0.00  0.00    +0.147 A 
ATOM     31  C   LIG    1       20.815 -19.535   4.047  0.00  0.00    +0.147 A 
ATOM     32  N   LIG    1       20.358 -20.823   3.850  0.00  0.00    -0.231 NA
ATOM     33  C   LIG    1       21.115 -21.568   4.627  0.00  0.00    +0.201 A 
BRANCH  30  34
ATOM     34  N   LIG    1       19.456 -18.178   2.512  0.00  0.00    -0.341 N 
ATOM     35  H   LIG    1       18.605 -18.677   2.753  0.00  0.00    +0.144 HD
ATOM     36  H   LIG    1       19.834 -18.336   1.587  0.00  0.00    +0.144 HD
ENDBRANCH  30  34
ENDBRANCH  24  25
ENDBRANCH  22  24
ENDBRANCH  21  22
ENDBRANCH  20  21
ENDBRANCH   1  20
TORSDOF 13
ENDMDL
