MODEL 1
REMARK VINA RESULT:       9.4      0.000      0.000
REMARK  Name = *****
REMARK                            x       y       z     vdW  Elec       q    Type
REMARK                         _______ _______ _______ _____ _____    ______ ____
ROOT
ATOM      1  C   LIG    1       25.230 -14.448   4.248  0.00  0.00    +0.129 C 
ATOM      2  C   LIG    1       26.239 -15.502   3.685  0.00  0.00    +0.007 C 
ATOM      3  C   LIG    1       27.243 -14.880   2.694  0.00  0.00    +0.014 C 
ATOM      4  C   LIG    1       25.305 -16.528   3.003  0.00  0.00    +0.005 C 
ATOM      5  C   LIG    1       25.970 -17.878   2.663  0.00  0.00    +0.019 C 
ATOM      6  C   LIG    1       26.861 -18.511   3.756  0.00  0.00    +0.006 C 
ATOM      7  C   LIG    1       27.764 -17.460   4.426  0.00  0.00    +0.005 C 
ATOM      8  C   LIG    1       26.181 -19.587   4.707  0.00  0.00    -0.003 C 
ATOM      9  C   LIG    1       27.176 -20.788   4.777  0.00  0.00    +0.016 C 
ATOM     10  C   LIG    1       24.855 -20.133   4.164  0.00  0.00    -0.038 C 
ATOM     11  C   LIG    1       23.948 -20.744   4.948  0.00  0.00    +0.050 C 
ATOM     12  C   LIG    1       24.142 -20.868   6.409  0.00  0.00    +0.156 C 
ATOM     13  O   LIG    1       23.366 -21.566   7.059  0.00  0.00    -0.293 OA
ATOM     14  C   LIG    1       25.295 -20.145   7.062  0.00  0.00    +0.080 C 
ATOM     15  C   LIG    1       24.523 -19.915   2.773  0.00  0.00    +0.000 C 
ATOM     16  C   LIG    1       25.927 -19.089   6.153  0.00  0.00    +0.019 C 
ATOM     17  C   LIG    1       25.003 -18.873   2.086  0.00  0.00    -0.023 C 
ATOM     18  C   LIG    1       24.053 -16.575   3.898  0.00  0.00    +0.008 C 
ATOM     19  C   LIG    1       27.042 -16.178   4.836  0.00  0.00    +0.010 C 
ATOM     20  C   LIG    1       24.064 -15.308   4.758  0.00  0.00    +0.043 C 
ENDROOT
BRANCH   1  22
ATOM     21  C   LIG    1       23.896 -12.246   3.788  0.00  0.00    +0.089 C 
ATOM     22  C   LIG    1       24.645 -13.430   3.225  0.00  0.00    +0.162 C 
ATOM     23  O   LIG    1       24.723 -13.582   2.005  0.00  0.00    -0.295 OA
ENDBRANCH   1  22
BRANCH   1  24
ATOM     24  O   LIG    1       25.803 -13.742   5.348  0.00  0.00    -0.381 OA
ATOM     25  H   LIG    1       26.049 -12.853   5.037  0.00  0.00    +0.211 HD
ENDBRANCH   1  24
TORSDOF 2
ENDMDL
MODEL 2
REMARK VINA RESULT:      10.6      2.200      6.220
REMARK  Name = *****
REMARK                            x       y       z     vdW  Elec       q    Type
REMARK                         _______ _______ _______ _____ _____    ______ ____
ROOT
ATOM      1  C   LIG    1       24.548 -18.731   4.246  0.00  0.00    +0.129 C 
ATOM      2  C   LIG    1       23.673 -17.454   4.022  0.00  0.00    +0.007 C 
ATOM      3  C   LIG    1       22.251 -17.796   3.533  0.00  0.00    +0.014 C 
ATOM      4  C   LIG    1       24.484 -16.676   2.960  0.00  0.00    +0.005 C 
ATOM      5  C   LIG    1       24.071 -15.199   2.789  0.00  0.00    +0.019 C 
ATOM      6  C   LIG    1       23.840 -14.386   4.084  0.00  0.00    +0.006 C 
ATOM      7  C   LIG    1       23.047 -15.196   5.124  0.00  0.00    +0.005 C 
ATOM      8  C   LIG    1       25.061 -13.524   4.621  0.00  0.00    -0.003 C 
ATOM      9  C   LIG    1       24.477 -12.118   4.965  0.00  0.00    +0.016 C 
ATOM     10  C   LIG    1       26.165 -13.308   3.579  0.00  0.00    -0.038 C 
ATOM     11  C   LIG    1       27.418 -12.950   3.913  0.00  0.00    +0.050 C 
ATOM     12  C   LIG    1       27.834 -12.806   5.326  0.00  0.00    +0.156 C 
ATOM     13  O   LIG    1       28.939 -12.330   5.579  0.00  0.00    -0.293 OA
ATOM     14  C   LIG    1       26.886 -13.237   6.419  0.00  0.00    +0.080 C 
ATOM     15  C   LIG    1       25.878 -13.578   2.187  0.00  0.00    +0.000 C 
ATOM     16  C   LIG    1       25.729 -14.092   5.900  0.00  0.00    +0.019 C 
ATOM     17  C   LIG    1       24.944 -14.460   1.815  0.00  0.00    -0.023 C 
ATOM     18  C   LIG    1       25.957 -16.950   3.312  0.00  0.00    +0.008 C 
ATOM     19  C   LIG    1       23.553 -16.621   5.332  0.00  0.00    +0.010 C 
ATOM     20  C   LIG    1       25.985 -18.190   4.210  0.00  0.00    +0.043 C 
ENDROOT
BRANCH   1  22
ATOM     21  C   LIG    1       23.858 -21.168   3.592  0.00  0.00    +0.089 C 
ATOM     22  C   LIG    1       24.443 -19.844   3.162  0.00  0.00    +0.162 C 
ATOM     23  O   LIG    1       24.859 -19.704   2.011  0.00  0.00    -0.295 OA
ENDBRANCH   1  22
BRANCH   1  24
ATOM     24  O   LIG    1       24.294 -19.294   5.532  0.00  0.00    -0.381 OA
ATOM     25  H   LIG    1       25.019 -19.028   6.124  0.00  0.00    +0.211 HD
ENDBRANCH   1  24
TORSDOF 2
ENDMDL
MODEL 3
REMARK VINA RESULT:      11.5      1.456      2.185
REMARK  Name = *****
REMARK                            x       y       z     vdW  Elec       q    Type
REMARK                         _______ _______ _______ _____ _____    ______ ____
ROOT
ATOM      1  C   LIG    1       25.402 -13.935   4.971  0.00  0.00    +0.129 C 
ATOM      2  C   LIG    1       25.222 -14.804   3.683  0.00  0.00    +0.007 C 
ATOM      3  C   LIG    1       25.366 -13.974   2.391  0.00  0.00    +0.014 C 
ATOM      4  C   LIG    1       23.793 -15.368   3.857  0.00  0.00    +0.005 C 
ATOM      5  C   LIG    1       23.449 -16.551   2.929  0.00  0.00    +0.019 C 
ATOM      6  C   LIG    1       24.519 -17.659   2.788  0.00  0.00    +0.006 C 
ATOM      7  C   LIG    1       25.930 -17.064   2.635  0.00  0.00    +0.005 C 
ATOM      8  C   LIG    1       24.371 -18.928   3.732  0.00  0.00    -0.003 C 
ATOM      9  C   LIG    1       24.572 -20.174   2.813  0.00  0.00    +0.016 C 
ATOM     10  C   LIG    1       22.983 -19.060   4.370  0.00  0.00    -0.038 C 
ATOM     11  C   LIG    1       22.756 -19.812   5.462  0.00  0.00    +0.050 C 
ATOM     12  C   LIG    1       23.853 -20.511   6.166  0.00  0.00    +0.156 C 
ATOM     13  O   LIG    1       23.578 -21.307   7.062  0.00  0.00    -0.293 OA
ATOM     14  C   LIG    1       25.280 -20.240   5.756  0.00  0.00    +0.080 C 
ATOM     15  C   LIG    1       21.887 -18.284   3.830  0.00  0.00    +0.000 C 
ATOM     16  C   LIG    1       25.420 -18.999   4.872  0.00  0.00    +0.019 C 
ATOM     17  C   LIG    1       22.086 -17.124   3.197  0.00  0.00    -0.023 C 
ATOM     18  C   LIG    1       23.646 -15.605   5.371  0.00  0.00    +0.008 C 
ATOM     19  C   LIG    1       26.262 -15.962   3.639  0.00  0.00    +0.010 C 
ATOM     20  C   LIG    1       24.732 -14.779   6.066  0.00  0.00    +0.043 C 
ENDROOT
BRANCH   1  22
ATOM     21  C   LIG    1       23.807 -12.223   3.803  0.00  0.00    +0.089 C 
ATOM     22  C   LIG    1       24.712 -12.540   4.970  0.00  0.00    +0.162 C 
ATOM     23  O   LIG    1       24.916 -11.688   5.836  0.00  0.00    -0.295 OA
ENDBRANCH   1  22
BRANCH   1  24
ATOM     24  O   LIG    1       26.786 -13.782   5.283  0.00  0.00    -0.381 OA
ATOM     25  H   LIG    1       27.301 -14.049   4.501  0.00  0.00    +0.211 HD
ENDBRANCH   1  24
TORSDOF 2
ENDMDL
