MODEL 1
REMARK VINA RESULT:      -5.2      0.000      0.000
REMARK  Name = *****
REMARK                            x       y       z     vdW  Elec       q    Type
REMARK                         _______ _______ _______ _____ _____    ______ ____
ROOT
ATOM      1  C   LIG    1       25.237 -19.024   3.595  0.00  0.00    +0.165 C 
ENDROOT
BRANCH   1   4
ATOM      2  C   LIG    1       27.522 -20.442   6.321  0.00  0.00    +0.121 A 
ATOM      3  C   LIG    1       27.040 -19.753   5.202  0.00  0.00    +0.055 A 
ATOM      4  C   LIG    1       25.714 -19.919   4.742  0.00  0.00    +0.027 A 
ATOM      5  C   LIG    1       24.903 -20.865   5.396  0.00  0.00    +0.126 A 
ATOM      6  C   LIG    1       25.401 -21.568   6.505  0.00  0.00    +0.049 A 
ATOM      7  C   LIG    1       26.699 -21.353   6.968  0.00  0.00    +0.049 A 
BRANCH   2   9
ATOM      8  C   LIG    1       29.474 -19.133   6.439  0.00  0.00    +0.277 C 
ATOM      9  O   LIG    1       28.781 -20.310   6.842  0.00  0.00    -0.495 OA
ENDBRANCH   2   9
BRANCH   5  10
ATOM     10  O   LIG    1       23.641 -21.046   4.897  0.00  0.00    -0.495 OA
ATOM     11  C   LIG    1       22.651 -21.503   5.811  0.00  0.00    +0.277 C 
ENDBRANCH   5  10
ENDBRANCH   1   4
BRANCH   1  12
ATOM     12  O   LIG    1       23.888 -18.565   3.720  0.00  0.00    -0.386 OA
ATOM     13  H   LIG    1       23.867 -17.659   3.364  0.00  0.00    +0.210 HD
ENDBRANCH   1  12
BRANCH   1  14
ATOM     14  C   LIG    1       26.154 -17.807   3.310  0.00  0.00    +0.140 C 
BRANCH  14  15
ATOM     15  N   LIG    1       25.467 -16.522   3.333  0.00  0.00    -0.311 N 
ATOM     16  H   LIG    1       24.466 -16.538   3.140  0.00  0.00    +0.149 HD
ATOM     17  C   LIG    1       26.126 -15.330   3.506  0.00  0.00    +0.227 C 
ATOM     18  O   LIG    1       27.359 -15.238   3.653  0.00  0.00    -0.274 OA
BRANCH  17  19
ATOM     19  C   LIG    1       25.200 -14.100   3.524  0.00  0.00    +0.174 C 
BRANCH  19  20
ATOM     20  N   LIG    1       23.954 -14.390   4.259  0.00  0.00    -0.323 NA
ATOM     21  H   LIG    1       24.209 -14.796   5.162  0.00  0.00    +0.119 HD
ATOM     22  H   LIG    1       23.532 -13.493   4.509  0.00  0.00    +0.119 HD
ENDBRANCH  19  20
ENDBRANCH  17  19
ENDBRANCH  14  15
ENDBRANCH   1  14
TORSDOF 8
ENDMDL
MODEL 2
REMARK VINA RESULT:      -4.4      1.538      3.551
REMARK  Name = *****
REMARK                            x       y       z     vdW  Elec       q    Type
REMARK                         _______ _______ _______ _____ _____    ______ ____
ROOT
ATOM      1  C   LIG    1       26.040 -19.078   3.425  0.00  0.00    +0.165 C 
ENDROOT
BRANCH   1   4
ATOM      2  C   LIG    1       24.133 -20.992   6.138  0.00  0.00    +0.121 A 
ATOM      3  C   LIG    1       24.449 -20.226   5.010  0.00  0.00    +0.055 A 
ATOM      4  C   LIG    1       25.769 -19.794   4.751  0.00  0.00    +0.027 A 
ATOM      5  C   LIG    1       26.759 -20.088   5.708  0.00  0.00    +0.126 A 
ATOM      6  C   LIG    1       26.430 -20.839   6.848  0.00  0.00    +0.049 A 
ATOM      7  C   LIG    1       25.128 -21.293   7.058  0.00  0.00    +0.049 A 
BRANCH   2   9
ATOM      8  C   LIG    1       21.999 -21.566   5.329  0.00  0.00    +0.277 C 
ATOM      9  O   LIG    1       22.887 -21.471   6.439  0.00  0.00    -0.495 OA
ENDBRANCH   2   9
BRANCH   5  10
ATOM     10  O   LIG    1       28.018 -19.612   5.459  0.00  0.00    -0.495 OA
ATOM     11  C   LIG    1       29.005 -19.864   6.452  0.00  0.00    +0.277 C 
ENDBRANCH   5  10
ENDBRANCH   1   4
BRANCH   1  12
ATOM     12  O   LIG    1       25.569 -19.772   2.266  0.00  0.00    -0.386 OA
ATOM     13  H   LIG    1       24.599 -19.693   2.269  0.00  0.00    +0.210 HD
ENDBRANCH   1  12
BRANCH   1  14
ATOM     14  C   LIG    1       25.531 -17.616   3.372  0.00  0.00    +0.140 C 
BRANCH  14  15
ATOM     15  N   LIG    1       26.583 -16.611   3.468  0.00  0.00    -0.311 N 
ATOM     16  H   LIG    1       27.540 -16.958   3.499  0.00  0.00    +0.149 HD
ATOM     17  C   LIG    1       26.320 -15.270   3.605  0.00  0.00    +0.227 C 
ATOM     18  O   LIG    1       25.171 -14.795   3.666  0.00  0.00    -0.274 OA
BRANCH  17  19
ATOM     19  C   LIG    1       27.581 -14.389   3.658  0.00  0.00    +0.174 C 
BRANCH  19  20
ATOM     20  N   LIG    1       27.469 -13.254   2.722  0.00  0.00    -0.323 NA
ATOM     21  H   LIG    1       28.343 -13.195   2.195  0.00  0.00    +0.119 HD
ATOM     22  H   LIG    1       26.778 -13.511   2.012  0.00  0.00    +0.119 HD
ENDBRANCH  19  20
ENDBRANCH  17  19
ENDBRANCH  14  15
ENDBRANCH   1  14
TORSDOF 8
ENDMDL
MODEL 3
REMARK VINA RESULT:      -3.8      2.439      5.010
REMARK  Name = *****
REMARK                            x       y       z     vdW  Elec       q    Type
REMARK                         _______ _______ _______ _____ _____    ______ ____
ROOT
ATOM      1  C   LIG    1       25.289 -19.765   3.604  0.00  0.00    +0.165 C 
ENDROOT
BRANCH   1   4
ATOM      2  C   LIG    1       23.045 -16.729   4.246  0.00  0.00    +0.121 A 
ATOM      3  C   LIG    1       24.152 -17.546   3.985  0.00  0.00    +0.055 A 
ATOM      4  C   LIG    1       24.063 -18.955   4.034  0.00  0.00    +0.027 A 
ATOM      5  C   LIG    1       22.839 -19.526   4.433  0.00  0.00    +0.126 A 
ATOM      6  C   LIG    1       21.739 -18.699   4.712  0.00  0.00    +0.049 A 
ATOM      7  C   LIG    1       21.839 -17.311   4.613  0.00  0.00    +0.049 A 
BRANCH   2   9
ATOM      8  C   LIG    1       24.338 -14.770   4.080  0.00  0.00    +0.277 C 
ATOM      9  O   LIG    1       23.047 -15.362   4.188  0.00  0.00    -0.495 OA
ENDBRANCH   2   9
BRANCH   5  10
ATOM     10  O   LIG    1       22.795 -20.891   4.524  0.00  0.00    -0.495 OA
ATOM     11  C   LIG    1       22.783 -21.445   5.834  0.00  0.00    +0.277 C 
ENDBRANCH   5  10
ENDBRANCH   1   4
BRANCH   1  12
ATOM     12  O   LIG    1       26.172 -19.079   2.711  0.00  0.00    -0.386 OA
ATOM     13  H   LIG    1       25.960 -18.132   2.781  0.00  0.00    +0.210 HD
ENDBRANCH   1  12
BRANCH   1  14
ATOM     14  C   LIG    1       26.117 -20.343   4.778  0.00  0.00    +0.140 C 
BRANCH  14  15
ATOM     15  N   LIG    1       27.371 -19.643   5.029  0.00  0.00    -0.311 N 
ATOM     16  H   LIG    1       27.629 -18.920   4.359  0.00  0.00    +0.149 HD
ATOM     17  C   LIG    1       28.223 -19.987   6.050  0.00  0.00    +0.227 C 
ATOM     18  O   LIG    1       28.008 -20.921   6.844  0.00  0.00    -0.274 OA
BRANCH  17  19
ATOM     19  C   LIG    1       29.474 -19.095   6.146  0.00  0.00    +0.174 C 
BRANCH  19  20
ATOM     20  N   LIG    1       29.423 -18.006   5.152  0.00  0.00    -0.323 NA
ATOM     21  H   LIG    1       28.845 -18.322   4.370  0.00  0.00    +0.119 HD
ATOM     22  H   LIG    1       28.876 -17.245   5.562  0.00  0.00    +0.119 HD
ENDBRANCH  19  20
ENDBRANCH  17  19
ENDBRANCH  14  15
ENDBRANCH   1  14
TORSDOF 8
ENDMDL
MODEL 4
REMARK VINA RESULT:      -3.4      2.326      5.172
REMARK  Name = *****
REMARK                            x       y       z     vdW  Elec       q    Type
REMARK                         _______ _______ _______ _____ _____    ______ ____
ROOT
ATOM      1  C   LIG    1       24.777 -19.570   3.615  0.00  0.00    +0.165 C 
ENDROOT
BRANCH   1   4
ATOM      2  C   LIG    1       25.646 -15.855   3.290  0.00  0.00    +0.121 A 
ATOM      3  C   LIG    1       25.726 -17.252   3.312  0.00  0.00    +0.055 A 
ATOM      4  C   LIG    1       24.647 -18.051   3.753  0.00  0.00    +0.027 A 
ATOM      5  C   LIG    1       23.503 -17.398   4.250  0.00  0.00    +0.126 A 
ATOM      6  C   LIG    1       23.439 -15.995   4.244  0.00  0.00    +0.049 A 
ATOM      7  C   LIG    1       24.500 -15.230   3.761  0.00  0.00    +0.049 A 
BRANCH   2   9
ATOM      8  C   LIG    1       26.220 -13.682   2.592  0.00  0.00    +0.277 C 
ATOM      9  O   LIG    1       26.636 -15.019   2.849  0.00  0.00    -0.495 OA
ENDBRANCH   2   9
BRANCH   5  10
ATOM     10  O   LIG    1       22.493 -18.194   4.721  0.00  0.00    -0.495 OA
ATOM     11  C   LIG    1       21.416 -18.455   3.830  0.00  0.00    +0.277 C 
ENDBRANCH   5  10
ENDBRANCH   1   4
BRANCH   1  12
ATOM     12  O   LIG    1       25.326 -20.009   2.369  0.00  0.00    -0.386 OA
ATOM     13  H   LIG    1       24.716 -20.681   2.016  0.00  0.00    +0.210 HD
ENDBRANCH   1  12
BRANCH   1  14
ATOM     14  C   LIG    1       25.552 -20.253   4.769  0.00  0.00    +0.140 C 
BRANCH  14  15
ATOM     15  N   LIG    1       26.951 -19.858   4.869  0.00  0.00    -0.311 N 
ATOM     16  H   LIG    1       27.387 -19.513   4.014  0.00  0.00    +0.149 HD
ATOM     17  C   LIG    1       27.690 -20.021   6.014  0.00  0.00    +0.227 C 
ATOM     18  O   LIG    1       27.239 -20.521   7.061  0.00  0.00    -0.274 OA
BRANCH  17  19
ATOM     19  C   LIG    1       29.137 -19.507   5.903  0.00  0.00    +0.174 C 
BRANCH  19  20
ATOM     20  N   LIG    1       29.203 -18.296   5.064  0.00  0.00    -0.323 NA
ATOM     21  H   LIG    1       28.496 -17.640   5.403  0.00  0.00    +0.119 HD
ATOM     22  H   LIG    1       30.087 -17.826   5.275  0.00  0.00    +0.119 HD
ENDBRANCH  19  20
ENDBRANCH  17  19
ENDBRANCH  14  15
ENDBRANCH   1  14
TORSDOF 8
ENDMDL
MODEL 5
REMARK VINA RESULT:      -3.3      2.768      6.108
REMARK  Name = *****
REMARK                            x       y       z     vdW  Elec       q    Type
REMARK                         _______ _______ _______ _____ _____    ______ ____
ROOT
ATOM      1  C   LIG    1       25.710 -17.430   3.297  0.00  0.00    +0.165 C 
ENDROOT
BRANCH   1   4
ATOM      2  C   LIG    1       26.597 -13.706   3.336  0.00  0.00    +0.121 A 
ATOM      3  C   LIG    1       26.678 -15.101   3.261  0.00  0.00    +0.055 A 
ATOM      4  C   LIG    1       25.563 -15.926   3.536  0.00  0.00    +0.027 A 
ATOM      5  C   LIG    1       24.375 -15.306   3.969  0.00  0.00    +0.126 A 
ATOM      6  C   LIG    1       24.309 -13.906   4.061  0.00  0.00    +0.049 A 
ATOM      7  C   LIG    1       25.409 -13.112   3.741  0.00  0.00    +0.049 A 
BRANCH   2   9
ATOM      8  C   LIG    1       28.728 -12.918   3.951  0.00  0.00    +0.277 C 
ATOM      9  O   LIG    1       27.623 -12.844   3.056  0.00  0.00    -0.495 OA
ENDBRANCH   2   9
BRANCH   5  10
ATOM     10  O   LIG    1       23.328 -16.130   4.280  0.00  0.00    -0.495 OA
ATOM     11  C   LIG    1       22.406 -15.653   5.254  0.00  0.00    +0.277 C 
ENDBRANCH   5  10
ENDBRANCH   1   4
BRANCH   1  12
ATOM     12  O   LIG    1       26.846 -18.026   3.931  0.00  0.00    -0.386 OA
ATOM     13  H   LIG    1       27.267 -17.328   4.462  0.00  0.00    +0.210 HD
ENDBRANCH   1  12
BRANCH   1  14
ATOM     14  C   LIG    1       24.450 -18.260   3.652  0.00  0.00    +0.140 C 
BRANCH  14  15
ATOM     15  N   LIG    1       24.736 -19.578   4.203  0.00  0.00    -0.311 N 
ATOM     16  H   LIG    1       25.547 -20.063   3.822  0.00  0.00    +0.149 HD
ATOM     17  C   LIG    1       23.918 -20.194   5.119  0.00  0.00    +0.227 C 
ATOM     18  O   LIG    1       22.866 -19.691   5.553  0.00  0.00    -0.274 OA
BRANCH  17  19
ATOM     19  C   LIG    1       24.428 -21.569   5.587  0.00  0.00    +0.174 C 
BRANCH  19  20
ATOM     20  N   LIG    1       25.858 -21.507   5.943  0.00  0.00    -0.323 NA
ATOM     21  H   LIG    1       25.929 -21.150   6.899  0.00  0.00    +0.119 HD
ATOM     22  H   LIG    1       26.195 -22.469   6.020  0.00  0.00    +0.119 HD
ENDBRANCH  19  20
ENDBRANCH  17  19
ENDBRANCH  14  15
ENDBRANCH   1  14
TORSDOF 8
ENDMDL
MODEL 6
REMARK VINA RESULT:      -3.2      2.749      6.103
REMARK  Name = *****
REMARK                            x       y       z     vdW  Elec       q    Type
REMARK                         _______ _______ _______ _____ _____    ______ ____
ROOT
ATOM      1  C   LIG    1       25.800 -18.659   3.406  0.00  0.00    +0.165 C 
ENDROOT
BRANCH   1   4
ATOM      2  C   LIG    1       25.551 -14.842   3.560  0.00  0.00    +0.121 A 
ATOM      3  C   LIG    1       25.276 -16.193   3.324  0.00  0.00    +0.055 A 
ATOM      4  C   LIG    1       26.236 -17.201   3.566  0.00  0.00    +0.027 A 
ATOM      5  C   LIG    1       27.521 -16.801   3.981  0.00  0.00    +0.126 A 
ATOM      6  C   LIG    1       27.796 -15.440   4.196  0.00  0.00    +0.049 A 
ATOM      7  C   LIG    1       26.816 -14.469   3.993  0.00  0.00    +0.049 A 
BRANCH   2   9
ATOM      8  C   LIG    1       24.912 -13.005   2.234  0.00  0.00    +0.277 C 
ATOM      9  O   LIG    1       24.663 -13.816   3.378  0.00  0.00    -0.495 OA
ENDBRANCH   2   9
BRANCH   5  10
ATOM     10  O   LIG    1       28.449 -17.792   4.157  0.00  0.00    -0.495 OA
ATOM     11  C   LIG    1       29.056 -17.880   5.441  0.00  0.00    +0.277 C 
ENDBRANCH   5  10
ENDBRANCH   1   4
BRANCH   1  12
ATOM     12  O   LIG    1       26.418 -19.569   4.321  0.00  0.00    -0.386 OA
ATOM     13  H   LIG    1       27.248 -19.152   4.612  0.00  0.00    +0.210 HD
ENDBRANCH   1  12
BRANCH   1  14
ATOM     14  C   LIG    1       24.267 -18.876   3.448  0.00  0.00    +0.140 C 
BRANCH  14  15
ATOM     15  N   LIG    1       23.850 -20.074   4.165  0.00  0.00    -0.311 N 
ATOM     16  H   LIG    1       24.264 -20.953   3.859  0.00  0.00    +0.149 HD
ATOM     17  C   LIG    1       22.881 -20.059   5.138  0.00  0.00    +0.227 C 
ATOM     18  O   LIG    1       22.273 -19.032   5.491  0.00  0.00    -0.274 OA
BRANCH  17  19
ATOM     19  C   LIG    1       22.621 -21.432   5.783  0.00  0.00    +0.174 C 
BRANCH  19  20
ATOM     20  N   LIG    1       23.344 -21.560   7.062  0.00  0.00    -0.323 NA
ATOM     21  H   LIG    1       23.214 -20.690   7.584  0.00  0.00    +0.119 HD
ATOM     22  H   LIG    1       22.847 -22.254   7.625  0.00  0.00    +0.119 HD
ENDBRANCH  19  20
ENDBRANCH  17  19
ENDBRANCH  14  15
ENDBRANCH   1  14
TORSDOF 8
ENDMDL
MODEL 7
REMARK VINA RESULT:      -3.0      2.493      5.901
REMARK  Name = *****
REMARK                            x       y       z     vdW  Elec       q    Type
REMARK                         _______ _______ _______ _____ _____    ______ ____
ROOT
ATOM      1  C   LIG    1       26.014 -17.853   3.282  0.00  0.00    +0.165 C 
ENDROOT
BRANCH   1   4
ATOM      2  C   LIG    1       24.675 -14.317   3.884  0.00  0.00    +0.121 A 
ATOM      3  C   LIG    1       25.521 -15.406   3.642  0.00  0.00    +0.055 A 
ATOM      4  C   LIG    1       25.050 -16.737   3.692  0.00  0.00    +0.027 A 
ATOM      5  C   LIG    1       23.711 -16.949   4.072  0.00  0.00    +0.126 A 
ATOM      6  C   LIG    1       22.874 -15.851   4.333  0.00  0.00    +0.049 A 
ATOM      7  C   LIG    1       23.351 -14.545   4.233  0.00  0.00    +0.049 A 
BRANCH   2   9
ATOM      8  C   LIG    1       24.000 -12.068   4.042  0.00  0.00    +0.277 C 
ATOM      9  O   LIG    1       25.052 -13.002   3.824  0.00  0.00    -0.495 OA
ENDBRANCH   2   9
BRANCH   5  10
ATOM     10  O   LIG    1       23.294 -18.250   4.164  0.00  0.00    -0.495 OA
ATOM     11  C   LIG    1       21.905 -18.463   4.388  0.00  0.00    +0.277 C 
ENDBRANCH   5  10
ENDBRANCH   1   4
BRANCH   1  12
ATOM     12  O   LIG    1       27.360 -17.672   3.730  0.00  0.00    -0.386 OA
ATOM     13  H   LIG    1       27.488 -16.715   3.849  0.00  0.00    +0.210 HD
ENDBRANCH   1  12
BRANCH   1  14
ATOM     14  C   LIG    1       25.546 -19.277   3.672  0.00  0.00    +0.140 C 
BRANCH  14  15
ATOM     15  N   LIG    1       26.418 -19.955   4.623  0.00  0.00    -0.311 N 
ATOM     16  H   LIG    1       27.390 -20.076   4.342  0.00  0.00    +0.149 HD
ATOM     17  C   LIG    1       25.959 -20.494   5.800  0.00  0.00    +0.227 C 
ATOM     18  O   LIG    1       24.767 -20.458   6.157  0.00  0.00    -0.274 OA
BRANCH  17  19
ATOM     19  C   LIG    1       27.058 -21.136   6.665  0.00  0.00    +0.174 C 
BRANCH  19  20
ATOM     20  N   LIG    1       28.396 -20.695   6.228  0.00  0.00    -0.323 NA
ATOM     21  H   LIG    1       28.852 -21.485   5.766  0.00  0.00    +0.119 HD
ATOM     22  H   LIG    1       28.263 -20.020   5.471  0.00  0.00    +0.119 HD
ENDBRANCH  19  20
ENDBRANCH  17  19
ENDBRANCH  14  15
ENDBRANCH   1  14
TORSDOF 8
ENDMDL
MODEL 8
REMARK VINA RESULT:      -3.0      2.005      4.707
REMARK  Name = *****
REMARK                            x       y       z     vdW  Elec       q    Type
REMARK                         _______ _______ _______ _____ _____    ______ ____
ROOT
ATOM      1  C   LIG    1       25.595 -21.195   5.364  0.00  0.00    +0.165 C 
ENDROOT
BRANCH   1   4
ATOM      2  C   LIG    1       26.643 -17.849   3.824  0.00  0.00    +0.121 A 
ATOM      3  C   LIG    1       25.956 -19.034   4.114  0.00  0.00    +0.055 A 
ATOM      4  C   LIG    1       26.478 -19.997   5.006  0.00  0.00    +0.027 A 
ATOM      5  C   LIG    1       27.759 -19.770   5.545  0.00  0.00    +0.126 A 
ATOM      6  C   LIG    1       28.451 -18.588   5.234  0.00  0.00    +0.049 A 
ATOM      7  C   LIG    1       27.895 -17.633   4.385  0.00  0.00    +0.049 A 
BRANCH   2   9
ATOM      8  C   LIG    1       26.569 -15.541   3.372  0.00  0.00    +0.277 C 
ATOM      9  O   LIG    1       26.187 -16.860   2.995  0.00  0.00    -0.495 OA
ENDBRANCH   2   9
BRANCH   5  10
ATOM     10  O   LIG    1       28.265 -20.743   6.365  0.00  0.00    -0.495 OA
ATOM     11  C   LIG    1       29.466 -20.432   7.062  0.00  0.00    +0.277 C 
ENDBRANCH   5  10
ENDBRANCH   1   4
BRANCH   1  12
ATOM     12  O   LIG    1       25.020 -21.141   6.672  0.00  0.00    -0.386 OA
ATOM     13  H   LIG    1       24.055 -21.190   6.555  0.00  0.00    +0.210 HD
ENDBRANCH   1  12
BRANCH   1  14
ATOM     14  C   LIG    1       24.474 -21.491   4.337  0.00  0.00    +0.140 C 
BRANCH  14  15
ATOM     15  N   LIG    1       23.669 -20.331   3.978  0.00  0.00    -0.311 N 
ATOM     16  H   LIG    1       23.932 -19.843   3.122  0.00  0.00    +0.149 HD
ATOM     17  C   LIG    1       22.667 -19.843   4.780  0.00  0.00    +0.227 C 
ATOM     18  O   LIG    1       22.360 -20.339   5.880  0.00  0.00    -0.274 OA
BRANCH  17  19
ATOM     19  C   LIG    1       21.929 -18.627   4.190  0.00  0.00    +0.174 C 
BRANCH  19  20
ATOM     20  N   LIG    1       22.386 -17.376   4.823  0.00  0.00    -0.323 NA
ATOM     21  H   LIG    1       21.814 -16.612   4.457  0.00  0.00    +0.119 HD
ATOM     22  H   LIG    1       22.125 -17.420   5.810  0.00  0.00    +0.119 HD
ENDBRANCH  19  20
ENDBRANCH  17  19
ENDBRANCH  14  15
ENDBRANCH   1  14
TORSDOF 8
ENDMDL
MODEL 9
REMARK VINA RESULT:      -3.0      2.332      5.708
REMARK  Name = *****
REMARK                            x       y       z     vdW  Elec       q    Type
REMARK                         _______ _______ _______ _____ _____    ______ ____
ROOT
ATOM      1  C   LIG    1       24.219 -18.290   3.972  0.00  0.00    +0.165 C 
ENDROOT
BRANCH   1   4
ATOM      2  C   LIG    1       26.059 -15.032   3.161  0.00  0.00    +0.121 A 
ATOM      3  C   LIG    1       25.757 -16.381   3.381  0.00  0.00    +0.055 A 
ATOM      4  C   LIG    1       24.505 -16.789   3.892  0.00  0.00    +0.027 A 
ATOM      5  C   LIG    1       23.583 -15.788   4.254  0.00  0.00    +0.126 A 
ATOM      6  C   LIG    1       23.901 -14.435   4.049  0.00  0.00    +0.049 A 
ATOM      7  C   LIG    1       25.127 -14.061   3.501  0.00  0.00    +0.049 A 
BRANCH   2   9
ATOM      8  C   LIG    1       27.979 -13.717   3.512  0.00  0.00    +0.277 C 
ATOM      9  O   LIG    1       27.236 -14.565   2.642  0.00  0.00    -0.495 OA
ENDBRANCH   2   9
BRANCH   5  10
ATOM     10  O   LIG    1       22.398 -16.207   4.796  0.00  0.00    -0.495 OA
ATOM     11  C   LIG    1       21.967 -15.547   5.981  0.00  0.00    +0.277 C 
ENDBRANCH   5  10
ENDBRANCH   1   4
BRANCH   1  12
ATOM     12  O   LIG    1       22.996 -18.697   3.351  0.00  0.00    -0.386 OA
ATOM     13  H   LIG    1       23.021 -18.361   2.438  0.00  0.00    +0.210 HD
ENDBRANCH   1  12
BRANCH   1  14
ATOM     14  C   LIG    1       25.367 -19.189   3.449  0.00  0.00    +0.140 C 
BRANCH  14  15
ATOM     15  N   LIG    1       26.283 -19.653   4.483  0.00  0.00    -0.311 N 
ATOM     16  H   LIG    1       27.261 -19.386   4.377  0.00  0.00    +0.149 HD
ATOM     17  C   LIG    1       25.893 -20.486   5.503  0.00  0.00    +0.227 C 
ATOM     18  O   LIG    1       24.734 -20.921   5.633  0.00  0.00    -0.274 OA
BRANCH  17  19
ATOM     19  C   LIG    1       27.017 -20.826   6.497  0.00  0.00    +0.174 C 
BRANCH  19  20
ATOM     20  N   LIG    1       28.337 -20.468   5.943  0.00  0.00    -0.323 NA
ATOM     21  H   LIG    1       28.907 -20.094   6.705  0.00  0.00    +0.119 HD
ATOM     22  H   LIG    1       28.810 -21.340   5.695  0.00  0.00    +0.119 HD
ENDBRANCH  19  20
ENDBRANCH  17  19
ENDBRANCH  14  15
ENDBRANCH   1  14
TORSDOF 8
ENDMDL
