MODEL 1
REMARK VINA RESULT:      -7.4      0.000      0.000
REMARK  Name = *****
REMARK                            x       y       z     vdW  Elec       q    Type
REMARK                         _______ _______ _______ _____ _____    ______ ____
ROOT
ATOM      1  C   LIG    1       25.498 -20.106   5.519  0.00  0.00    +0.088 C 
ATOM      2  C   LIG    1       26.813 -20.352   6.220  0.00  0.00    +0.004 A 
ATOM      3  C   LIG    1       27.001 -21.445   7.042  0.00  0.00    +0.132 A 
ATOM      4  S   LIG    1       28.547 -21.511   7.736  0.00  0.00    -0.050 S 
ATOM      5  C   LIG    1       29.013 -20.055   6.973  0.00  0.00    +0.144 A 
ATOM      6  S   LIG    1       25.838 -22.697   7.503  0.00  0.00    +0.006 S 
ATOM      7  O   LIG    1       26.350 -23.931   6.946  0.00  0.00    -0.169 OA
ATOM      8  O   LIG    1       25.643 -22.501   8.924  0.00  0.00    -0.169 OA
ATOM      9  C   LIG    1       24.362 -22.178   6.604  0.00  0.00    +0.135 C 
ATOM     10  C   LIG    1       23.114 -22.648   7.347  0.00  0.00    +0.032 C 
ATOM     11  C   LIG    1       27.995 -19.544   6.183  0.00  0.00    +0.043 A 
ATOM     12  C   LIG    1       24.328 -20.647   6.386  0.00  0.00    +0.050 C 
ENDROOT
BRANCH   5  13
ATOM     13  S   LIG    1       30.657 -19.466   7.319  0.00  0.00    +0.062 S 
ATOM     14  O   LIG    1       30.474 -18.494   8.373  0.00  0.00    -0.153 OA
ATOM     15  O   LIG    1       31.200 -19.135   6.025  0.00  0.00    -0.153 OA
BRANCH  13  16
ATOM     16  N   LIG    1       31.577 -20.720   7.950  0.00  0.00    -0.203 NA
ATOM     17  H   LIG    1       31.657 -20.665   8.964  0.00  0.00    +0.144 HD
ATOM     18  H   LIG    1       31.278 -21.628   7.597  0.00  0.00    +0.144 HD
ENDBRANCH  13  16
ENDBRANCH   5  13
BRANCH   1  19
ATOM     19  N   LIG    1       25.599 -20.762   4.213  0.00  0.00    -0.309 NA
ATOM     20  H   LIG    1       26.502 -20.527   3.792  0.00  0.00    +0.122 HD
BRANCH  19  22
ATOM     21  C   LIG    1       24.151 -18.913   3.484  0.00  0.00    +0.020 C 
ATOM     22  C   LIG    1       24.539 -20.373   3.280  0.00  0.00    +0.078 C 
ENDBRANCH  19  22
ENDBRANCH   1  19
TORSDOF 4
ENDMDL
MODEL 2
REMARK VINA RESULT:      -6.3      4.213      5.743
REMARK  Name = *****
REMARK                            x       y       z     vdW  Elec       q    Type
REMARK                         _______ _______ _______ _____ _____    ______ ____
ROOT
ATOM      1  C   LIG    1       25.484 -21.394   7.430  0.00  0.00    +0.088 C 
ATOM      2  C   LIG    1       25.374 -22.718   6.712  0.00  0.00    +0.004 A 
ATOM      3  C   LIG    1       24.620 -22.858   5.564  0.00  0.00    +0.132 A 
ATOM      4  S   LIG    1       24.626 -24.434   4.939  0.00  0.00    -0.050 S 
ATOM      5  C   LIG    1       25.625 -24.993   6.207  0.00  0.00    +0.144 A 
ATOM      6  S   LIG    1       23.621 -21.650   4.741  0.00  0.00    +0.006 S 
ATOM      7  O   LIG    1       24.241 -21.445   3.449  0.00  0.00    -0.169 OA
ATOM      8  O   LIG    1       22.267 -22.141   4.891  0.00  0.00    -0.169 OA
ATOM      9  C   LIG    1       23.866 -20.197   5.783  0.00  0.00    +0.135 C 
ATOM     10  C   LIG    1       22.638 -19.294   5.704  0.00  0.00    +0.032 C 
ATOM     11  C   LIG    1       25.961 -23.971   7.081  0.00  0.00    +0.043 A 
ATOM     12  C   LIG    1       24.171 -20.584   7.249  0.00  0.00    +0.050 C 
ENDROOT
BRANCH   5  13
ATOM     13  S   LIG    1       26.039 -26.724   6.190  0.00  0.00    +0.062 S 
ATOM     14  O   LIG    1       25.027 -27.326   5.352  0.00  0.00    -0.153 OA
ATOM     15  O   LIG    1       26.219 -27.066   7.579  0.00  0.00    -0.153 OA
BRANCH  13  16
ATOM     16  N   LIG    1       27.516 -26.936   5.420  0.00  0.00    -0.203 NA
ATOM     17  H   LIG    1       27.719 -26.183   4.764  0.00  0.00    +0.144 HD
ATOM     18  H   LIG    1       28.266 -27.136   6.079  0.00  0.00    +0.144 HD
ENDBRANCH  13  16
ENDBRANCH   5  13
BRANCH   1  19
ATOM     19  N   LIG    1       26.659 -20.720   6.870  0.00  0.00    -0.309 NA
ATOM     20  H   LIG    1       27.035 -21.288   6.107  0.00  0.00    +0.122 HD
BRANCH  19  22
ATOM     21  C   LIG    1       29.033 -21.114   7.374  0.00  0.00    +0.020 C 
ATOM     22  C   LIG    1       27.725 -20.495   7.849  0.00  0.00    +0.078 C 
ENDBRANCH  19  22
ENDBRANCH   1  19
TORSDOF 4
ENDMDL
MODEL 3
REMARK VINA RESULT:      -5.9      7.608      9.828
REMARK  Name = *****
REMARK                            x       y       z     vdW  Elec       q    Type
REMARK                         _______ _______ _______ _____ _____    ______ ____
ROOT
ATOM      1  C   LIG    1       25.971 -30.171   8.835  0.00  0.00    +0.088 C 
ATOM      2  C   LIG    1       25.529 -29.222   7.747  0.00  0.00    +0.004 A 
ATOM      3  C   LIG    1       24.961 -29.678   6.574  0.00  0.00    +0.132 A 
ATOM      4  S   LIG    1       24.559 -28.439   5.490  0.00  0.00    -0.050 S 
ATOM      5  C   LIG    1       25.158 -27.240   6.550  0.00  0.00    +0.144 A 
ATOM      6  S   LIG    1       24.686 -31.348   6.054  0.00  0.00    +0.006 S 
ATOM      7  O   LIG    1       23.249 -31.498   5.967  0.00  0.00    -0.169 OA
ATOM      8  O   LIG    1       25.563 -31.519   4.914  0.00  0.00    -0.169 OA
ATOM      9  C   LIG    1       25.322 -32.282   7.462  0.00  0.00    +0.135 C 
ATOM     10  C   LIG    1       25.822 -33.645   6.992  0.00  0.00    +0.032 C 
ATOM     11  C   LIG    1       25.639 -27.794   7.726  0.00  0.00    +0.043 A 
ATOM     12  C   LIG    1       26.437 -31.514   8.208  0.00  0.00    +0.050 C 
ENDROOT
BRANCH   5  13
ATOM     13  S   LIG    1       25.070 -25.557   5.979  0.00  0.00    +0.062 S 
ATOM     14  O   LIG    1       25.248 -25.655   4.548  0.00  0.00    -0.153 OA
ATOM     15  O   LIG    1       25.975 -24.837   6.840  0.00  0.00    -0.153 OA
BRANCH  13  16
ATOM     16  N   LIG    1       23.526 -24.956   6.250  0.00  0.00    -0.203 NA
ATOM     17  H   LIG    1       23.248 -24.278   5.542  0.00  0.00    +0.144 HD
ATOM     18  H   LIG    1       22.850 -25.700   6.413  0.00  0.00    +0.144 HD
ENDBRANCH  13  16
ENDBRANCH   5  13
BRANCH   1  19
ATOM     19  N   LIG    1       24.825 -30.324   9.736  0.00  0.00    -0.309 NA
ATOM     20  H   LIG    1       24.129 -29.607   9.513  0.00  0.00    +0.122 HD
BRANCH  19  22
ATOM     21  C   LIG    1       25.688 -28.800  11.463  0.00  0.00    +0.020 C 
ATOM     22  C   LIG    1       25.177 -30.202  11.153  0.00  0.00    +0.078 C 
ENDBRANCH  19  22
ENDBRANCH   1  19
TORSDOF 4
ENDMDL
MODEL 4
REMARK VINA RESULT:      -5.7      7.587      9.738
REMARK  Name = *****
REMARK                            x       y       z     vdW  Elec       q    Type
REMARK                         _______ _______ _______ _____ _____    ______ ____
ROOT
ATOM      1  C   LIG    1       26.593 -29.600   9.723  0.00  0.00    +0.088 C 
ATOM      2  C   LIG    1       25.994 -28.963   8.492  0.00  0.00    +0.004 A 
ATOM      3  C   LIG    1       25.178 -29.672   7.634  0.00  0.00    +0.132 A 
ATOM      4  S   LIG    1       24.635 -28.762   6.311  0.00  0.00    -0.050 S 
ATOM      5  C   LIG    1       25.501 -27.384   6.831  0.00  0.00    +0.144 A 
ATOM      6  S   LIG    1       24.712 -31.378   7.707  0.00  0.00    +0.006 S 
ATOM      7  O   LIG    1       23.281 -31.383   7.923  0.00  0.00    -0.169 OA
ATOM      8  O   LIG    1       25.330 -31.970   6.539  0.00  0.00    -0.169 OA
ATOM      9  C   LIG    1       25.565 -31.930   9.199  0.00  0.00    +0.135 C 
ATOM     10  C   LIG    1       25.884 -33.419   9.088  0.00  0.00    +0.032 C 
ATOM     11  C   LIG    1       26.177 -27.624   8.017  0.00  0.00    +0.043 A 
ATOM     12  C   LIG    1       26.848 -31.111   9.466  0.00  0.00    +0.050 C 
ENDROOT
BRANCH   5  13
ATOM     13  S   LIG    1       25.393 -25.939   5.797  0.00  0.00    +0.062 S 
ATOM     14  O   LIG    1       25.864 -26.387   4.506  0.00  0.00    -0.153 OA
ATOM     15  O   LIG    1       26.043 -24.902   6.558  0.00  0.00    -0.153 OA
BRANCH  13  16
ATOM     16  N   LIG    1       23.782 -25.502   5.616  0.00  0.00    -0.203 NA
ATOM     17  H   LIG    1       23.294 -25.456   6.509  0.00  0.00    +0.144 HD
ATOM     18  H   LIG    1       23.675 -24.674   5.032  0.00  0.00    +0.144 HD
ENDBRANCH  13  16
ENDBRANCH   5  13
BRANCH   1  19
ATOM     19  N   LIG    1       25.645 -29.354  10.814  0.00  0.00    -0.309 NA
ATOM     20  H   LIG    1       24.964 -28.653  10.511  0.00  0.00    +0.122 HD
BRANCH  19  22
ATOM     21  C   LIG    1       26.902 -27.502  11.834  0.00  0.00    +0.020 C 
ATOM     22  C   LIG    1       26.283 -28.878  12.045  0.00  0.00    +0.078 C 
ENDBRANCH  19  22
ENDBRANCH   1  19
TORSDOF 4
ENDMDL
MODEL 5
REMARK VINA RESULT:      -5.4      8.272      9.945
REMARK  Name = *****
REMARK                            x       y       z     vdW  Elec       q    Type
REMARK                         _______ _______ _______ _____ _____    ______ ____
ROOT
ATOM      1  C   LIG    1       24.729 -29.507   6.693  0.00  0.00    +0.088 C 
ATOM      2  C   LIG    1       25.572 -29.806   7.909  0.00  0.00    +0.004 A 
ATOM      3  C   LIG    1       26.154 -31.043   8.100  0.00  0.00    +0.132 A 
ATOM      4  S   LIG    1       27.040 -31.159   9.540  0.00  0.00    -0.050 S 
ATOM      5  C   LIG    1       26.652 -29.552   9.974  0.00  0.00    +0.144 A 
ATOM      6  S   LIG    1       26.024 -32.495   7.095  0.00  0.00    +0.006 S 
ATOM      7  O   LIG    1       27.357 -32.743   6.592  0.00  0.00    -0.169 OA
ATOM      8  O   LIG    1       25.310 -33.444   7.925  0.00  0.00    -0.169 OA
ATOM      9  C   LIG    1       24.954 -31.923   5.759  0.00  0.00    +0.135 C 
ATOM     10  C   LIG    1       24.166 -33.101   5.190  0.00  0.00    +0.032 C 
ATOM     11  C   LIG    1       25.870 -28.938   9.008  0.00  0.00    +0.043 A 
ATOM     12  C   LIG    1       24.002 -30.797   6.223  0.00  0.00    +0.050 C 
ENDROOT
BRANCH   5  13
ATOM     13  S   LIG    1       27.290 -28.971  11.531  0.00  0.00    +0.062 S 
ATOM     14  O   LIG    1       26.672 -29.832  12.513  0.00  0.00    -0.153 OA
ATOM     15  O   LIG    1       27.090 -27.545  11.493  0.00  0.00    -0.153 OA
BRANCH  13  16
ATOM     16  N   LIG    1       28.945 -29.250  11.594  0.00  0.00    -0.203 NA
ATOM     17  H   LIG    1       29.471 -28.396  11.771  0.00  0.00    +0.144 HD
ATOM     18  H   LIG    1       29.178 -30.026  12.211  0.00  0.00    +0.144 HD
ENDBRANCH  13  16
ENDBRANCH   5  13
BRANCH   1  19
ATOM     19  N   LIG    1       25.642 -28.961   5.684  0.00  0.00    -0.309 NA
ATOM     20  H   LIG    1       26.542 -28.758   6.126  0.00  0.00    +0.122 HD
BRANCH  19  22
ATOM     21  C   LIG    1       24.414 -26.865   6.067  0.00  0.00    +0.020 C 
ATOM     22  C   LIG    1       25.149 -27.733   5.054  0.00  0.00    +0.078 C 
ENDBRANCH  19  22
ENDBRANCH   1  19
TORSDOF 4
ENDMDL
MODEL 6
REMARK VINA RESULT:      -5.4      3.314      5.955
REMARK  Name = *****
REMARK                            x       y       z     vdW  Elec       q    Type
REMARK                         _______ _______ _______ _____ _____    ______ ____
ROOT
ATOM      1  C   LIG    1       24.363 -22.401   4.949  0.00  0.00    +0.088 C 
ATOM      2  C   LIG    1       24.834 -23.706   5.546  0.00  0.00    +0.004 A 
ATOM      3  C   LIG    1       25.692 -23.740   6.627  0.00  0.00    +0.132 A 
ATOM      4  S   LIG    1       26.101 -25.310   7.117  0.00  0.00    -0.050 S 
ATOM      5  C   LIG    1       25.155 -26.005   5.874  0.00  0.00    +0.144 A 
ATOM      6  S   LIG    1       26.451 -22.388   7.480  0.00  0.00    +0.006 S 
ATOM      7  O   LIG    1       25.910 -22.419   8.822  0.00  0.00    -0.169 OA
ATOM      8  O   LIG    1       27.865 -22.534   7.202  0.00  0.00    -0.169 OA
ATOM      9  C   LIG    1       25.793 -20.968   6.581  0.00  0.00    +0.135 C 
ATOM     10  C   LIG    1       26.783 -19.808   6.655  0.00  0.00    +0.032 C 
ATOM     11  C   LIG    1       24.522 -25.035   5.113  0.00  0.00    +0.043 A 
ATOM     12  C   LIG    1       25.465 -21.318   5.111  0.00  0.00    +0.050 C 
ENDROOT
BRANCH   5  13
ATOM     13  S   LIG    1       25.153 -27.782   5.774  0.00  0.00    +0.062 S 
ATOM     14  O   LIG    1       25.077 -28.217   7.150  0.00  0.00    -0.153 OA
ATOM     15  O   LIG    1       26.260 -28.096   4.907  0.00  0.00    -0.153 OA
BRANCH  13  16
ATOM     16  N   LIG    1       23.748 -28.295   5.010  0.00  0.00    -0.203 NA
ATOM     17  H   LIG    1       23.442 -29.208   5.344  0.00  0.00    +0.144 HD
ATOM     18  H   LIG    1       23.026 -27.578   5.017  0.00  0.00    +0.144 HD
ENDBRANCH  13  16
ENDBRANCH   5  13
BRANCH   1  19
ATOM     19  N   LIG    1       23.115 -22.061   5.639  0.00  0.00    -0.309 NA
ATOM     20  H   LIG    1       22.568 -22.914   5.775  0.00  0.00    +0.122 HD
BRANCH  19  22
ATOM     21  C   LIG    1       22.566 -19.676   5.396  0.00  0.00    +0.020 C 
ATOM     22  C   LIG    1       22.291 -21.094   4.910  0.00  0.00    +0.078 C 
ENDBRANCH  19  22
ENDBRANCH   1  19
TORSDOF 4
ENDMDL
MODEL 7
REMARK VINA RESULT:      -5.3      8.275     10.179
REMARK  Name = *****
REMARK                            x       y       z     vdW  Elec       q    Type
REMARK                         _______ _______ _______ _____ _____    ______ ____
ROOT
ATOM      1  C   LIG    1       24.889 -31.780   5.403  0.00  0.00    +0.088 C 
ATOM      2  C   LIG    1       25.000 -30.350   5.873  0.00  0.00    +0.004 A 
ATOM      3  C   LIG    1       24.816 -30.006   7.197  0.00  0.00    +0.132 A 
ATOM      4  S   LIG    1       24.970 -28.344   7.492  0.00  0.00    -0.050 S 
ATOM      5  C   LIG    1       25.266 -28.020   5.840  0.00  0.00    +0.144 A 
ATOM      6  S   LIG    1       24.377 -31.046   8.560  0.00  0.00    +0.006 S 
ATOM      7  O   LIG    1       25.514 -31.018   9.455  0.00  0.00    -0.169 OA
ATOM      8  O   LIG    1       23.060 -30.590   8.951  0.00  0.00    -0.169 OA
ATOM      9  C   LIG    1       24.255 -32.662   7.766  0.00  0.00    +0.135 C 
ATOM     10  C   LIG    1       23.262 -33.537   8.527  0.00  0.00    +0.032 C 
ATOM     11  C   LIG    1       25.265 -29.183   5.085  0.00  0.00    +0.043 A 
ATOM     12  C   LIG    1       23.856 -32.545   6.277  0.00  0.00    +0.050 C 
ENDROOT
BRANCH   5  13
ATOM     13  S   LIG    1       25.508 -26.315   5.394  0.00  0.00    +0.062 S 
ATOM     14  O   LIG    1       26.016 -26.368   4.042  0.00  0.00    -0.153 OA
ATOM     15  O   LIG    1       26.250 -25.756   6.495  0.00  0.00    -0.153 OA
BRANCH  13  16
ATOM     16  N   LIG    1       24.021 -25.537   5.337  0.00  0.00    -0.203 NA
ATOM     17  H   LIG    1       23.243 -26.195   5.328  0.00  0.00    +0.144 HD
ATOM     18  H   LIG    1       23.946 -24.804   6.040  0.00  0.00    +0.144 HD
ENDBRANCH  13  16
ENDBRANCH   5  13
BRANCH   1  19
ATOM     19  N   LIG    1       26.240 -32.344   5.482  0.00  0.00    -0.309 NA
ATOM     20  H   LIG    1       26.919 -31.580   5.475  0.00  0.00    +0.122 HD
BRANCH  19  22
ATOM     21  C   LIG    1       25.976 -32.739   3.069  0.00  0.00    +0.020 C 
ATOM     22  C   LIG    1       26.557 -33.255   4.380  0.00  0.00    +0.078 C 
ENDBRANCH  19  22
ENDBRANCH   1  19
TORSDOF 4
ENDMDL
MODEL 8
REMARK VINA RESULT:      -5.2      7.623      9.660
REMARK  Name = *****
REMARK                            x       y       z     vdW  Elec       q    Type
REMARK                         _______ _______ _______ _____ _____    ______ ____
ROOT
ATOM      1  C   LIG    1       24.168 -31.138   7.559  0.00  0.00    +0.088 C 
ATOM      2  C   LIG    1       24.801 -29.773   7.445  0.00  0.00    +0.004 A 
ATOM      3  C   LIG    1       25.636 -29.277   8.427  0.00  0.00    +0.132 A 
ATOM      4  S   LIG    1       26.218 -27.719   8.098  0.00  0.00    -0.050 S 
ATOM      5  C   LIG    1       25.347 -27.643   6.630  0.00  0.00    +0.144 A 
ATOM      6  S   LIG    1       26.090 -30.016   9.970  0.00  0.00    +0.006 S 
ATOM      7  O   LIG    1       27.515 -30.254   9.885  0.00  0.00    -0.169 OA
ATOM      8  O   LIG    1       25.499 -29.152  10.971  0.00  0.00    -0.169 OA
ATOM      9  C   LIG    1       25.195 -31.582   9.906  0.00  0.00    +0.135 C 
ATOM     10  C   LIG    1       24.871 -32.048  11.323  0.00  0.00    +0.032 C 
ATOM     11  C   LIG    1       24.639 -28.812   6.395  0.00  0.00    +0.043 A 
ATOM     12  C   LIG    1       23.910 -31.478   9.054  0.00  0.00    +0.050 C 
ENDROOT
BRANCH   5  13
ATOM     13  S   LIG    1       25.490 -26.134   5.696  0.00  0.00    +0.062 S 
ATOM     14  O   LIG    1       26.079 -26.544   4.442  0.00  0.00    -0.153 OA
ATOM     15  O   LIG    1       26.123 -25.209   6.602  0.00  0.00    -0.153 OA
BRANCH  13  16
ATOM     16  N   LIG    1       23.956 -25.542   5.356  0.00  0.00    -0.203 NA
ATOM     17  H   LIG    1       23.224 -26.095   5.800  0.00  0.00    +0.144 HD
ATOM     18  H   LIG    1       23.888 -24.539   5.522  0.00  0.00    +0.144 HD
ENDBRANCH  13  16
ENDBRANCH   5  13
BRANCH   1  19
ATOM     19  N   LIG    1       25.088 -32.074   6.906  0.00  0.00    -0.309 NA
ATOM     20  H   LIG    1       26.024 -31.661   6.891  0.00  0.00    +0.122 HD
BRANCH  19  22
ATOM     21  C   LIG    1       25.777 -31.951   4.549  0.00  0.00    +0.020 C 
ATOM     22  C   LIG    1       24.705 -32.405   5.532  0.00  0.00    +0.078 C 
ENDBRANCH  19  22
ENDBRANCH   1  19
TORSDOF 4
ENDMDL
MODEL 9
REMARK VINA RESULT:      -5.0      9.794     11.445
REMARK  Name = *****
REMARK                            x       y       z     vdW  Elec       q    Type
REMARK                         _______ _______ _______ _____ _____    ______ ____
ROOT
ATOM      1  C   LIG    1       23.330 -30.043  11.623  0.00  0.00    +0.088 C 
ATOM      2  C   LIG    1       24.019 -30.099  10.281  0.00  0.00    +0.004 A 
ATOM      3  C   LIG    1       25.349 -29.759  10.135  0.00  0.00    +0.132 A 
ATOM      4  S   LIG    1       25.907 -29.879   8.539  0.00  0.00    -0.050 S 
ATOM      5  C   LIG    1       24.369 -30.371   7.979  0.00  0.00    +0.144 A 
ATOM      6  S   LIG    1       26.479 -29.158  11.358  0.00  0.00    +0.006 S 
ATOM      7  O   LIG    1       27.496 -30.180  11.486  0.00  0.00    -0.169 OA
ATOM      8  O   LIG    1       26.776 -27.804  10.940  0.00  0.00    -0.169 OA
ATOM      9  C   LIG    1       25.442 -29.129  12.835  0.00  0.00    +0.135 C 
ATOM     10  C   LIG    1       25.940 -28.051  13.793  0.00  0.00    +0.032 C 
ATOM     11  C   LIG    1       23.453 -30.459   9.015  0.00  0.00    +0.043 A 
ATOM     12  C   LIG    1       23.951 -28.912  12.489  0.00  0.00    +0.050 C 
ENDROOT
BRANCH   5  13
ATOM     13  S   LIG    1       24.216 -30.668   6.231  0.00  0.00    +0.062 S 
ATOM     14  O   LIG    1       23.381 -31.844   6.140  0.00  0.00    -0.153 OA
ATOM     15  O   LIG    1       25.569 -30.619   5.737  0.00  0.00    -0.153 OA
BRANCH  13  16
ATOM     16  N   LIG    1       23.371 -29.401   5.522  0.00  0.00    -0.203 NA
ATOM     17  H   LIG    1       22.454 -29.267   5.945  0.00  0.00    +0.144 HD
ATOM     18  H   LIG    1       23.935 -28.556   5.456  0.00  0.00    +0.144 HD
ENDBRANCH  13  16
ENDBRANCH   5  13
BRANCH   1  19
ATOM     19  N   LIG    1       23.483 -31.373  12.219  0.00  0.00    -0.309 NA
ATOM     20  H   LIG    1       23.754 -32.035  11.488  0.00  0.00    +0.122 HD
BRANCH  19  22
ATOM     21  C   LIG    1       21.061 -31.702  11.938  0.00  0.00    +0.020 C 
ATOM     22  C   LIG    1       22.262 -31.868  12.861  0.00  0.00    +0.078 C 
ENDBRANCH  19  22
ENDBRANCH   1  19
TORSDOF 4
ENDMDL
