MODEL 1
REMARK VINA RESULT:      -7.2      0.000      0.000
REMARK  Name = *****
REMARK                            x       y       z     vdW  Elec       q    Type
REMARK                         _______ _______ _______ _____ _____    ______ ____
ROOT
ATOM      1  C   LIG    1       25.987 -27.661   7.487  0.00  0.00    +0.113 C 
ENDROOT
BRANCH   1   3
ATOM      2  C   LIG    1       25.829 -25.249   6.596  0.00  0.00    +0.245 C 
ATOM      3  N   LIG    1       25.778 -26.203   7.607  0.00  0.00    -0.305 N 
ATOM      4  H   LIG    1       25.887 -25.880   8.554  0.00  0.00    +0.149 HD
ATOM      5  O   LIG    1       26.004 -25.555   5.440  0.00  0.00    -0.270 OA
BRANCH   2   8
ATOM      6  C   LIG    1       23.103 -23.947   6.690  0.00  0.00    +0.048 C 
ATOM      7  C   LIG    1       24.343 -23.199   7.108  0.00  0.00    +0.003 A 
ATOM      8  C   LIG    1       25.634 -23.798   7.030  0.00  0.00    +0.043 A 
ATOM      9  C   LIG    1       26.765 -23.017   7.343  0.00  0.00    +0.013 A 
ATOM     10  C   LIG    1       26.647 -21.687   7.747  0.00  0.00    +0.004 A 
ATOM     11  C   LIG    1       25.393 -21.111   7.850  0.00  0.00    +0.045 A 
ATOM     12  C   LIG    1       24.257 -21.857   7.543  0.00  0.00    +0.120 A 
BRANCH  12  13
ATOM     13  O   LIG    1       23.081 -21.171   7.687  0.00  0.00    -0.506 OA
ATOM     14  H   LIG    1       22.798 -21.196   8.612  0.00  0.00    +0.292 HD
ENDBRANCH  12  13
ENDBRANCH   2   8
ENDBRANCH   1   3
BRANCH   1  15
ATOM     15  C   LIG    1       26.673 -28.415   8.677  0.00  0.00    +0.149 C 
BRANCH  15  16
ATOM     16  O   LIG    1       26.669 -29.828   8.473  0.00  0.00    -0.389 OA
ATOM     17  H   LIG    1       27.585 -30.146   8.645  0.00  0.00    +0.210 HD
ENDBRANCH  15  16
BRANCH  15  18
ATOM     18  C   LIG    1       26.186 -28.002  10.119  0.00  0.00    +0.118 C 
BRANCH  18  19
ATOM     19  N   LIG    1       26.192 -29.089  11.144  0.00  0.00    -0.289 NA
ATOM     20  C   LIG    1       24.882 -29.468  11.756  0.00  0.00    +0.143 C 
ATOM     21  C   LIG    1       24.238 -28.292  12.491  0.00  0.00    +0.032 C 
ATOM     22  C   LIG    1       25.094 -27.941  13.719  0.00  0.00    -0.005 C 
ATOM     23  C   LIG    1       26.619 -27.912  13.435  0.00  0.00    +0.006 C 
ATOM     24  C   LIG    1       27.224 -26.495  13.422  0.00  0.00    +0.005 C 
ATOM     25  C   LIG    1       26.287 -25.387  12.962  0.00  0.00    +0.000 C 
ATOM     26  C   LIG    1       24.922 -25.392  13.643  0.00  0.00    +0.000 C 
ATOM     27  C   LIG    1       24.619 -26.666  14.424  0.00  0.00    +0.004 C 
ATOM     28  C   LIG    1       27.110 -28.834  12.275  0.00  0.00    +0.089 C 
BRANCH  20  29
ATOM     29  C   LIG    1       23.865 -30.328  10.943  0.00  0.00    +0.231 C 
ATOM     30  N   LIG    1       22.849 -30.847  11.771  0.00  0.00    -0.309 N 
ATOM     31  H   LIG    1       22.911 -30.621  12.756  0.00  0.00    +0.149 HD
ATOM     32  O   LIG    1       23.890 -30.471   9.727  0.00  0.00    -0.274 OA
BRANCH  30  33
ATOM     33  C   LIG    1       21.663 -31.650  11.385  0.00  0.00    +0.026 C 
ATOM     34  C   LIG    1       22.041 -32.892  10.568  0.00  0.00    +0.031 C 
ATOM     35  C   LIG    1       20.655 -30.812  10.587  0.00  0.00    +0.031 C 
ATOM     36  C   LIG    1       20.947 -32.133  12.674  0.00  0.00    +0.031 C 
ENDBRANCH  30  33
ENDBRANCH  20  29
ENDBRANCH  18  19
ENDBRANCH  15  18
ENDBRANCH   1  15
BRANCH   1  37
ATOM     37  C   LIG    1       24.693 -28.401   7.052  0.00  0.00    +0.099 C 
BRANCH  37  38
ATOM     38  S   LIG    1       24.802 -28.992   5.309  0.00  0.00    -0.123 S 
BRANCH  38  39
ATOM     39  C   LIG    1       24.990 -30.742   5.617  0.00  0.00    +0.008 A 
ATOM     40  C   LIG    1       26.039 -31.461   5.033  0.00  0.00    +0.015 A 
ATOM     41  C   LIG    1       26.177 -32.832   5.279  0.00  0.00    +0.001 A 
ATOM     42  C   LIG    1       25.263 -33.490   6.100  0.00  0.00    +0.000 A 
ATOM     43  C   LIG    1       24.209 -32.781   6.674  0.00  0.00    +0.001 A 
ATOM     44  C   LIG    1       24.071 -31.412   6.430  0.00  0.00    +0.015 A 
ENDBRANCH  38  39
ENDBRANCH  37  38
ENDBRANCH   1  37
TORSDOF 12
ENDMDL
MODEL 2
REMARK VINA RESULT:      -6.8      3.461      6.465
REMARK  Name = *****
REMARK                            x       y       z     vdW  Elec       q    Type
REMARK                         _______ _______ _______ _____ _____    ______ ____
ROOT
ATOM      1  C   LIG    1       25.666 -29.460  12.139  0.00  0.00    +0.113 C 
ENDROOT
BRANCH   1   3
ATOM      2  C   LIG    1       25.905 -29.667   9.583  0.00  0.00    +0.245 C 
ATOM      3  N   LIG    1       25.384 -29.090  10.737  0.00  0.00    -0.305 N 
ATOM      4  H   LIG    1       24.998 -28.165  10.658  0.00  0.00    +0.149 HD
ATOM      5  O   LIG    1       26.642 -30.625   9.626  0.00  0.00    -0.270 OA
BRANCH   2   8
ATOM      6  C   LIG    1       23.931 -30.995   7.719  0.00  0.00    +0.048 C 
ATOM      7  C   LIG    1       24.519 -29.643   7.402  0.00  0.00    +0.003 A 
ATOM      8  C   LIG    1       25.478 -29.031   8.262  0.00  0.00    +0.043 A 
ATOM      9  C   LIG    1       26.066 -27.812   7.865  0.00  0.00    +0.013 A 
ATOM     10  C   LIG    1       25.713 -27.184   6.671  0.00  0.00    +0.004 A 
ATOM     11  C   LIG    1       24.762 -27.763   5.847  0.00  0.00    +0.045 A 
ATOM     12  C   LIG    1       24.168 -28.969   6.211  0.00  0.00    +0.120 A 
BRANCH  12  13
ATOM     13  O   LIG    1       23.245 -29.432   5.312  0.00  0.00    -0.506 OA
ATOM     14  H   LIG    1       23.102 -28.770   4.620  0.00  0.00    +0.292 HD
ENDBRANCH  12  13
ENDBRANCH   2   8
ENDBRANCH   1   3
BRANCH   1  15
ATOM     15  C   LIG    1       25.004 -30.760  12.713  0.00  0.00    +0.149 C 
BRANCH  15  16
ATOM     16  O   LIG    1       25.747 -31.926  12.359  0.00  0.00    -0.389 OA
ATOM     17  H   LIG    1       25.688 -32.019  11.381  0.00  0.00    +0.210 HD
ENDBRANCH  15  16
BRANCH  15  18
ATOM     18  C   LIG    1       23.457 -30.913  12.447  0.00  0.00    +0.118 C 
BRANCH  18  19
ATOM     19  N   LIG    1       22.622 -31.244  13.641  0.00  0.00    -0.289 NA
ATOM     20  C   LIG    1       21.140 -31.104  13.507  0.00  0.00    +0.143 C 
ATOM     21  C   LIG    1       20.733 -29.667  13.178  0.00  0.00    +0.032 C 
ATOM     22  C   LIG    1       21.048 -28.771  14.387  0.00  0.00    -0.005 C 
ATOM     23  C   LIG    1       22.438 -29.037  15.023  0.00  0.00    +0.006 C 
ATOM     24  C   LIG    1       23.469 -27.924  14.755  0.00  0.00    +0.005 C 
ATOM     25  C   LIG    1       23.305 -27.181  13.437  0.00  0.00    +0.000 C 
ATOM     26  C   LIG    1       21.886 -26.689  13.165  0.00  0.00    +0.000 C 
ATOM     27  C   LIG    1       20.831 -27.283  14.090  0.00  0.00    +0.004 C 
ATOM     28  C   LIG    1       22.993 -30.486  14.855  0.00  0.00    +0.089 C 
BRANCH  20  29
ATOM     29  C   LIG    1       20.327 -32.178  12.719  0.00  0.00    +0.231 C 
ATOM     30  N   LIG    1       19.545 -31.591  11.703  0.00  0.00    -0.309 N 
ATOM     31  H   LIG    1       19.591 -30.584  11.624  0.00  0.00    +0.149 HD
ATOM     32  O   LIG    1       20.414 -33.386  12.897  0.00  0.00    -0.274 OA
BRANCH  30  33
ATOM     33  C   LIG    1       18.688 -32.261  10.694  0.00  0.00    +0.026 C 
ATOM     34  C   LIG    1       19.468 -33.273   9.844  0.00  0.00    +0.031 C 
ATOM     35  C   LIG    1       18.014 -31.242   9.766  0.00  0.00    +0.031 C 
ATOM     36  C   LIG    1       17.562 -33.034  11.431  0.00  0.00    +0.031 C 
ENDBRANCH  30  33
ENDBRANCH  20  29
ENDBRANCH  18  19
ENDBRANCH  15  18
ENDBRANCH   1  15
BRANCH   1  37
ATOM     37  C   LIG    1       27.187 -29.444  12.452  0.00  0.00    +0.099 C 
BRANCH  37  38
ATOM     38  S   LIG    1       27.507 -29.253  14.257  0.00  0.00    -0.123 S 
BRANCH  38  39
ATOM     39  C   LIG    1       27.679 -27.476  14.326  0.00  0.00    +0.008 A 
ATOM     40  C   LIG    1       26.989 -26.656  13.426  0.00  0.00    +0.015 A 
ATOM     41  C   LIG    1       27.131 -25.266  13.487  0.00  0.00    +0.001 A 
ATOM     42  C   LIG    1       27.969 -24.690  14.441  0.00  0.00    +0.000 A 
ATOM     43  C   LIG    1       28.667 -25.502  15.332  0.00  0.00    +0.001 A 
ATOM     44  C   LIG    1       28.525 -26.892  15.273  0.00  0.00    +0.015 A 
ENDBRANCH  38  39
ENDBRANCH  37  38
ENDBRANCH   1  37
TORSDOF 12
ENDMDL
MODEL 3
REMARK VINA RESULT:      -6.7      1.469      4.140
REMARK  Name = *****
REMARK                            x       y       z     vdW  Elec       q    Type
REMARK                         _______ _______ _______ _____ _____    ______ ____
ROOT
ATOM      1  C   LIG    1       25.841 -27.804   7.591  0.00  0.00    +0.113 C 
ENDROOT
BRANCH   1   3
ATOM      2  C   LIG    1       25.860 -25.440   6.571  0.00  0.00    +0.245 C 
ATOM      3  N   LIG    1       25.639 -26.341   7.607  0.00  0.00    -0.305 N 
ATOM      4  H   LIG    1       25.605 -25.972   8.542  0.00  0.00    +0.149 HD
ATOM      5  O   LIG    1       26.206 -25.805   5.471  0.00  0.00    -0.270 OA
BRANCH   2   8
ATOM      6  C   LIG    1       23.088 -24.239   6.674  0.00  0.00    +0.048 C 
ATOM      7  C   LIG    1       24.310 -23.413   6.981  0.00  0.00    +0.003 A 
ATOM      8  C   LIG    1       25.621 -23.967   6.898  0.00  0.00    +0.043 A 
ATOM      9  C   LIG    1       26.731 -23.122   7.102  0.00  0.00    +0.013 A 
ATOM     10  C   LIG    1       26.574 -21.769   7.406  0.00  0.00    +0.004 A 
ATOM     11  C   LIG    1       25.301 -21.234   7.515  0.00  0.00    +0.045 A 
ATOM     12  C   LIG    1       24.187 -22.045   7.313  0.00  0.00    +0.120 A 
BRANCH  12  13
ATOM     13  O   LIG    1       22.990 -21.395   7.451  0.00  0.00    -0.506 OA
ATOM     14  H   LIG    1       22.627 -21.187   6.577  0.00  0.00    +0.292 HD
ENDBRANCH  12  13
ENDBRANCH   2   8
ENDBRANCH   1   3
BRANCH   1  15
ATOM     15  C   LIG    1       26.087 -28.536   8.956  0.00  0.00    +0.149 C 
BRANCH  15  16
ATOM     16  O   LIG    1       27.430 -29.007   9.062  0.00  0.00    -0.389 OA
ATOM     17  H   LIG    1       27.524 -29.412   9.954  0.00  0.00    +0.210 HD
ENDBRANCH  15  16
BRANCH  15  18
ATOM     18  C   LIG    1       25.020 -29.629   9.347  0.00  0.00    +0.118 C 
BRANCH  18  19
ATOM     19  N   LIG    1       24.217 -29.345  10.574  0.00  0.00    -0.289 NA
ATOM     20  C   LIG    1       24.920 -29.414  11.891  0.00  0.00    +0.143 C 
ATOM     21  C   LIG    1       25.491 -30.807  12.157  0.00  0.00    +0.032 C 
ATOM     22  C   LIG    1       24.328 -31.796  12.344  0.00  0.00    -0.005 C 
ATOM     23  C   LIG    1       23.189 -31.631  11.304  0.00  0.00    +0.006 C 
ATOM     24  C   LIG    1       23.126 -32.765  10.263  0.00  0.00    +0.005 C 
ATOM     25  C   LIG    1       24.461 -33.410   9.915  0.00  0.00    +0.000 C 
ATOM     26  C   LIG    1       25.294 -33.823  11.124  0.00  0.00    +0.000 C 
ATOM     27  C   LIG    1       24.802 -33.250  12.448  0.00  0.00    +0.004 C 
ATOM     28  C   LIG    1       23.016 -30.198  10.709  0.00  0.00    +0.089 C 
BRANCH  20  29
ATOM     29  C   LIG    1       25.872 -28.256  12.324  0.00  0.00    +0.231 C 
ATOM     30  N   LIG    1       25.240 -27.378  13.228  0.00  0.00    -0.309 N 
ATOM     31  H   LIG    1       24.278 -27.588  13.462  0.00  0.00    +0.149 HD
ATOM     32  O   LIG    1       27.047 -28.160  11.993  0.00  0.00    -0.274 OA
BRANCH  30  33
ATOM     33  C   LIG    1       25.812 -26.200  13.924  0.00  0.00    +0.026 C 
ATOM     34  C   LIG    1       26.651 -25.319  12.989  0.00  0.00    +0.031 C 
ATOM     35  C   LIG    1       26.674 -26.622  15.122  0.00  0.00    +0.031 C 
ATOM     36  C   LIG    1       24.649 -25.331  14.473  0.00  0.00    +0.031 C 
ENDBRANCH  30  33
ENDBRANCH  20  29
ENDBRANCH  18  19
ENDBRANCH  15  18
ENDBRANCH   1  15
BRANCH   1  37
ATOM     37  C   LIG    1       24.741 -28.537   6.776  0.00  0.00    +0.099 C 
BRANCH  37  38
ATOM     38  S   LIG    1       25.433 -29.333   5.264  0.00  0.00    -0.123 S 
BRANCH  38  39
ATOM     39  C   LIG    1       25.099 -31.041   5.667  0.00  0.00    +0.008 A 
ATOM     40  C   LIG    1       26.107 -32.007   5.572  0.00  0.00    +0.015 A 
ATOM     41  C   LIG    1       25.835 -33.343   5.888  0.00  0.00    +0.001 A 
ATOM     42  C   LIG    1       24.555 -33.719   6.291  0.00  0.00    +0.000 A 
ATOM     43  C   LIG    1       23.545 -32.763   6.375  0.00  0.00    +0.001 A 
ATOM     44  C   LIG    1       23.815 -31.428   6.061  0.00  0.00    +0.015 A 
ENDBRANCH  38  39
ENDBRANCH  37  38
ENDBRANCH   1  37
TORSDOF 12
ENDMDL
MODEL 4
REMARK VINA RESULT:      -6.6      3.437      8.076
REMARK  Name = *****
REMARK                            x       y       z     vdW  Elec       q    Type
REMARK                         _______ _______ _______ _____ _____    ______ ____
ROOT
ATOM      1  C   LIG    1       26.558 -29.642  12.410  0.00  0.00    +0.113 C 
ENDROOT
BRANCH   1   3
ATOM      2  C   LIG    1       24.325 -29.206  13.616  0.00  0.00    +0.245 C 
ATOM      3  N   LIG    1       25.229 -29.019  12.576  0.00  0.00    -0.305 N 
ATOM      4  H   LIG    1       24.870 -28.653  11.711  0.00  0.00    +0.149 HD
ATOM      5  O   LIG    1       24.587 -29.900  14.571  0.00  0.00    -0.270 OA
BRANCH   2   8
ATOM      6  C   LIG    1       21.680 -30.667  13.530  0.00  0.00    +0.048 C 
ATOM      7  C   LIG    1       21.744 -29.162  13.485  0.00  0.00    +0.003 A 
ATOM      8  C   LIG    1       22.992 -28.472  13.489  0.00  0.00    +0.043 A 
ATOM      9  C   LIG    1       22.993 -27.069  13.348  0.00  0.00    +0.013 A 
ATOM     10  C   LIG    1       21.806 -26.345  13.232  0.00  0.00    +0.004 A 
ATOM     11  C   LIG    1       20.592 -27.010  13.255  0.00  0.00    +0.045 A 
ATOM     12  C   LIG    1       20.561 -28.396  13.388  0.00  0.00    +0.120 A 
BRANCH  12  13
ATOM     13  O   LIG    1       19.300 -28.929  13.399  0.00  0.00    -0.506 OA
ATOM     14  H   LIG    1       19.352 -29.896  13.409  0.00  0.00    +0.292 HD
ENDBRANCH  12  13
ENDBRANCH   2   8
ENDBRANCH   1   3
BRANCH   1  15
ATOM     15  C   LIG    1       27.056 -29.955  10.956  0.00  0.00    +0.149 C 
BRANCH  15  16
ATOM     16  O   LIG    1       28.345 -29.393  10.713  0.00  0.00    -0.389 OA
ATOM     17  H   LIG    1       28.930 -29.684  11.449  0.00  0.00    +0.210 HD
ENDBRANCH  15  16
BRANCH  15  18
ATOM     18  C   LIG    1       26.026 -29.653   9.802  0.00  0.00    +0.118 C 
BRANCH  18  19
ATOM     19  N   LIG    1       26.175 -30.478   8.565  0.00  0.00    -0.289 NA
ATOM     20  C   LIG    1       24.988 -30.591   7.664  0.00  0.00    +0.143 C 
ATOM     21  C   LIG    1       23.794 -31.229   8.374  0.00  0.00    +0.032 C 
ATOM     22  C   LIG    1       24.123 -32.699   8.681  0.00  0.00    -0.005 C 
ATOM     23  C   LIG    1       25.548 -32.918   9.253  0.00  0.00    +0.006 C 
ATOM     24  C   LIG    1       25.571 -33.279  10.750  0.00  0.00    +0.005 C 
ATOM     25  C   LIG    1       24.440 -32.692  11.583  0.00  0.00    +0.000 C 
ATOM     26  C   LIG    1       23.049 -32.900  10.992  0.00  0.00    +0.000 C 
ATOM     27  C   LIG    1       23.051 -33.375   9.543  0.00  0.00    +0.004 C 
ATOM     28  C   LIG    1       26.619 -31.865   8.827  0.00  0.00    +0.089 C 
BRANCH  20  29
ATOM     29  C   LIG    1       24.599 -29.394   6.741  0.00  0.00    +0.231 C 
ATOM     30  N   LIG    1       25.485 -28.309   6.900  0.00  0.00    -0.309 N 
ATOM     31  H   LIG    1       26.225 -28.428   7.580  0.00  0.00    +0.149 HD
ATOM     32  O   LIG    1       23.693 -29.415   5.918  0.00  0.00    -0.274 OA
BRANCH  30  33
ATOM     33  C   LIG    1       25.508 -27.019   6.168  0.00  0.00    +0.026 C 
ATOM     34  C   LIG    1       26.260 -25.925   6.936  0.00  0.00    +0.031 C 
ATOM     35  C   LIG    1       24.088 -26.528   5.857  0.00  0.00    +0.031 C 
ATOM     36  C   LIG    1       26.234 -27.229   4.812  0.00  0.00    +0.031 C 
ENDBRANCH  30  33
ENDBRANCH  20  29
ENDBRANCH  18  19
ENDBRANCH  15  18
ENDBRANCH   1  15
BRANCH   1  37
ATOM     37  C   LIG    1       27.658 -28.893  13.209  0.00  0.00    +0.099 C 
BRANCH  37  38
ATOM     38  S   LIG    1       28.541 -30.019  14.370  0.00  0.00    -0.123 S 
BRANCH  38  39
ATOM     39  C   LIG    1       30.199 -29.383  14.174  0.00  0.00    +0.008 A 
ATOM     40  C   LIG    1       30.737 -28.491  15.108  0.00  0.00    +0.015 A 
ATOM     41  C   LIG    1       32.036 -27.997  14.945  0.00  0.00    +0.001 A 
ATOM     42  C   LIG    1       32.798 -28.386  13.845  0.00  0.00    +0.000 A 
ATOM     43  C   LIG    1       32.263 -29.265  12.906  0.00  0.00    +0.001 A 
ATOM     44  C   LIG    1       30.966 -29.760  13.068  0.00  0.00    +0.015 A 
ENDBRANCH  38  39
ENDBRANCH  37  38
ENDBRANCH   1  37
TORSDOF 12
ENDMDL
MODEL 5
REMARK VINA RESULT:      -6.5      3.469      6.245
REMARK  Name = *****
REMARK                            x       y       z     vdW  Elec       q    Type
REMARK                         _______ _______ _______ _____ _____    ______ ____
ROOT
ATOM      1  C   LIG    1       23.020 -30.167  11.144  0.00  0.00    +0.113 C 
ENDROOT
BRANCH   1   3
ATOM      2  C   LIG    1       24.510 -28.869  12.796  0.00  0.00    +0.245 C 
ATOM      3  N   LIG    1       23.634 -28.953  11.718  0.00  0.00    -0.305 N 
ATOM      4  H   LIG    1       23.139 -28.117  11.458  0.00  0.00    +0.149 HD
ATOM      5  O   LIG    1       24.918 -29.856  13.363  0.00  0.00    -0.270 OA
BRANCH   2   8
ATOM      6  C   LIG    1       27.296 -27.814  12.284  0.00  0.00    +0.048 C 
ATOM      7  C   LIG    1       26.240 -26.955  12.932  0.00  0.00    +0.003 A 
ATOM      8  C   LIG    1       24.937 -27.462  13.208  0.00  0.00    +0.043 A 
ATOM      9  C   LIG    1       24.022 -26.644  13.903  0.00  0.00    +0.013 A 
ATOM     10  C   LIG    1       24.356 -25.349  14.301  0.00  0.00    +0.004 A 
ATOM     11  C   LIG    1       25.612 -24.845  14.011  0.00  0.00    +0.045 A 
ATOM     12  C   LIG    1       26.537 -25.632  13.330  0.00  0.00    +0.120 A 
BRANCH  12  13
ATOM     13  O   LIG    1       27.739 -25.015  13.105  0.00  0.00    -0.506 OA
ATOM     14  H   LIG    1       27.741 -24.140  13.519  0.00  0.00    +0.292 HD
ENDBRANCH  12  13
ENDBRANCH   2   8
ENDBRANCH   1   3
BRANCH   1  15
ATOM     15  C   LIG    1       21.513 -30.460  11.462  0.00  0.00    +0.149 C 
BRANCH  15  16
ATOM     16  O   LIG    1       20.739 -30.574  10.267  0.00  0.00    -0.389 OA
ATOM     17  H   LIG    1       20.044 -31.250  10.438  0.00  0.00    +0.210 HD
ENDBRANCH  15  16
BRANCH  15  18
ATOM     18  C   LIG    1       20.847 -29.519  12.537  0.00  0.00    +0.118 C 
BRANCH  18  19
ATOM     19  N   LIG    1       20.586 -30.138  13.871  0.00  0.00    -0.289 NA
ATOM     20  C   LIG    1       19.204 -30.639  14.142  0.00  0.00    +0.143 C 
ATOM     21  C   LIG    1       18.168 -29.516  14.064  0.00  0.00    +0.032 C 
ATOM     22  C   LIG    1       18.405 -28.538  15.227  0.00  0.00    -0.005 C 
ATOM     23  C   LIG    1       19.897 -28.176  15.451  0.00  0.00    +0.006 C 
ATOM     24  C   LIG    1       20.261 -26.741  15.027  0.00  0.00    +0.005 C 
ATOM     25  C   LIG    1       19.450 -26.172  13.872  0.00  0.00    +0.000 C 
ATOM     26  C   LIG    1       17.940 -26.331  14.025  0.00  0.00    +0.000 C 
ATOM     27  C   LIG    1       17.522 -27.289  15.134  0.00  0.00    +0.004 C 
ATOM     28  C   LIG    1       20.930 -29.261  15.011  0.00  0.00    +0.089 C 
BRANCH  20  29
ATOM     29  C   LIG    1       18.723 -31.976  13.498  0.00  0.00    +0.231 C 
ATOM     30  N   LIG    1       18.445 -31.818  12.124  0.00  0.00    -0.309 N 
ATOM     31  H   LIG    1       18.569 -30.889  11.744  0.00  0.00    +0.149 HD
ATOM     32  O   LIG    1       18.671 -33.051  14.081  0.00  0.00    -0.274 OA
BRANCH  30  33
ATOM     33  C   LIG    1       18.033 -32.849  11.140  0.00  0.00    +0.026 C 
ATOM     34  C   LIG    1       16.806 -33.644  11.607  0.00  0.00    +0.031 C 
ATOM     35  C   LIG    1       19.178 -33.825  10.840  0.00  0.00    +0.031 C 
ATOM     36  C   LIG    1       17.660 -32.146   9.808  0.00  0.00    +0.031 C 
ENDBRANCH  30  33
ENDBRANCH  20  29
ENDBRANCH  18  19
ENDBRANCH  15  18
ENDBRANCH   1  15
BRANCH   1  37
ATOM     37  C   LIG    1       23.285 -30.291   9.619  0.00  0.00    +0.099 C 
BRANCH  37  38
ATOM     38  S   LIG    1       25.089 -30.272   9.239  0.00  0.00    -0.123 S 
BRANCH  38  39
ATOM     39  C   LIG    1       25.056 -29.259   7.768  0.00  0.00    +0.008 A 
ATOM     40  C   LIG    1       25.657 -27.995   7.758  0.00  0.00    +0.015 A 
ATOM     41  C   LIG    1       25.625 -27.208   6.602  0.00  0.00    +0.001 A 
ATOM     42  C   LIG    1       24.985 -27.677   5.455  0.00  0.00    +0.000 A 
ATOM     43  C   LIG    1       24.375 -28.929   5.463  0.00  0.00    +0.001 A 
ATOM     44  C   LIG    1       24.407 -29.717   6.618  0.00  0.00    +0.015 A 
ENDBRANCH  38  39
ENDBRANCH  37  38
ENDBRANCH   1  37
TORSDOF 12
ENDMDL
MODEL 6
REMARK VINA RESULT:      -6.3      3.093      8.294
REMARK  Name = *****
REMARK                            x       y       z     vdW  Elec       q    Type
REMARK                         _______ _______ _______ _____ _____    ______ ____
ROOT
ATOM      1  C   LIG    1       26.220 -29.109  12.197  0.00  0.00    +0.113 C 
ENDROOT
BRANCH   1   3
ATOM      2  C   LIG    1       24.068 -28.988  13.607  0.00  0.00    +0.245 C 
ATOM      3  N   LIG    1       24.760 -29.004  12.401  0.00  0.00    -0.305 N 
ATOM      4  H   LIG    1       24.242 -29.247  11.574  0.00  0.00    +0.149 HD
ATOM      5  O   LIG    1       24.642 -29.001  14.672  0.00  0.00    -0.270 OA
BRANCH   2   8
ATOM      6  C   LIG    1       22.566 -26.387  13.260  0.00  0.00    +0.048 C 
ATOM      7  C   LIG    1       21.843 -27.709  13.308  0.00  0.00    +0.003 A 
ATOM      8  C   LIG    1       22.545 -28.933  13.508  0.00  0.00    +0.043 A 
ATOM      9  C   LIG    1       21.806 -30.127  13.641  0.00  0.00    +0.013 A 
ATOM     10  C   LIG    1       20.413 -30.138  13.556  0.00  0.00    +0.004 A 
ATOM     11  C   LIG    1       19.730 -28.954  13.334  0.00  0.00    +0.045 A 
ATOM     12  C   LIG    1       20.435 -27.759  13.204  0.00  0.00    +0.120 A 
BRANCH  12  13
ATOM     13  O   LIG    1       19.642 -26.664  12.987  0.00  0.00    -0.506 OA
ATOM     14  H   LIG    1       19.617 -26.459  12.041  0.00  0.00    +0.292 HD
ENDBRANCH  12  13
ENDBRANCH   2   8
ENDBRANCH   1   3
BRANCH   1  15
ATOM     15  C   LIG    1       26.741 -29.868  10.929  0.00  0.00    +0.149 C 
BRANCH  15  16
ATOM     16  O   LIG    1       28.159 -29.758  10.799  0.00  0.00    -0.389 OA
ATOM     17  H   LIG    1       28.336 -28.967  10.241  0.00  0.00    +0.210 HD
ENDBRANCH  15  16
BRANCH  15  18
ATOM     18  C   LIG    1       25.976 -29.558   9.585  0.00  0.00    +0.118 C 
BRANCH  18  19
ATOM     19  N   LIG    1       26.191 -30.534   8.474  0.00  0.00    -0.289 NA
ATOM     20  C   LIG    1       25.153 -30.597   7.401  0.00  0.00    +0.143 C 
ATOM     21  C   LIG    1       23.784 -30.989   7.956  0.00  0.00    +0.032 C 
ATOM     22  C   LIG    1       23.844 -32.444   8.451  0.00  0.00    -0.005 C 
ATOM     23  C   LIG    1       25.117 -32.776   9.273  0.00  0.00    +0.006 C 
ATOM     24  C   LIG    1       24.856 -32.960  10.780  0.00  0.00    +0.005 C 
ATOM     25  C   LIG    1       23.709 -32.140  11.352  0.00  0.00    +0.000 C 
ATOM     26  C   LIG    1       22.410 -32.235  10.557  0.00  0.00    +0.000 C 
ATOM     27  C   LIG    1       22.565 -32.871   9.180  0.00  0.00    +0.004 C 
ATOM     28  C   LIG    1       26.382 -31.926   8.936  0.00  0.00    +0.089 C 
BRANCH  20  29
ATOM     29  C   LIG    1       25.089 -29.476   6.317  0.00  0.00    +0.231 C 
ATOM     30  N   LIG    1       25.376 -28.209   6.867  0.00  0.00    -0.309 N 
ATOM     31  H   LIG    1       25.564 -28.181   7.861  0.00  0.00    +0.149 HD
ATOM     32  O   LIG    1       24.899 -29.671   5.123  0.00  0.00    -0.274 OA
BRANCH  30  33
ATOM     33  C   LIG    1       25.486 -26.904   6.170  0.00  0.00    +0.026 C 
ATOM     34  C   LIG    1       26.015 -25.795   7.089  0.00  0.00    +0.031 C 
ATOM     35  C   LIG    1       24.136 -26.467   5.584  0.00  0.00    +0.031 C 
ATOM     36  C   LIG    1       26.480 -27.052   4.988  0.00  0.00    +0.031 C 
ENDBRANCH  30  33
ENDBRANCH  20  29
ENDBRANCH  18  19
ENDBRANCH  15  18
ENDBRANCH   1  15
BRANCH   1  37
ATOM     37  C   LIG    1       26.928 -27.734  12.334  0.00  0.00    +0.099 C 
BRANCH  37  38
ATOM     38  S   LIG    1       27.800 -27.576  13.950  0.00  0.00    -0.123 S 
BRANCH  38  39
ATOM     39  C   LIG    1       27.207 -25.962  14.435  0.00  0.00    +0.008 A 
ATOM     40  C   LIG    1       28.051 -25.058  15.090  0.00  0.00    +0.015 A 
ATOM     41  C   LIG    1       27.577 -23.797  15.467  0.00  0.00    +0.001 A 
ATOM     42  C   LIG    1       26.256 -23.439  15.199  0.00  0.00    +0.000 A 
ATOM     43  C   LIG    1       25.409 -24.339  14.557  0.00  0.00    +0.001 A 
ATOM     44  C   LIG    1       25.882 -25.599  14.179  0.00  0.00    +0.015 A 
ENDBRANCH  38  39
ENDBRANCH  37  38
ENDBRANCH   1  37
TORSDOF 12
ENDMDL
MODEL 7
REMARK VINA RESULT:      -6.1      5.283     10.151
REMARK  Name = *****
REMARK                            x       y       z     vdW  Elec       q    Type
REMARK                         _______ _______ _______ _____ _____    ______ ____
ROOT
ATOM      1  C   LIG    1       28.672 -20.150   6.886  0.00  0.00    +0.113 C 
ENDROOT
BRANCH   1   3
ATOM      2  C   LIG    1       30.468 -19.408   8.577  0.00  0.00    +0.245 C 
ATOM      3  N   LIG    1       29.489 -19.161   7.620  0.00  0.00    -0.305 N 
ATOM      4  H   LIG    1       29.081 -18.242   7.602  0.00  0.00    +0.149 HD
ATOM      5  O   LIG    1       30.801 -20.532   8.872  0.00  0.00    -0.270 OA
BRANCH   2   8
ATOM      6  C   LIG    1       29.285 -18.054  11.007  0.00  0.00    +0.048 C 
ATOM      7  C   LIG    1       30.568 -17.564  10.384  0.00  0.00    +0.003 A 
ATOM      8  C   LIG    1       31.108 -18.178   9.216  0.00  0.00    +0.043 A 
ATOM      9  C   LIG    1       32.257 -17.615   8.623  0.00  0.00    +0.013 A 
ATOM     10  C   LIG    1       32.886 -16.494   9.165  0.00  0.00    +0.004 A 
ATOM     11  C   LIG    1       32.379 -15.913  10.315  0.00  0.00    +0.045 A 
ATOM     12  C   LIG    1       31.243 -16.444  10.919  0.00  0.00    +0.120 A 
BRANCH  12  13
ATOM     13  O   LIG    1       30.846 -15.777  12.048  0.00  0.00    -0.506 OA
ATOM     14  H   LIG    1       31.522 -15.866  12.736  0.00  0.00    +0.292 HD
ENDBRANCH  12  13
ENDBRANCH   2   8
ENDBRANCH   1   3
BRANCH   1  15
ATOM     15  C   LIG    1       27.547 -20.912   7.668  0.00  0.00    +0.149 C 
BRANCH  15  16
ATOM     16  O   LIG    1       28.082 -21.653   8.765  0.00  0.00    -0.389 OA
ATOM     17  H   LIG    1       27.331 -21.860   9.365  0.00  0.00    +0.210 HD
ENDBRANCH  15  16
BRANCH  15  18
ATOM     18  C   LIG    1       26.554 -21.758   6.782  0.00  0.00    +0.118 C 
BRANCH  18  19
ATOM     19  N   LIG    1       25.575 -22.603   7.530  0.00  0.00    -0.289 NA
ATOM     20  C   LIG    1       24.909 -23.713   6.782  0.00  0.00    +0.143 C 
ATOM     21  C   LIG    1       24.094 -23.192   5.598  0.00  0.00    +0.032 C 
ATOM     22  C   LIG    1       22.901 -22.382   6.131  0.00  0.00    -0.005 C 
ATOM     23  C   LIG    1       23.265 -21.410   7.285  0.00  0.00    +0.006 C 
ATOM     24  C   LIG    1       23.254 -19.925   6.876  0.00  0.00    +0.005 C 
ATOM     25  C   LIG    1       23.620 -19.641   5.426  0.00  0.00    +0.000 C 
ATOM     26  C   LIG    1       22.867 -20.493   4.409  0.00  0.00    +0.000 C 
ATOM     27  C   LIG    1       22.122 -21.677   5.015  0.00  0.00    +0.004 C 
ATOM     28  C   LIG    1       24.485 -21.830   8.164  0.00  0.00    +0.089 C 
BRANCH  20  29
ATOM     29  C   LIG    1       25.700 -25.021   6.468  0.00  0.00    +0.231 C 
ATOM     30  N   LIG    1       24.860 -26.153   6.502  0.00  0.00    -0.309 N 
ATOM     31  H   LIG    1       23.889 -25.988   6.734  0.00  0.00    +0.149 HD
ATOM     32  O   LIG    1       26.881 -25.061   6.149  0.00  0.00    -0.274 OA
BRANCH  30  33
ATOM     33  C   LIG    1       25.200 -27.565   6.196  0.00  0.00    +0.026 C 
ATOM     34  C   LIG    1       26.211 -27.686   5.048  0.00  0.00    +0.031 C 
ATOM     35  C   LIG    1       23.947 -28.380   5.849  0.00  0.00    +0.031 C 
ATOM     36  C   LIG    1       25.838 -28.207   7.456  0.00  0.00    +0.031 C 
ENDBRANCH  30  33
ENDBRANCH  20  29
ENDBRANCH  18  19
ENDBRANCH  15  18
ENDBRANCH   1  15
BRANCH   1  37
ATOM     37  C   LIG    1       28.112 -19.573   5.558  0.00  0.00    +0.099 C 
BRANCH  37  38
ATOM     38  S   LIG    1       29.070 -18.100   4.999  0.00  0.00    -0.123 S 
BRANCH  38  39
ATOM     39  C   LIG    1       27.734 -17.147   4.292  0.00  0.00    +0.008 A 
ATOM     40  C   LIG    1       27.792 -15.749   4.262  0.00  0.00    +0.015 A 
ATOM     41  C   LIG    1       26.741 -15.011   3.707  0.00  0.00    +0.001 A 
ATOM     42  C   LIG    1       25.625 -15.667   3.189  0.00  0.00    +0.000 A 
ATOM     43  C   LIG    1       25.557 -17.058   3.227  0.00  0.00    +0.001 A 
ATOM     44  C   LIG    1       26.607 -17.796   3.780  0.00  0.00    +0.015 A 
ENDBRANCH  38  39
ENDBRANCH  37  38
ENDBRANCH   1  37
TORSDOF 12
ENDMDL
MODEL 8
REMARK VINA RESULT:      -6.0      3.805      7.241
REMARK  Name = *****
REMARK                            x       y       z     vdW  Elec       q    Type
REMARK                         _______ _______ _______ _____ _____    ______ ____
ROOT
ATOM      1  C   LIG    1       23.838 -30.094  11.067  0.00  0.00    +0.113 C 
ENDROOT
BRANCH   1   3
ATOM      2  C   LIG    1       25.248 -30.073   8.912  0.00  0.00    +0.245 C 
ATOM      3  N   LIG    1       24.497 -30.707   9.896  0.00  0.00    -0.305 N 
ATOM      4  H   LIG    1       24.116 -31.611   9.675  0.00  0.00    +0.149 HD
ATOM      5  O   LIG    1       25.494 -28.890   8.962  0.00  0.00    -0.270 OA
BRANCH   2   8
ATOM      6  C   LIG    1       24.093 -29.946   6.121  0.00  0.00    +0.048 C 
ATOM      7  C   LIG    1       25.235 -30.871   6.454  0.00  0.00    +0.003 A 
ATOM      8  C   LIG    1       25.758 -30.960   7.778  0.00  0.00    +0.043 A 
ATOM      9  C   LIG    1       26.761 -31.912   8.050  0.00  0.00    +0.013 A 
ATOM     10  C   LIG    1       27.267 -32.747   7.053  0.00  0.00    +0.004 A 
ATOM     11  C   LIG    1       26.781 -32.644   5.761  0.00  0.00    +0.045 A 
ATOM     12  C   LIG    1       25.786 -31.715   5.465  0.00  0.00    +0.120 A 
BRANCH  12  13
ATOM     13  O   LIG    1       25.395 -31.715   4.152  0.00  0.00    -0.506 OA
ATOM     14  H   LIG    1       24.460 -31.956   4.089  0.00  0.00    +0.292 HD
ENDBRANCH  12  13
ENDBRANCH   2   8
ENDBRANCH   1   3
BRANCH   1  15
ATOM     15  C   LIG    1       22.341 -30.459  11.354  0.00  0.00    +0.149 C 
BRANCH  15  16
ATOM     16  O   LIG    1       21.569 -30.485  10.154  0.00  0.00    -0.389 OA
ATOM     17  H   LIG    1       20.708 -30.052  10.356  0.00  0.00    +0.210 HD
ENDBRANCH  15  16
BRANCH  15  18
ATOM     18  C   LIG    1       21.649 -29.642  12.512  0.00  0.00    +0.118 C 
BRANCH  18  19
ATOM     19  N   LIG    1       21.274 -30.425  13.727  0.00  0.00    -0.289 NA
ATOM     20  C   LIG    1       19.874 -30.941  13.813  0.00  0.00    +0.143 C 
ATOM     21  C   LIG    1       18.849 -29.807  13.794  0.00  0.00    +0.032 C 
ATOM     22  C   LIG    1       18.986 -28.989  15.089  0.00  0.00    -0.005 C 
ATOM     23  C   LIG    1       20.453 -28.676  15.484  0.00  0.00    +0.006 C 
ATOM     24  C   LIG    1       20.853 -27.202  15.282  0.00  0.00    +0.005 C 
ATOM     25  C   LIG    1       20.143 -26.480  14.145  0.00  0.00    +0.000 C 
ATOM     26  C   LIG    1       18.625 -26.640  14.148  0.00  0.00    +0.000 C 
ATOM     27  C   LIG    1       18.114 -27.729  15.084  0.00  0.00    +0.004 C 
ATOM     28  C   LIG    1       21.520 -29.707  14.997  0.00  0.00    +0.089 C 
BRANCH  20  29
ATOM     29  C   LIG    1       19.450 -32.179  12.962  0.00  0.00    +0.231 C 
ATOM     30  N   LIG    1       18.947 -31.793  11.703  0.00  0.00    -0.309 N 
ATOM     31  H   LIG    1       18.908 -30.799  11.519  0.00  0.00    +0.149 HD
ATOM     32  O   LIG    1       19.609 -33.344  13.302  0.00  0.00    -0.274 OA
BRANCH  30  33
ATOM     33  C   LIG    1       18.504 -32.656  10.581  0.00  0.00    +0.026 C 
ATOM     34  C   LIG    1       17.380 -33.616  10.992  0.00  0.00    +0.031 C 
ATOM     35  C   LIG    1       19.672 -33.470  10.006  0.00  0.00    +0.031 C 
ATOM     36  C   LIG    1       17.961 -31.754   9.442  0.00  0.00    +0.031 C 
ENDBRANCH  30  33
ENDBRANCH  20  29
ENDBRANCH  18  19
ENDBRANCH  15  18
ENDBRANCH   1  15
BRANCH   1  37
ATOM     37  C   LIG    1       24.688 -30.242  12.358  0.00  0.00    +0.099 C 
BRANCH  37  38
ATOM     38  S   LIG    1       26.272 -29.307  12.240  0.00  0.00    -0.123 S 
BRANCH  38  39
ATOM     39  C   LIG    1       25.706 -27.716  12.823  0.00  0.00    +0.008 A 
ATOM     40  C   LIG    1       24.393 -27.549  13.278  0.00  0.00    +0.015 A 
ATOM     41  C   LIG    1       23.958 -26.299  13.732  0.00  0.00    +0.001 A 
ATOM     42  C   LIG    1       24.829 -25.210  13.723  0.00  0.00    +0.000 A 
ATOM     43  C   LIG    1       26.134 -25.369  13.259  0.00  0.00    +0.001 A 
ATOM     44  C   LIG    1       26.570 -26.618  12.807  0.00  0.00    +0.015 A 
ENDBRANCH  38  39
ENDBRANCH  37  38
ENDBRANCH   1  37
TORSDOF 12
ENDMDL
MODEL 9
REMARK VINA RESULT:      -5.9      3.511      6.653
REMARK  Name = *****
REMARK                            x       y       z     vdW  Elec       q    Type
REMARK                         _______ _______ _______ _____ _____    ______ ____
ROOT
ATOM      1  C   LIG    1       24.201 -32.484  11.493  0.00  0.00    +0.113 C 
ENDROOT
BRANCH   1   3
ATOM      2  C   LIG    1       25.468 -31.195   9.659  0.00  0.00    +0.245 C 
ATOM      3  N   LIG    1       24.320 -31.537  10.366  0.00  0.00    -0.305 N 
ATOM      4  H   LIG    1       23.542 -30.903  10.318  0.00  0.00    +0.149 HD
ATOM      5  O   LIG    1       26.534 -31.721   9.881  0.00  0.00    -0.270 OA
BRANCH   2   8
ATOM      6  C   LIG    1       23.801 -31.668   7.182  0.00  0.00    +0.048 C 
ATOM      7  C   LIG    1       24.483 -30.346   7.426  0.00  0.00    +0.003 A 
ATOM      8  C   LIG    1       25.299 -30.132   8.575  0.00  0.00    +0.043 A 
ATOM      9  C   LIG    1       25.990 -28.909   8.701  0.00  0.00    +0.013 A 
ATOM     10  C   LIG    1       25.871 -27.901   7.744  0.00  0.00    +0.004 A 
ATOM     11  C   LIG    1       25.057 -28.095   6.641  0.00  0.00    +0.045 A 
ATOM     12  C   LIG    1       24.367 -29.295   6.489  0.00  0.00    +0.120 A 
BRANCH  12  13
ATOM     13  O   LIG    1       23.597 -29.358   5.358  0.00  0.00    -0.506 OA
ATOM     14  H   LIG    1       22.671 -29.190   5.582  0.00  0.00    +0.292 HD
ENDBRANCH  12  13
ENDBRANCH   2   8
ENDBRANCH   1   3
BRANCH   1  15
ATOM     15  C   LIG    1       24.476 -31.954  12.943  0.00  0.00    +0.149 C 
BRANCH  15  16
ATOM     16  O   LIG    1       24.325 -32.988  13.915  0.00  0.00    -0.389 OA
ATOM     17  H   LIG    1       23.520 -33.498  13.671  0.00  0.00    +0.210 HD
ENDBRANCH  15  16
BRANCH  15  18
ATOM     18  C   LIG    1       23.725 -30.625  13.337  0.00  0.00    +0.118 C 
BRANCH  18  19
ATOM     19  N   LIG    1       23.724 -29.547  12.303  0.00  0.00    -0.289 NA
ATOM     20  C   LIG    1       24.304 -28.224  12.685  0.00  0.00    +0.143 C 
ATOM     21  C   LIG    1       23.552 -27.591  13.856  0.00  0.00    +0.032 C 
ATOM     22  C   LIG    1       22.134 -27.216  13.395  0.00  0.00    -0.005 C 
ATOM     23  C   LIG    1       21.435 -28.316  12.553  0.00  0.00    +0.006 C 
ATOM     24  C   LIG    1       20.298 -29.041  13.297  0.00  0.00    +0.005 C 
ATOM     25  C   LIG    1       20.467 -29.154  14.805  0.00  0.00    +0.000 C 
ATOM     26  C   LIG    1       20.824 -27.843  15.498  0.00  0.00    +0.000 C 
ATOM     27  C   LIG    1       21.249 -26.729  14.548  0.00  0.00    +0.004 C 
ATOM     28  C   LIG    1       22.384 -29.258  11.748  0.00  0.00    +0.089 C 
BRANCH  20  29
ATOM     29  C   LIG    1       25.852 -28.051  12.771  0.00  0.00    +0.231 C 
ATOM     30  N   LIG    1       26.433 -29.011  13.626  0.00  0.00    -0.309 N 
ATOM     31  H   LIG    1       25.797 -29.657  14.075  0.00  0.00    +0.149 HD
ATOM     32  O   LIG    1       26.501 -27.243  12.118  0.00  0.00    -0.274 OA
BRANCH  30  33
ATOM     33  C   LIG    1       27.868 -29.233  13.926  0.00  0.00    +0.026 C 
ATOM     34  C   LIG    1       28.486 -28.073  14.718  0.00  0.00    +0.031 C 
ATOM     35  C   LIG    1       28.681 -29.452  12.643  0.00  0.00    +0.031 C 
ATOM     36  C   LIG    1       28.004 -30.517  14.787  0.00  0.00    +0.031 C 
ENDBRANCH  30  33
ENDBRANCH  20  29
ENDBRANCH  18  19
ENDBRANCH  15  18
ENDBRANCH   1  15
BRANCH   1  37
ATOM     37  C   LIG    1       22.866 -33.276  11.451  0.00  0.00    +0.099 C 
BRANCH  37  38
ATOM     38  S   LIG    1       21.788 -32.719  10.064  0.00  0.00    -0.123 S 
BRANCH  38  39
ATOM     39  C   LIG    1       20.291 -32.395  10.982  0.00  0.00    +0.008 A 
ATOM     40  C   LIG    1       20.163 -32.815  12.311  0.00  0.00    +0.015 A 
ATOM     41  C   LIG    1       18.986 -32.558  13.022  0.00  0.00    +0.001 A 
ATOM     42  C   LIG    1       17.930 -31.888  12.406  0.00  0.00    +0.000 A 
ATOM     43  C   LIG    1       18.047 -31.478  11.079  0.00  0.00    +0.001 A 
ATOM     44  C   LIG    1       19.223 -31.734  10.368  0.00  0.00    +0.015 A 
ENDBRANCH  38  39
ENDBRANCH  37  38
ENDBRANCH   1  37
TORSDOF 12
ENDMDL
