MODEL 1
REMARK VINA RESULT:      -7.8      0.000      0.000
REMARK  Name = *****
REMARK                            x       y       z     vdW  Elec       q    Type
REMARK                         _______ _______ _______ _____ _____    ______ ____
ROOT
ATOM      1  N   LIG    1       29.765 -18.992   7.589  0.00  0.00    -0.236 NA
ATOM      2  H   LIG    1       30.660 -19.273   7.157  0.00  0.00    +0.145 HD
ENDROOT
BRANCH   1   4
ATOM      3  C   LIG    1       31.261 -18.388   9.407  0.00  0.00    +0.246 C 
ATOM      4  N   LIG    1       30.080 -18.171   8.715  0.00  0.00    -0.249 N 
ATOM      5  H   LIG    1       29.610 -17.267   8.778  0.00  0.00    +0.169 HD
ATOM      6  O   LIG    1       32.049 -19.300   9.107  0.00  0.00    -0.273 OA
BRANCH   3   7
ATOM      7  CA  LIG    1       31.555 -17.399  10.552  0.00  0.00    +0.165 C 
BRANCH   7   8
ATOM      8  N   LIG    1       30.297 -16.719  10.994  0.00  0.00    -0.318 NA
ATOM      9  H1  LIG    1       30.553 -16.059  11.735  0.00  0.00    +0.119 HD
ATOM     10  H2  LIG    1       30.011 -16.096  10.231  0.00  0.00    +0.119 HD
ENDBRANCH   7   8
BRANCH   7  11
ATOM     11  C   LIG    1       32.560 -16.306  10.162  0.00  0.00    +0.183 C 
BRANCH  11  12
ATOM     12  O   LIG    1       32.635 -16.218   8.735  0.00  0.00    -0.393 OA
ATOM     13  H   LIG    1       33.037 -17.068   8.451  0.00  0.00    +0.209 HD
ENDBRANCH  11  12
ENDBRANCH   7  11
ENDBRANCH   3   7
ENDBRANCH   1   4
BRANCH   1  14
ATOM     14  C   LIG    1       29.083 -20.228   8.018  0.00  0.00    +0.140 C 
BRANCH  14  15
ATOM     15  C   LIG    1       27.689 -20.355   7.442  0.00  0.00    +0.013 A 
ATOM     16  C   LIG    1       27.453 -20.268   6.067  0.00  0.00    +0.167 A 
ATOM     17  C   LIG    1       26.162 -20.387   5.554  0.00  0.00    +0.201 A 
ATOM     18  C   LIG    1       25.080 -20.596   6.399  0.00  0.00    +0.162 A 
ATOM     19  C   LIG    1       25.282 -20.709   7.767  0.00  0.00    +0.050 A 
ATOM     20  C   LIG    1       26.584 -20.600   8.282  0.00  0.00    +0.012 A 
BRANCH  16  21
ATOM     21  O   LIG    1       28.485 -20.077   5.189  0.00  0.00    -0.503 OA
ATOM     22  H   LIG    1       28.098 -19.534   4.471  0.00  0.00    +0.292 HD
ENDBRANCH  16  21
BRANCH  17  23
ATOM     23  O   LIG    1       25.976 -20.303   4.198  0.00  0.00    -0.501 OA
ATOM     24  H   LIG    1       25.102 -20.721   4.052  0.00  0.00    +0.292 HD
ENDBRANCH  17  23
BRANCH  18  25
ATOM     25  O   LIG    1       23.839 -20.692   5.833  0.00  0.00    -0.503 OA
ATOM     26  H   LIG    1       23.783 -20.043   5.110  0.00  0.00    +0.292 HD
ENDBRANCH  18  25
ENDBRANCH  14  15
ENDBRANCH   1  14
TORSDOF 10
ENDMDL
MODEL 2
REMARK VINA RESULT:      -7.7      2.112      2.873
REMARK  Name = *****
REMARK                            x       y       z     vdW  Elec       q    Type
REMARK                         _______ _______ _______ _____ _____    ______ ____
ROOT
ATOM      1  N   LIG    1       30.775 -19.410  10.145  0.00  0.00    -0.236 NA
ATOM      2  H   LIG    1       29.913 -18.895   9.904  0.00  0.00    +0.145 HD
ENDROOT
BRANCH   1   4
ATOM      3  C   LIG    1       31.585 -17.273  10.973  0.00  0.00    +0.246 C 
ATOM      4  N   LIG    1       31.821 -18.446  10.273  0.00  0.00    -0.249 N 
ATOM      5  H   LIG    1       32.778 -18.776  10.138  0.00  0.00    +0.169 HD
ATOM      6  O   LIG    1       30.478 -17.008  11.470  0.00  0.00    -0.273 OA
BRANCH   3   7
ATOM      7  CA  LIG    1       32.797 -16.334  11.130  0.00  0.00    +0.165 C 
BRANCH   7   8
ATOM      8  N   LIG    1       32.623 -15.446  12.322  0.00  0.00    -0.318 NA
ATOM      9  H1  LIG    1       31.663 -15.575  12.658  0.00  0.00    +0.119 HD
ATOM     10  H2  LIG    1       33.180 -15.854  13.081  0.00  0.00    +0.119 HD
ENDBRANCH   7   8
BRANCH   7  11
ATOM     11  C   LIG    1       33.025 -15.432   9.909  0.00  0.00    +0.183 C 
BRANCH  11  12
ATOM     12  O   LIG    1       32.641 -16.136   8.722  0.00  0.00    -0.393 OA
ATOM     13  H   LIG    1       31.808 -16.597   8.961  0.00  0.00    +0.209 HD
ENDBRANCH  11  12
ENDBRANCH   7  11
ENDBRANCH   3   7
ENDBRANCH   1   4
BRANCH   1  14
ATOM     14  C   LIG    1       31.052 -20.337   9.031  0.00  0.00    +0.140 C 
BRANCH  14  15
ATOM     15  C   LIG    1       30.066 -20.190   7.892  0.00  0.00    +0.013 A 
ATOM     16  C   LIG    1       30.087 -19.080   7.042  0.00  0.00    +0.167 A 
ATOM     17  C   LIG    1       29.170 -18.961   5.998  0.00  0.00    +0.201 A 
ATOM     18  C   LIG    1       28.215 -19.944   5.777  0.00  0.00    +0.162 A 
ATOM     19  C   LIG    1       28.181 -21.071   6.589  0.00  0.00    +0.050 A 
ATOM     20  C   LIG    1       29.111 -21.195   7.634  0.00  0.00    +0.012 A 
BRANCH  16  21
ATOM     21  O   LIG    1       31.015 -18.089   7.206  0.00  0.00    -0.503 OA
ATOM     22  H   LIG    1       31.313 -18.183   8.134  0.00  0.00    +0.292 HD
ENDBRANCH  16  21
BRANCH  17  23
ATOM     23  O   LIG    1       29.231 -17.860   5.184  0.00  0.00    -0.501 OA
ATOM     24  H   LIG    1       30.148 -17.871   4.837  0.00  0.00    +0.292 HD
ENDBRANCH  17  23
BRANCH  18  25
ATOM     25  O   LIG    1       27.339 -19.761   4.744  0.00  0.00    -0.503 OA
ATOM     26  H   LIG    1       26.435 -19.857   5.091  0.00  0.00    +0.292 HD
ENDBRANCH  18  25
ENDBRANCH  14  15
ENDBRANCH   1  14
TORSDOF 10
ENDMDL
MODEL 3
REMARK VINA RESULT:      -7.5      6.497      8.242
REMARK  Name = *****
REMARK                            x       y       z     vdW  Elec       q    Type
REMARK                         _______ _______ _______ _____ _____    ______ ____
ROOT
ATOM      1  N   LIG    1       22.945 -24.069   6.204  0.00  0.00    -0.236 NA
ATOM      2  H   LIG    1       21.981 -24.346   6.452  0.00  0.00    +0.145 HD
ENDROOT
BRANCH   1   4
ATOM      3  C   LIG    1       24.842 -25.535   5.799  0.00  0.00    +0.246 C 
ATOM      4  N   LIG    1       23.809 -25.125   6.628  0.00  0.00    -0.249 N 
ATOM      5  H   LIG    1       23.851 -25.319   7.630  0.00  0.00    +0.169 HD
ATOM      6  O   LIG    1       25.028 -25.040   4.675  0.00  0.00    -0.273 OA
BRANCH   3   7
ATOM      7  CA  LIG    1       25.772 -26.619   6.378  0.00  0.00    +0.165 C 
BRANCH   7   8
ATOM      8  N   LIG    1       27.037 -26.706   5.583  0.00  0.00    -0.318 NA
ATOM      9  H1  LIG    1       26.788 -27.078   4.660  0.00  0.00    +0.119 HD
ATOM     10  H2  LIG    1       27.319 -25.744   5.366  0.00  0.00    +0.119 HD
ENDBRANCH   7   8
BRANCH   7  11
ATOM     11  C   LIG    1       25.135 -28.016   6.393  0.00  0.00    +0.183 C 
BRANCH  11  12
ATOM     12  O   LIG    1       23.971 -28.015   5.558  0.00  0.00    -0.393 OA
ATOM     13  H   LIG    1       23.440 -27.250   5.870  0.00  0.00    +0.209 HD
ENDBRANCH  11  12
ENDBRANCH   7  11
ENDBRANCH   3   7
ENDBRANCH   1   4
BRANCH   1  14
ATOM     14  C   LIG    1       23.242 -22.824   6.939  0.00  0.00    +0.140 C 
BRANCH  14  15
ATOM     15  C   LIG    1       23.553 -21.665   6.017  0.00  0.00    +0.013 A 
ATOM     16  C   LIG    1       24.837 -21.461   5.501  0.00  0.00    +0.167 A 
ATOM     17  C   LIG    1       25.105 -20.387   4.654  0.00  0.00    +0.201 A 
ATOM     18  C   LIG    1       24.102 -19.495   4.300  0.00  0.00    +0.162 A 
ATOM     19  C   LIG    1       22.811 -19.681   4.775  0.00  0.00    +0.050 A 
ATOM     20  C   LIG    1       22.539 -20.769   5.621  0.00  0.00    +0.012 A 
BRANCH  16  21
ATOM     21  O   LIG    1       25.859 -22.317   5.807  0.00  0.00    -0.503 OA
ATOM     22  H   LIG    1       26.614 -22.001   5.269  0.00  0.00    +0.292 HD
ENDBRANCH  16  21
BRANCH  17  23
ATOM     23  O   LIG    1       26.377 -20.229   4.165  0.00  0.00    -0.501 OA
ATOM     24  H   LIG    1       26.573 -19.280   4.315  0.00  0.00    +0.292 HD
ENDBRANCH  17  23
BRANCH  18  25
ATOM     25  O   LIG    1       24.434 -18.457   3.474  0.00  0.00    -0.503 OA
ATOM     26  H   LIG    1       24.024 -18.617   2.606  0.00  0.00    +0.292 HD
ENDBRANCH  18  25
ENDBRANCH  14  15
ENDBRANCH   1  14
TORSDOF 10
ENDMDL
MODEL 4
REMARK VINA RESULT:      -7.5      2.186      2.889
REMARK  Name = *****
REMARK                            x       y       z     vdW  Elec       q    Type
REMARK                         _______ _______ _______ _____ _____    ______ ____
ROOT
ATOM      1  N   LIG    1       28.049 -20.996   6.551  0.00  0.00    -0.236 NA
ATOM      2  H   LIG    1       28.061 -21.972   6.890  0.00  0.00    +0.145 HD
ENDROOT
BRANCH   1   4
ATOM      3  C   LIG    1       29.944 -20.822   8.063  0.00  0.00    +0.246 C 
ATOM      4  N   LIG    1       29.303 -20.410   6.905  0.00  0.00    -0.249 N 
ATOM      5  H   LIG    1       29.835 -19.963   6.157  0.00  0.00    +0.169 HD
ATOM      6  O   LIG    1       29.452 -21.664   8.831  0.00  0.00    -0.273 OA
BRANCH   3   7
ATOM      7  CA  LIG    1       31.330 -20.196   8.315  0.00  0.00    +0.165 C 
BRANCH   7   8
ATOM      8  N   LIG    1       32.107 -21.018   9.296  0.00  0.00    -0.318 NA
ATOM      9  H1  LIG    1       33.100 -20.812   9.144  0.00  0.00    +0.119 HD
ATOM     10  H2  LIG    1       31.936 -20.615  10.223  0.00  0.00    +0.119 HD
ENDBRANCH   7   8
BRANCH   7  11
ATOM     11  C   LIG    1       31.255 -18.765   8.866  0.00  0.00    +0.183 C 
BRANCH  11  12
ATOM     12  O   LIG    1       29.957 -18.542   9.429  0.00  0.00    -0.393 OA
ATOM     13  H   LIG    1       30.097 -17.858  10.119  0.00  0.00    +0.209 HD
ENDBRANCH  11  12
ENDBRANCH   7  11
ENDBRANCH   3   7
ENDBRANCH   1   4
BRANCH   1  14
ATOM     14  C   LIG    1       26.938 -20.312   7.242  0.00  0.00    +0.140 C 
BRANCH  14  15
ATOM     15  C   LIG    1       25.591 -20.622   6.627  0.00  0.00    +0.013 A 
ATOM     16  C   LIG    1       25.387 -20.578   5.244  0.00  0.00    +0.167 A 
ATOM     17  C   LIG    1       24.139 -20.867   4.695  0.00  0.00    +0.201 A 
ATOM     18  C   LIG    1       23.067 -21.206   5.510  0.00  0.00    +0.162 A 
ATOM     19  C   LIG    1       23.240 -21.281   6.885  0.00  0.00    +0.050 A 
ATOM     20  C   LIG    1       24.501 -21.001   7.437  0.00  0.00    +0.012 A 
BRANCH  16  21
ATOM     21  O   LIG    1       26.412 -20.262   4.394  0.00  0.00    -0.503 OA
ATOM     22  H   LIG    1       26.589 -19.314   4.565  0.00  0.00    +0.292 HD
ENDBRANCH  16  21
BRANCH  17  23
ATOM     23  O   LIG    1       23.986 -20.819   3.333  0.00  0.00    -0.501 OA
ATOM     24  H   LIG    1       24.455 -20.000   3.070  0.00  0.00    +0.292 HD
ENDBRANCH  17  23
BRANCH  18  25
ATOM     25  O   LIG    1       21.867 -21.467   4.909  0.00  0.00    -0.503 OA
ATOM     26  H   LIG    1       21.400 -22.135   5.441  0.00  0.00    +0.292 HD
ENDBRANCH  18  25
ENDBRANCH  14  15
ENDBRANCH   1  14
TORSDOF 10
ENDMDL
MODEL 5
REMARK VINA RESULT:      -7.5      2.060      2.533
REMARK  Name = *****
REMARK                            x       y       z     vdW  Elec       q    Type
REMARK                         _______ _______ _______ _____ _____    ______ ____
ROOT
ATOM      1  N   LIG    1       29.156 -18.689   5.975  0.00  0.00    -0.236 NA
ATOM      2  H   LIG    1       29.309 -18.187   5.086  0.00  0.00    +0.145 HD
ENDROOT
BRANCH   1   4
ATOM      3  C   LIG    1       30.573 -18.265   7.905  0.00  0.00    +0.246 C 
ATOM      4  N   LIG    1       30.422 -18.786   6.628  0.00  0.00    -0.249 N 
ATOM      5  H   LIG    1       31.067 -19.501   6.290  0.00  0.00    +0.169 HD
ATOM      6  O   LIG    1       29.651 -17.681   8.496  0.00  0.00    -0.273 OA
BRANCH   3   7
ATOM      7  CA  LIG    1       31.949 -18.494   8.560  0.00  0.00    +0.165 C 
BRANCH   7   8
ATOM      8  N   LIG    1       31.955 -19.775   9.334  0.00  0.00    -0.318 NA
ATOM      9  H1  LIG    1       32.866 -19.842   9.802  0.00  0.00    +0.119 HD
ATOM     10  H2  LIG    1       31.310 -19.651  10.121  0.00  0.00    +0.119 HD
ENDBRANCH   7   8
BRANCH   7  11
ATOM     11  C   LIG    1       32.354 -17.369   9.522  0.00  0.00    +0.183 C 
BRANCH  11  12
ATOM     12  O   LIG    1       32.494 -16.146   8.790  0.00  0.00    -0.393 OA
ATOM     13  H   LIG    1       33.418 -15.859   8.954  0.00  0.00    +0.209 HD
ENDBRANCH  11  12
ENDBRANCH   7  11
ENDBRANCH   3   7
ENDBRANCH   1   4
BRANCH   1  14
ATOM     14  C   LIG    1       28.640 -20.029   5.633  0.00  0.00    +0.140 C 
BRANCH  14  15
ATOM     15  C   LIG    1       27.281 -20.303   6.243  0.00  0.00    +0.013 A 
ATOM     16  C   LIG    1       27.110 -20.438   7.624  0.00  0.00    +0.167 A 
ATOM     17  C   LIG    1       25.851 -20.691   8.167  0.00  0.00    +0.201 A 
ATOM     18  C   LIG    1       24.737 -20.811   7.348  0.00  0.00    +0.162 A 
ATOM     19  C   LIG    1       24.867 -20.659   5.975  0.00  0.00    +0.050 A 
ATOM     20  C   LIG    1       26.134 -20.395   5.429  0.00  0.00    +0.012 A 
BRANCH  16  21
ATOM     21  O   LIG    1       28.173 -20.316   8.477  0.00  0.00    -0.503 OA
ATOM     22  H   LIG    1       28.756 -21.070   8.253  0.00  0.00    +0.292 HD
ENDBRANCH  16  21
BRANCH  17  23
ATOM     23  O   LIG    1       25.728 -20.810   9.527  0.00  0.00    -0.501 OA
ATOM     24  H   LIG    1       26.508 -21.341   9.791  0.00  0.00    +0.292 HD
ENDBRANCH  17  23
BRANCH  18  25
ATOM     25  O   LIG    1       23.534 -21.070   7.944  0.00  0.00    -0.503 OA
ATOM     26  H   LIG    1       23.368 -22.027   7.892  0.00  0.00    +0.292 HD
ENDBRANCH  18  25
ENDBRANCH  14  15
ENDBRANCH   1  14
TORSDOF 10
ENDMDL
MODEL 6
REMARK VINA RESULT:      -7.4      3.150      4.344
REMARK  Name = *****
REMARK                            x       y       z     vdW  Elec       q    Type
REMARK                         _______ _______ _______ _____ _____    ______ ____
ROOT
ATOM      1  N   LIG    1       27.089 -20.777   8.637  0.00  0.00    -0.236 NA
ATOM      2  H   LIG    1       27.089 -20.256   9.529  0.00  0.00    +0.145 HD
ENDROOT
BRANCH   1   4
ATOM      3  C   LIG    1       29.331 -20.539   7.728  0.00  0.00    +0.246 C 
ATOM      4  N   LIG    1       28.010 -20.120   7.764  0.00  0.00    -0.249 N 
ATOM      5  H   LIG    1       27.617 -19.600   6.978  0.00  0.00    +0.169 HD
ATOM      6  O   LIG    1       29.759 -21.450   8.456  0.00  0.00    -0.273 OA
BRANCH   3   7
ATOM      7  CA  LIG    1       30.227 -19.828   6.695  0.00  0.00    +0.165 C 
BRANCH   7   8
ATOM      8  N   LIG    1       31.621 -19.685   7.220  0.00  0.00    -0.318 NA
ATOM      9  H1  LIG    1       31.581 -19.036   8.013  0.00  0.00    +0.119 HD
ATOM     10  H2  LIG    1       31.862 -20.573   7.673  0.00  0.00    +0.119 HD
ENDBRANCH   7   8
BRANCH   7  11
ATOM     11  C   LIG    1       29.725 -18.426   6.323  0.00  0.00    +0.183 C 
BRANCH  11  12
ATOM     12  O   LIG    1       29.009 -18.491   5.085  0.00  0.00    -0.393 OA
ATOM     13  H   LIG    1       29.673 -18.263   4.399  0.00  0.00    +0.209 HD
ENDBRANCH  11  12
ENDBRANCH   7  11
ENDBRANCH   3   7
ENDBRANCH   1   4
BRANCH   1  14
ATOM     14  C   LIG    1       25.717 -20.708   8.096  0.00  0.00    +0.140 C 
BRANCH  14  15
ATOM     15  C   LIG    1       25.233 -22.041   7.567  0.00  0.00    +0.013 A 
ATOM     16  C   LIG    1       23.876 -22.292   7.339  0.00  0.00    +0.167 A 
ATOM     17  C   LIG    1       23.448 -23.526   6.852  0.00  0.00    +0.201 A 
ATOM     18  C   LIG    1       24.361 -24.536   6.581  0.00  0.00    +0.162 A 
ATOM     19  C   LIG    1       25.717 -24.313   6.774  0.00  0.00    +0.050 A 
ATOM     20  C   LIG    1       26.149 -23.066   7.254  0.00  0.00    +0.012 A 
BRANCH  16  21
ATOM     21  O   LIG    1       22.936 -21.326   7.578  0.00  0.00    -0.503 OA
ATOM     22  H   LIG    1       22.373 -21.702   8.286  0.00  0.00    +0.292 HD
ENDBRANCH  16  21
BRANCH  17  23
ATOM     23  O   LIG    1       22.109 -23.725   6.637  0.00  0.00    -0.501 OA
ATOM     24  H   LIG    1       21.996 -23.564   5.677  0.00  0.00    +0.292 HD
ENDBRANCH  17  23
BRANCH  18  25
ATOM     25  O   LIG    1       23.874 -25.726   6.116  0.00  0.00    -0.503 OA
ATOM     26  H   LIG    1       24.313 -26.445   6.603  0.00  0.00    +0.292 HD
ENDBRANCH  18  25
ENDBRANCH  14  15
ENDBRANCH   1  14
TORSDOF 10
ENDMDL
MODEL 7
REMARK VINA RESULT:      -7.4      1.833      2.280
REMARK  Name = *****
REMARK                            x       y       z     vdW  Elec       q    Type
REMARK                         _______ _______ _______ _____ _____    ______ ____
ROOT
ATOM      1  N   LIG    1       28.565 -20.795   6.789  0.00  0.00    -0.236 NA
ATOM      2  H   LIG    1       28.405 -21.812   6.698  0.00  0.00    +0.145 HD
ENDROOT
BRANCH   1   4
ATOM      3  C   LIG    1       30.506 -19.447   7.359  0.00  0.00    +0.246 C 
ATOM      4  N   LIG    1       29.786 -20.622   7.510  0.00  0.00    -0.249 N 
ATOM      5  H   LIG    1       29.924 -21.203   8.339  0.00  0.00    +0.169 HD
ATOM      6  O   LIG    1       30.146 -18.542   6.588  0.00  0.00    -0.273 OA
BRANCH   3   7
ATOM      7  CA  LIG    1       31.763 -19.317   8.242  0.00  0.00    +0.165 C 
BRANCH   7   8
ATOM      8  N   LIG    1       31.884 -20.493   9.159  0.00  0.00    -0.318 NA
ATOM      9  H1  LIG    1       32.819 -20.891   9.019  0.00  0.00    +0.119 HD
ATOM     10  H2  LIG    1       31.941 -20.123  10.113  0.00  0.00    +0.119 HD
ENDBRANCH   7   8
BRANCH   7  11
ATOM     11  C   LIG    1       31.763 -18.050   9.110  0.00  0.00    +0.183 C 
BRANCH  11  12
ATOM     12  O   LIG    1       32.326 -16.965   8.364  0.00  0.00    -0.393 OA
ATOM     13  H   LIG    1       33.283 -17.173   8.302  0.00  0.00    +0.209 HD
ENDBRANCH  11  12
ENDBRANCH   7  11
ENDBRANCH   3   7
ENDBRANCH   1   4
BRANCH   1  14
ATOM     14  C   LIG    1       27.427 -20.244   7.550  0.00  0.00    +0.140 C 
BRANCH  14  15
ATOM     15  C   LIG    1       26.090 -20.600   6.936  0.00  0.00    +0.013 A 
ATOM     16  C   LIG    1       25.856 -20.477   5.563  0.00  0.00    +0.167 A 
ATOM     17  C   LIG    1       24.618 -20.809   5.015  0.00  0.00    +0.201 A 
ATOM     18  C   LIG    1       23.587 -21.273   5.821  0.00  0.00    +0.162 A 
ATOM     19  C   LIG    1       23.792 -21.430   7.186  0.00  0.00    +0.050 A 
ATOM     20  C   LIG    1       25.043 -21.104   7.735  0.00  0.00    +0.012 A 
BRANCH  16  21
ATOM     21  O   LIG    1       26.841 -20.037   4.721  0.00  0.00    -0.503 OA
ATOM     22  H   LIG    1       26.911 -20.736   4.039  0.00  0.00    +0.292 HD
ENDBRANCH  16  21
BRANCH  17  23
ATOM     23  O   LIG    1       24.434 -20.680   3.663  0.00  0.00    -0.501 OA
ATOM     24  H   LIG    1       24.298 -19.718   3.532  0.00  0.00    +0.292 HD
ENDBRANCH  17  23
BRANCH  18  25
ATOM     25  O   LIG    1       22.395 -21.571   5.223  0.00  0.00    -0.503 OA
ATOM     26  H   LIG    1       22.554 -22.261   4.555  0.00  0.00    +0.292 HD
ENDBRANCH  18  25
ENDBRANCH  14  15
ENDBRANCH   1  14
TORSDOF 10
ENDMDL
MODEL 8
REMARK VINA RESULT:      -7.4      3.259      7.336
REMARK  Name = *****
REMARK                            x       y       z     vdW  Elec       q    Type
REMARK                         _______ _______ _______ _____ _____    ______ ____
ROOT
ATOM      1  N   LIG    1       26.433 -20.446   6.331  0.00  0.00    -0.236 NA
ATOM      2  H   LIG    1       26.599 -20.562   7.344  0.00  0.00    +0.145 HD
ENDROOT
BRANCH   1   4
ATOM      3  C   LIG    1       25.425 -22.635   6.650  0.00  0.00    +0.246 C 
ATOM      4  N   LIG    1       26.053 -21.723   5.816  0.00  0.00    -0.249 N 
ATOM      5  H   LIG    1       25.956 -21.806   4.803  0.00  0.00    +0.169 HD
ATOM      6  O   LIG    1       25.207 -22.397   7.850  0.00  0.00    -0.273 OA
BRANCH   3   7
ATOM      7  CA  LIG    1       24.976 -23.950   5.983  0.00  0.00    +0.165 C 
BRANCH   7   8
ATOM      8  N   LIG    1       24.736 -23.741   4.521  0.00  0.00    -0.318 NA
ATOM      9  H1  LIG    1       24.897 -24.641   4.056  0.00  0.00    +0.119 HD
ATOM     10  H2  LIG    1       23.726 -23.607   4.401  0.00  0.00    +0.119 HD
ENDBRANCH   7   8
BRANCH   7  11
ATOM     11  C   LIG    1       23.688 -24.525   6.588  0.00  0.00    +0.183 C 
BRANCH  11  12
ATOM     12  O   LIG    1       22.649 -23.541   6.514  0.00  0.00    -0.393 OA
ATOM     13  H   LIG    1       23.062 -22.715   6.846  0.00  0.00    +0.209 HD
ENDBRANCH  11  12
ENDBRANCH   7  11
ENDBRANCH   3   7
ENDBRANCH   1   4
BRANCH   1  14
ATOM     14  C   LIG    1       27.705 -19.997   5.732  0.00  0.00    +0.140 C 
BRANCH  14  15
ATOM     15  C   LIG    1       28.882 -20.171   6.668  0.00  0.00    +0.013 A 
ATOM     16  C   LIG    1       29.966 -19.288   6.656  0.00  0.00    +0.167 A 
ATOM     17  C   LIG    1       31.042 -19.464   7.525  0.00  0.00    +0.201 A 
ATOM     18  C   LIG    1       31.061 -20.521   8.425  0.00  0.00    +0.162 A 
ATOM     19  C   LIG    1       29.991 -21.404   8.479  0.00  0.00    +0.050 A 
ATOM     20  C   LIG    1       28.902 -21.220   7.610  0.00  0.00    +0.012 A 
BRANCH  16  21
ATOM     21  O   LIG    1       29.992 -18.222   5.799  0.00  0.00    -0.503 OA
ATOM     22  H   LIG    1       30.858 -18.291   5.347  0.00  0.00    +0.292 HD
ENDBRANCH  16  21
BRANCH  17  23
ATOM     23  O   LIG    1       32.080 -18.570   7.485  0.00  0.00    -0.501 OA
ATOM     24  H   LIG    1       32.574 -18.741   8.314  0.00  0.00    +0.292 HD
ENDBRANCH  17  23
BRANCH  18  25
ATOM     25  O   LIG    1       32.151 -20.643   9.241  0.00  0.00    -0.503 OA
ATOM     26  H   LIG    1       32.436 -21.573   9.230  0.00  0.00    +0.292 HD
ENDBRANCH  18  25
ENDBRANCH  14  15
ENDBRANCH   1  14
TORSDOF 10
ENDMDL
MODEL 9
REMARK VINA RESULT:      -7.3      2.321      3.113
REMARK  Name = *****
REMARK                            x       y       z     vdW  Elec       q    Type
REMARK                         _______ _______ _______ _____ _____    ______ ____
ROOT
ATOM      1  N   LIG    1       28.513 -20.956   6.331  0.00  0.00    -0.236 NA
ATOM      2  H   LIG    1       27.994 -21.272   7.167  0.00  0.00    +0.145 HD
ENDROOT
BRANCH   1   4
ATOM      3  C   LIG    1       29.801 -19.725   7.985  0.00  0.00    +0.246 C 
ATOM      4  N   LIG    1       29.756 -20.417   6.784  0.00  0.00    -0.249 N 
ATOM      5  H   LIG    1       30.608 -20.822   6.396  0.00  0.00    +0.169 HD
ATOM      6  O   LIG    1       28.787 -19.524   8.674  0.00  0.00    -0.273 OA
BRANCH   3   7
ATOM      7  CA  LIG    1       31.199 -19.257   8.433  0.00  0.00    +0.165 C 
BRANCH   7   8
ATOM      8  N   LIG    1       31.962 -20.390   9.044  0.00  0.00    -0.318 NA
ATOM      9  H1  LIG    1       32.151 -20.137  10.020  0.00  0.00    +0.119 HD
ATOM     10  H2  LIG    1       31.306 -21.173   9.141  0.00  0.00    +0.119 HD
ENDBRANCH   7   8
BRANCH   7  11
ATOM     11  C   LIG    1       31.154 -18.119   9.462  0.00  0.00    +0.183 C 
BRANCH  11  12
ATOM     12  O   LIG    1       30.746 -18.644  10.731  0.00  0.00    -0.393 OA
ATOM     13  H   LIG    1       30.354 -17.879  11.205  0.00  0.00    +0.209 HD
ENDBRANCH  11  12
ENDBRANCH   7  11
ENDBRANCH   3   7
ENDBRANCH   1   4
BRANCH   1  14
ATOM     14  C   LIG    1       27.696 -19.912   5.682  0.00  0.00    +0.140 C 
BRANCH  14  15
ATOM     15  C   LIG    1       26.235 -20.293   5.584  0.00  0.00    +0.013 A 
ATOM     16  C   LIG    1       25.481 -20.610   6.718  0.00  0.00    +0.167 A 
ATOM     17  C   LIG    1       24.135 -20.960   6.608  0.00  0.00    +0.201 A 
ATOM     18  C   LIG    1       23.512 -21.000   5.368  0.00  0.00    +0.162 A 
ATOM     19  C   LIG    1       24.225 -20.668   4.224  0.00  0.00    +0.050 A 
ATOM     20  C   LIG    1       25.578 -20.306   4.336  0.00  0.00    +0.012 A 
BRANCH  16  21
ATOM     21  O   LIG    1       26.042 -20.574   7.965  0.00  0.00    -0.503 OA
ATOM     22  H   LIG    1       25.290 -20.713   8.577  0.00  0.00    +0.292 HD
ENDBRANCH  16  21
BRANCH  17  23
ATOM     23  O   LIG    1       23.432 -21.256   7.747  0.00  0.00    -0.501 OA
ATOM     24  H   LIG    1       22.516 -21.400   7.430  0.00  0.00    +0.292 HD
ENDBRANCH  17  23
BRANCH  18  25
ATOM     25  O   LIG    1       22.194 -21.360   5.329  0.00  0.00    -0.503 OA
ATOM     26  H   LIG    1       22.144 -22.305   5.098  0.00  0.00    +0.292 HD
ENDBRANCH  18  25
ENDBRANCH  14  15
ENDBRANCH   1  14
TORSDOF 10
ENDMDL
