MODEL 1
REMARK VINA RESULT:      -5.8      0.000      0.000
REMARK  Name = *****
REMARK                            x       y       z     vdW  Elec       q    Type
REMARK                         _______ _______ _______ _____ _____    ______ ____
ROOT
ATOM      1  C   LIG    1       22.944 -19.058   3.935  0.00  0.00    +0.039 C 
ENDROOT
BRANCH   1   2
ATOM      2  C   LIG    1       23.501 -17.653   3.963  0.00  0.00    -0.047 A 
ATOM      3  C   LIG    1       22.746 -16.577   4.444  0.00  0.00    +0.004 A 
ATOM      4  C   LIG    1       23.277 -15.279   4.448  0.00  0.00    +0.004 A 
ATOM      5  C   LIG    1       24.582 -15.012   4.001  0.00  0.00    -0.042 A 
ATOM      6  C   LIG    1       25.320 -16.104   3.506  0.00  0.00    +0.004 A 
ATOM      7  C   LIG    1       24.790 -17.397   3.497  0.00  0.00    +0.004 A 
BRANCH   5   8
ATOM      8  C   LIG    1       25.180 -13.591   4.011  0.00  0.00    -0.013 C 
ATOM      9  C   LIG    1       26.308 -13.446   5.061  0.00  0.00    +0.015 C 
ATOM     10  C   LIG    1       24.130 -12.509   4.350  0.00  0.00    +0.015 C 
ATOM     11  C   LIG    1       25.763 -13.283   2.618  0.00  0.00    +0.015 C 
ENDBRANCH   5   8
ENDBRANCH   1   2
BRANCH   1  13
ATOM     12  C   LIG    1       21.999 -21.044   5.162  0.00  0.00    +0.009 C 
ATOM     13  C   LIG    1       22.734 -19.705   5.325  0.00  0.00    +0.004 C 
BRANCH  13  14
ATOM     14  C   LIG    1       24.077 -19.898   6.074  0.00  0.00    +0.088 C 
BRANCH  14  15
ATOM     15  N   LIG    1       24.923 -21.014   5.613  0.00  0.00    -0.302 NA
ATOM     16  C   LIG    1       25.704 -20.632   4.422  0.00  0.00    +0.084 C 
ATOM     17  C   LIG    1       26.858 -19.662   4.708  0.00  0.00    +0.015 C 
ATOM     18  C   LIG    1       27.766 -20.180   5.818  0.00  0.00    +0.002 C 
ATOM     19  C   LIG    1       26.963 -20.618   7.038  0.00  0.00    +0.015 C 
ATOM     20  C   LIG    1       25.818 -21.554   6.647  0.00  0.00    +0.084 C 
ENDBRANCH  14  15
ENDBRANCH  13  14
ENDBRANCH   1  13
TORSDOF 5
ENDMDL
MODEL 2
REMARK VINA RESULT:      -5.7      0.198      1.473
REMARK  Name = *****
REMARK                            x       y       z     vdW  Elec       q    Type
REMARK                         _______ _______ _______ _____ _____    ______ ____
ROOT
ATOM      1  C   LIG    1       22.536 -18.941   4.048  0.00  0.00    +0.039 C 
ENDROOT
BRANCH   1   2
ATOM      2  C   LIG    1       23.233 -17.599   4.046  0.00  0.00    -0.047 A 
ATOM      3  C   LIG    1       24.548 -17.460   3.589  0.00  0.00    +0.004 A 
ATOM      4  C   LIG    1       25.180 -16.207   3.609  0.00  0.00    +0.004 A 
ATOM      5  C   LIG    1       24.519 -15.051   4.056  0.00  0.00    -0.042 A 
ATOM      6  C   LIG    1       23.202 -15.215   4.526  0.00  0.00    +0.004 A 
ATOM      7  C   LIG    1       22.573 -16.463   4.512  0.00  0.00    +0.004 A 
BRANCH   5   8
ATOM      8  C   LIG    1       25.199 -13.668   4.072  0.00  0.00    -0.013 C 
ATOM      9  C   LIG    1       25.698 -13.253   2.667  0.00  0.00    +0.015 C 
ATOM     10  C   LIG    1       26.435 -13.627   5.000  0.00  0.00    +0.015 C 
ATOM     11  C   LIG    1       24.186 -12.616   4.564  0.00  0.00    +0.015 C 
ENDBRANCH   5   8
ENDBRANCH   1   2
BRANCH   1  13
ATOM     12  C   LIG    1       22.031 -21.121   5.203  0.00  0.00    +0.009 C 
ATOM     13  C   LIG    1       22.600 -19.706   5.392  0.00  0.00    +0.004 C 
BRANCH  13  14
ATOM     14  C   LIG    1       24.044 -19.761   5.951  0.00  0.00    +0.088 C 
BRANCH  14  15
ATOM     15  N   LIG    1       24.874 -20.891   5.495  0.00  0.00    -0.302 NA
ATOM     16  C   LIG    1       25.745 -20.493   4.374  0.00  0.00    +0.084 C 
ATOM     17  C   LIG    1       26.914 -19.584   4.774  0.00  0.00    +0.015 C 
ATOM     18  C   LIG    1       27.729 -20.184   5.914  0.00  0.00    +0.002 C 
ATOM     19  C   LIG    1       26.833 -20.638   7.062  0.00  0.00    +0.015 C 
ATOM     20  C   LIG    1       25.680 -21.509   6.559  0.00  0.00    +0.084 C 
ENDBRANCH  14  15
ENDBRANCH  13  14
ENDBRANCH   1  13
TORSDOF 5
ENDMDL
MODEL 3
REMARK VINA RESULT:      -5.5      2.253      6.484
REMARK  Name = *****
REMARK                            x       y       z     vdW  Elec       q    Type
REMARK                         _______ _______ _______ _____ _____    ______ ____
ROOT
ATOM      1  C   LIG    1       23.235 -14.694   4.093  0.00  0.00    +0.039 C 
ENDROOT
BRANCH   1   2
ATOM      2  C   LIG    1       23.305 -16.200   4.201  0.00  0.00    -0.047 A 
ATOM      3  C   LIG    1       24.419 -16.914   3.745  0.00  0.00    +0.004 A 
ATOM      4  C   LIG    1       24.457 -18.313   3.843  0.00  0.00    +0.004 A 
ATOM      5  C   LIG    1       23.406 -19.044   4.420  0.00  0.00    -0.042 A 
ATOM      6  C   LIG    1       22.288 -18.310   4.858  0.00  0.00    +0.004 A 
ATOM      7  C   LIG    1       22.246 -16.916   4.757  0.00  0.00    +0.004 A 
BRANCH   5   8
ATOM      8  C   LIG    1       23.442 -20.580   4.542  0.00  0.00    -0.013 C 
ATOM      9  C   LIG    1       24.402 -21.049   5.662  0.00  0.00    +0.015 C 
ATOM     10  C   LIG    1       23.923 -21.266   3.243  0.00  0.00    +0.015 C 
ATOM     11  C   LIG    1       22.024 -21.091   4.865  0.00  0.00    +0.015 C 
ENDBRANCH   5   8
ENDBRANCH   1   2
BRANCH   1  13
ATOM     12  C   LIG    1       24.127 -12.925   2.538  0.00  0.00    +0.009 C 
ATOM     13  C   LIG    1       24.515 -14.019   3.546  0.00  0.00    +0.004 C 
BRANCH  13  14
ATOM     14  C   LIG    1       25.386 -13.435   4.687  0.00  0.00    +0.088 C 
BRANCH  14  15
ATOM     15  N   LIG    1       26.598 -14.199   5.034  0.00  0.00    -0.302 NA
ATOM     16  C   LIG    1       27.244 -14.748   3.827  0.00  0.00    +0.084 C 
ATOM     17  C   LIG    1       27.954 -13.703   2.958  0.00  0.00    +0.015 C 
ATOM     18  C   LIG    1       28.935 -12.867   3.772  0.00  0.00    +0.002 C 
ATOM     19  C   LIG    1       28.289 -12.329   5.044  0.00  0.00    +0.015 C 
ATOM     20  C   LIG    1       27.579 -13.438   5.823  0.00  0.00    +0.084 C 
ENDBRANCH  14  15
ENDBRANCH  13  14
ENDBRANCH   1  13
TORSDOF 5
ENDMDL
MODEL 4
REMARK VINA RESULT:      -4.3      1.254      2.502
REMARK  Name = *****
REMARK                            x       y       z     vdW  Elec       q    Type
REMARK                         _______ _______ _______ _____ _____    ______ ____
ROOT
ATOM      1  C   LIG    1       22.016 -17.494   5.072  0.00  0.00    +0.039 C 
ENDROOT
BRANCH   1   2
ATOM      2  C   LIG    1       23.069 -16.519   4.599  0.00  0.00    -0.047 A 
ATOM      3  C   LIG    1       24.225 -16.954   3.941  0.00  0.00    +0.004 A 
ATOM      4  C   LIG    1       25.196 -16.032   3.523  0.00  0.00    +0.004 A 
ATOM      5  C   LIG    1       25.038 -14.650   3.719  0.00  0.00    -0.042 A 
ATOM      6  C   LIG    1       23.877 -14.233   4.396  0.00  0.00    +0.004 A 
ATOM      7  C   LIG    1       22.911 -15.151   4.819  0.00  0.00    +0.004 A 
BRANCH   5   8
ATOM      8  C   LIG    1       26.093 -13.627   3.254  0.00  0.00    -0.013 C 
ATOM      9  C   LIG    1       25.461 -12.474   2.438  0.00  0.00    +0.015 C 
ATOM     10  C   LIG    1       27.172 -14.260   2.345  0.00  0.00    +0.015 C 
ATOM     11  C   LIG    1       26.791 -13.029   4.491  0.00  0.00    +0.015 C 
ENDBRANCH   5   8
ENDBRANCH   1   2
BRANCH   1  13
ATOM     12  C   LIG    1       21.173 -18.494   2.920  0.00  0.00    +0.009 C 
ATOM     13  C   LIG    1       21.906 -18.792   4.237  0.00  0.00    +0.004 C 
BRANCH  13  14
ATOM     14  C   LIG    1       23.299 -19.416   3.965  0.00  0.00    +0.088 C 
BRANCH  14  15
ATOM     15  N   LIG    1       23.472 -20.821   4.376  0.00  0.00    -0.302 NA
ATOM     16  C   LIG    1       24.899 -21.162   4.520  0.00  0.00    +0.084 C 
ATOM     17  C   LIG    1       25.574 -20.547   5.753  0.00  0.00    +0.015 C 
ATOM     18  C   LIG    1       24.804 -20.861   7.031  0.00  0.00    +0.002 C 
ATOM     19  C   LIG    1       23.318 -20.552   6.878  0.00  0.00    +0.015 C 
ATOM     20  C   LIG    1       22.746 -21.179   5.605  0.00  0.00    +0.084 C 
ENDBRANCH  14  15
ENDBRANCH  13  14
ENDBRANCH   1  13
TORSDOF 5
ENDMDL
MODEL 5
REMARK VINA RESULT:      -4.2      2.251      7.221
REMARK  Name = *****
REMARK                            x       y       z     vdW  Elec       q    Type
REMARK                         _______ _______ _______ _____ _____    ______ ____
ROOT
ATOM      1  C   LIG    1       27.586 -15.855   3.421  0.00  0.00    +0.039 C 
ENDROOT
BRANCH   1   2
ATOM      2  C   LIG    1       26.793 -17.104   3.728  0.00  0.00    -0.047 A 
ATOM      3  C   LIG    1       27.356 -18.172   4.435  0.00  0.00    +0.004 A 
ATOM      4  C   LIG    1       26.606 -19.328   4.698  0.00  0.00    +0.004 A 
ATOM      5  C   LIG    1       25.266 -19.449   4.292  0.00  0.00    -0.042 A 
ATOM      6  C   LIG    1       24.723 -18.371   3.568  0.00  0.00    +0.004 A 
ATOM      7  C   LIG    1       25.471 -17.221   3.301  0.00  0.00    +0.004 A 
BRANCH   5   8
ATOM      8  C   LIG    1       24.429 -20.709   4.584  0.00  0.00    -0.013 C 
ATOM      9  C   LIG    1       24.202 -21.561   3.312  0.00  0.00    +0.015 C 
ATOM     10  C   LIG    1       23.025 -20.373   5.136  0.00  0.00    +0.015 C 
ATOM     11  C   LIG    1       25.167 -21.572   5.627  0.00  0.00    +0.015 C 
ENDBRANCH   5   8
ENDBRANCH   1   2
BRANCH   1  13
ATOM     12  C   LIG    1       27.818 -13.489   4.254  0.00  0.00    +0.009 C 
ATOM     13  C   LIG    1       26.838 -14.526   3.682  0.00  0.00    +0.004 C 
BRANCH  13  14
ATOM     14  C   LIG    1       26.156 -13.991   2.397  0.00  0.00    +0.088 C 
BRANCH  14  15
ATOM     15  N   LIG    1       24.683 -13.938   2.419  0.00  0.00    -0.302 NA
ATOM     16  C   LIG    1       24.165 -14.100   3.790  0.00  0.00    +0.084 C 
ATOM     17  C   LIG    1       24.385 -12.883   4.697  0.00  0.00    +0.015 C 
ATOM     18  C   LIG    1       23.856 -11.603   4.060  0.00  0.00    +0.002 C 
ATOM     19  C   LIG    1       24.352 -11.447   2.626  0.00  0.00    +0.015 C 
ATOM     20  C   LIG    1       24.119 -12.722   1.812  0.00  0.00    +0.084 C 
ENDBRANCH  14  15
ENDBRANCH  13  14
ENDBRANCH   1  13
TORSDOF 5
ENDMDL
MODEL 6
REMARK VINA RESULT:      -3.9      2.266      7.116
REMARK  Name = *****
REMARK                            x       y       z     vdW  Elec       q    Type
REMARK                         _______ _______ _______ _____ _____    ______ ____
ROOT
ATOM      1  C   LIG    1       27.473 -15.871   3.280  0.00  0.00    +0.039 C 
ENDROOT
BRANCH   1   2
ATOM      2  C   LIG    1       26.648 -17.092   3.620  0.00  0.00    -0.047 A 
ATOM      3  C   LIG    1       25.276 -17.144   3.351  0.00  0.00    +0.004 A 
ATOM      4  C   LIG    1       24.527 -18.282   3.687  0.00  0.00    +0.004 A 
ATOM      5  C   LIG    1       25.120 -19.412   4.275  0.00  0.00    -0.042 A 
ATOM      6  C   LIG    1       26.498 -19.333   4.553  0.00  0.00    +0.004 A 
ATOM      7  C   LIG    1       27.244 -18.199   4.223  0.00  0.00    +0.004 A 
BRANCH   5   8
ATOM      8  C   LIG    1       24.309 -20.671   4.639  0.00  0.00    -0.013 C 
ATOM      9  C   LIG    1       25.049 -21.558   5.668  0.00  0.00    +0.015 C 
ATOM     10  C   LIG    1       24.030 -21.570   3.413  0.00  0.00    +0.015 C 
ATOM     11  C   LIG    1       22.958 -20.240   5.243  0.00  0.00    +0.015 C 
ENDBRANCH   5   8
ENDBRANCH   1   2
BRANCH   1  13
ATOM     12  C   LIG    1       27.865 -13.641   4.382  0.00  0.00    +0.009 C 
ATOM     13  C   LIG    1       26.827 -14.519   3.666  0.00  0.00    +0.004 C 
BRANCH  13  14
ATOM     14  C   LIG    1       26.245 -13.790   2.429  0.00  0.00    +0.088 C 
BRANCH  14  15
ATOM     15  N   LIG    1       24.777 -13.810   2.295  0.00  0.00    -0.302 NA
ATOM     16  C   LIG    1       24.137 -14.299   3.530  0.00  0.00    +0.084 C 
ATOM     17  C   LIG    1       24.180 -13.308   4.700  0.00  0.00    +0.015 C 
ATOM     18  C   LIG    1       23.629 -11.943   4.301  0.00  0.00    +0.002 C 
ATOM     19  C   LIG    1       24.254 -11.447   3.001  0.00  0.00    +0.015 C 
ATOM     20  C   LIG    1       24.193 -12.516   1.908  0.00  0.00    +0.084 C 
ENDBRANCH  14  15
ENDBRANCH  13  14
ENDBRANCH   1  13
TORSDOF 5
ENDMDL
MODEL 7
REMARK VINA RESULT:      -3.9      1.202      3.107
REMARK  Name = *****
REMARK                            x       y       z     vdW  Elec       q    Type
REMARK                         _______ _______ _______ _____ _____    ______ ____
ROOT
ATOM      1  C   LIG    1       26.561 -19.357   3.628  0.00  0.00    +0.039 C 
ENDROOT
BRANCH   1   2
ATOM      2  C   LIG    1       26.230 -17.882   3.648  0.00  0.00    -0.047 A 
ATOM      3  C   LIG    1       24.905 -17.431   3.660  0.00  0.00    +0.004 A 
ATOM      4  C   LIG    1       24.621 -16.057   3.665  0.00  0.00    +0.004 A 
ATOM      5  C   LIG    1       25.640 -15.090   3.686  0.00  0.00    -0.042 A 
ATOM      6  C   LIG    1       26.965 -15.564   3.658  0.00  0.00    +0.004 A 
ATOM      7  C   LIG    1       27.250 -16.932   3.647  0.00  0.00    +0.004 A 
BRANCH   5   8
ATOM      8  C   LIG    1       25.340 -13.578   3.703  0.00  0.00    -0.013 C 
ATOM      9  C   LIG    1       25.800 -12.911   5.021  0.00  0.00    +0.015 C 
ATOM     10  C   LIG    1       23.831 -13.273   3.566  0.00  0.00    +0.015 C 
ATOM     11  C   LIG    1       26.079 -12.907   2.528  0.00  0.00    +0.015 C 
ENDBRANCH   5   8
ENDBRANCH   1   2
BRANCH   1  13
ATOM     12  C   LIG    1       28.257 -18.982   5.451  0.00  0.00    +0.009 C 
ATOM     13  C   LIG    1       27.143 -19.914   4.949  0.00  0.00    +0.004 C 
BRANCH  13  14
ATOM     14  C   LIG    1       26.045 -20.094   6.027  0.00  0.00    +0.088 C 
BRANCH  14  15
ATOM     15  N   LIG    1       25.272 -21.347   5.964  0.00  0.00    -0.302 NA
ATOM     16  C   LIG    1       24.291 -21.424   7.062  0.00  0.00    +0.084 C 
ATOM     17  C   LIG    1       23.089 -20.484   6.903  0.00  0.00    +0.015 C 
ATOM     18  C   LIG    1       22.411 -20.662   5.549  0.00  0.00    +0.002 C 
ATOM     19  C   LIG    1       23.423 -20.627   4.409  0.00  0.00    +0.015 C 
ATOM     20  C   LIG    1       24.598 -21.570   4.675  0.00  0.00    +0.084 C 
ENDBRANCH  14  15
ENDBRANCH  13  14
ENDBRANCH   1  13
TORSDOF 5
ENDMDL
MODEL 8
REMARK VINA RESULT:      -3.7      1.587      3.716
REMARK  Name = *****
REMARK                            x       y       z     vdW  Elec       q    Type
REMARK                         _______ _______ _______ _____ _____    ______ ____
ROOT
ATOM      1  C   LIG    1       27.267 -19.873   4.202  0.00  0.00    +0.039 C 
ENDROOT
BRANCH   1   2
ATOM      2  C   LIG    1       27.125 -18.375   4.059  0.00  0.00    -0.047 A 
ATOM      3  C   LIG    1       28.111 -17.500   4.530  0.00  0.00    +0.004 A 
ATOM      4  C   LIG    1       27.952 -16.112   4.399  0.00  0.00    +0.004 A 
ATOM      5  C   LIG    1       26.826 -15.551   3.774  0.00  0.00    -0.042 A 
ATOM      6  C   LIG    1       25.839 -16.446   3.323  0.00  0.00    +0.004 A 
ATOM      7  C   LIG    1       25.992 -17.829   3.457  0.00  0.00    +0.004 A 
BRANCH   5   8
ATOM      8  C   LIG    1       26.647 -14.028   3.616  0.00  0.00    -0.013 C 
ATOM      9  C   LIG    1       26.083 -13.654   2.224  0.00  0.00    +0.015 C 
ATOM     10  C   LIG    1       27.977 -13.256   3.766  0.00  0.00    +0.015 C 
ATOM     11  C   LIG    1       25.668 -13.524   4.694  0.00  0.00    +0.015 C 
ENDBRANCH   5   8
ENDBRANCH   1   2
BRANCH   1  13
ATOM     12  C   LIG    1       28.297 -19.652   6.490  0.00  0.00    +0.009 C 
ATOM     13  C   LIG    1       27.240 -20.395   5.659  0.00  0.00    +0.004 C 
BRANCH  13  14
ATOM     14  C   LIG    1       25.833 -20.247   6.293  0.00  0.00    +0.088 C 
BRANCH  14  15
ATOM     15  N   LIG    1       24.893 -21.356   6.053  0.00  0.00    -0.302 NA
ATOM     16  C   LIG    1       23.651 -21.177   6.827  0.00  0.00    +0.084 C 
ATOM     17  C   LIG    1       22.731 -20.068   6.300  0.00  0.00    +0.015 C 
ATOM     18  C   LIG    1       22.431 -20.244   4.816  0.00  0.00    +0.002 C 
ATOM     19  C   LIG    1       23.707 -20.473   4.012  0.00  0.00    +0.015 C 
ATOM     20  C   LIG    1       24.571 -21.572   4.634  0.00  0.00    +0.084 C 
ENDBRANCH  14  15
ENDBRANCH  13  14
ENDBRANCH   1  13
TORSDOF 5
ENDMDL
MODEL 9
REMARK VINA RESULT:      -3.2      2.419      6.359
REMARK  Name = *****
REMARK                            x       y       z     vdW  Elec       q    Type
REMARK                         _______ _______ _______ _____ _____    ______ ____
ROOT
ATOM      1  C   LIG    1       23.043 -14.621   4.210  0.00  0.00    +0.039 C 
ENDROOT
BRANCH   1   2
ATOM      2  C   LIG    1       23.180 -16.125   4.257  0.00  0.00    -0.047 A 
ATOM      3  C   LIG    1       22.156 -16.937   4.759  0.00  0.00    +0.004 A 
ATOM      4  C   LIG    1       22.311 -18.331   4.807  0.00  0.00    +0.004 A 
ATOM      5  C   LIG    1       23.472 -18.964   4.334  0.00  0.00    -0.042 A 
ATOM      6  C   LIG    1       24.497 -18.129   3.849  0.00  0.00    +0.004 A 
ATOM      7  C   LIG    1       24.347 -16.740   3.805  0.00  0.00    +0.004 A 
BRANCH   5   8
ATOM      8  C   LIG    1       23.649 -20.494   4.372  0.00  0.00    -0.013 C 
ATOM      9  C   LIG    1       22.407 -21.205   4.960  0.00  0.00    +0.015 C 
ATOM     10  C   LIG    1       24.851 -20.931   5.241  0.00  0.00    +0.015 C 
ATOM     11  C   LIG    1       23.875 -21.009   2.936  0.00  0.00    +0.015 C 
ENDBRANCH   5   8
ENDBRANCH   1   2
BRANCH   1  13
ATOM     12  C   LIG    1       23.684 -13.093   2.313  0.00  0.00    +0.009 C 
ATOM     13  C   LIG    1       24.214 -13.880   3.521  0.00  0.00    +0.004 C 
BRANCH  13  14
ATOM     14  C   LIG    1       24.958 -12.944   4.508  0.00  0.00    +0.088 C 
BRANCH  14  15
ATOM     15  N   LIG    1       26.364 -12.645   4.184  0.00  0.00    -0.302 NA
ATOM     16  C   LIG    1       27.271 -13.150   5.231  0.00  0.00    +0.084 C 
ATOM     17  C   LIG    1       27.429 -14.676   5.248  0.00  0.00    +0.015 C 
ATOM     18  C   LIG    1       27.820 -15.216   3.877  0.00  0.00    +0.002 C 
ATOM     19  C   LIG    1       26.915 -14.666   2.781  0.00  0.00    +0.015 C 
ATOM     20  C   LIG    1       26.794 -13.143   2.868  0.00  0.00    +0.084 C 
ENDBRANCH  14  15
ENDBRANCH  13  14
ENDBRANCH   1  13
TORSDOF 5
ENDMDL
