MODEL 1
REMARK VINA RESULT:      -5.7      0.000      0.000
REMARK  Name = *****
REMARK                            x       y       z     vdW  Elec       q    Type
REMARK                         _______ _______ _______ _____ _____    ______ ____
ROOT
ATOM      1  C   LIG    1       26.142 -30.706  10.760  0.00  0.00    +0.238 C 
ATOM      2  C   LIG    1       25.444 -30.585   9.362  0.00  0.00    +0.152 C 
ATOM      3  C   LIG    1       24.899 -32.041   9.056  0.00  0.00    +0.086 C 
ATOM      4  C   LIG    1       25.760 -33.279   8.489  0.00  0.00    +0.006 C 
ATOM      5  C   LIG    1       27.185 -33.314   9.074  0.00  0.00    +0.009 C 
ATOM      6  C   LIG    1       25.907 -33.598   6.948  0.00  0.00    +0.009 C 
ATOM      7  C   LIG    1       24.640 -33.657   6.084  0.00  0.00    -0.000 C 
ATOM      8  C   LIG    1       24.612 -33.053   4.678  0.00  0.00    -0.028 C 
ATOM      9  C   LIG    1       23.835 -33.825   3.635  0.00  0.00    +0.011 C 
ATOM     10  C   LIG    1       25.770 -32.287   4.089  0.00  0.00    +0.011 C 
ATOM     11  C   LIG    1       23.801 -32.406   5.787  0.00  0.00    +0.013 C 
ATOM     12  C   LIG    1       24.189 -31.350   6.747  0.00  0.00    +0.083 C 
ATOM     13  C   LIG    1       24.183 -29.881   6.571  0.00  0.00    -0.012 C 
ATOM     14  C   LIG    1       25.149 -29.148   7.196  0.00  0.00    -0.017 C 
ATOM     15  C   LIG    1       23.723 -31.813   8.130  0.00  0.00    +0.153 C 
ATOM     16  O   LIG    1       22.552 -32.078   8.399  0.00  0.00    -0.296 OA
ATOM     17  C   LIG    1       24.527 -32.428  10.480  0.00  0.00    -0.007 C 
ATOM     18  C   LIG    1       26.166 -29.804   8.203  0.00  0.00    +0.179 C 
ATOM     19  C   LIG    1       25.243 -31.755  11.399  0.00  0.00    -0.033 C 
ATOM     20  C   LIG    1       25.213 -32.036  12.861  0.00  0.00    +0.043 C 
ENDROOT
BRANCH   2  21
ATOM     21  O   LIG    1       24.264 -29.722   9.652  0.00  0.00    -0.380 OA
ATOM     22  H   LIG    1       23.954 -30.043  10.518  0.00  0.00    +0.210 HD
ENDBRANCH   2  21
BRANCH  18  23
ATOM     23  O   LIG    1       27.008 -28.791   8.753  0.00  0.00    -0.384 OA
ATOM     24  H   LIG    1       27.064 -28.087   8.077  0.00  0.00    +0.210 HD
ENDBRANCH  18  23
BRANCH   1  25
ATOM     25  O   LIG    1       26.045 -29.420  11.408  0.00  0.00    -0.451 OA
BRANCH  25  26
ATOM     26  C   LIG    1       27.178 -28.858  11.886  0.00  0.00    +0.335 C 
ATOM     27  O   LIG    1       28.281 -28.934  11.384  0.00  0.00    -0.245 OA
BRANCH  26  30
ATOM     28  C   LIG    1       27.183 -29.705  14.943  0.00  0.00    +0.035 C 
ATOM     29  C   LIG    1       26.836 -28.373  14.361  0.00  0.00    -0.020 C 
ATOM     30  C   LIG    1       26.875 -27.986  13.070  0.00  0.00    +0.029 C 
ATOM     31  C   LIG    1       26.563 -26.566  12.686  0.00  0.00    +0.051 C 
ENDBRANCH  26  30
ENDBRANCH  25  26
ENDBRANCH   1  25
BRANCH  14  32
ATOM     32  C   LIG    1       25.150 -27.655   7.036  0.00  0.00    +0.189 C 
BRANCH  32  33
ATOM     33  O   LIG    1       26.380 -27.283   6.432  0.00  0.00    -0.391 OA
ATOM     34  H   LIG    1       26.230 -26.410   6.028  0.00  0.00    +0.210 HD
ENDBRANCH  32  33
ENDBRANCH  14  32
TORSDOF 7
ENDMDL
MODEL 2
REMARK VINA RESULT:      -5.2      2.146      4.038
REMARK  Name = *****
REMARK                            x       y       z     vdW  Elec       q    Type
REMARK                         _______ _______ _______ _____ _____    ______ ____
ROOT
ATOM      1  C   LIG    1       24.825 -29.273  10.987  0.00  0.00    +0.238 C 
ATOM      2  C   LIG    1       24.769 -30.650  10.240  0.00  0.00    +0.152 C 
ATOM      3  C   LIG    1       25.871 -30.538   9.106  0.00  0.00    +0.086 C 
ATOM      4  C   LIG    1       25.704 -29.792   7.688  0.00  0.00    +0.006 C 
ATOM      5  C   LIG    1       24.871 -28.501   7.803  0.00  0.00    +0.009 C 
ATOM      6  C   LIG    1       25.206 -30.524   6.378  0.00  0.00    +0.009 C 
ATOM      7  C   LIG    1       25.871 -31.847   5.976  0.00  0.00    -0.000 C 
ATOM      8  C   LIG    1       25.044 -33.017   5.440  0.00  0.00    -0.028 C 
ATOM      9  C   LIG    1       25.671 -33.822   4.323  0.00  0.00    +0.011 C 
ATOM     10  C   LIG    1       23.538 -32.991   5.360  0.00  0.00    +0.011 C 
ATOM     11  C   LIG    1       25.698 -33.127   6.805  0.00  0.00    +0.013 C 
ATOM     12  C   LIG    1       25.175 -32.749   8.136  0.00  0.00    +0.083 C 
ATOM     13  C   LIG    1       24.302 -33.520   9.049  0.00  0.00    -0.012 C 
ATOM     14  C   LIG    1       23.402 -32.839   9.816  0.00  0.00    -0.017 C 
ATOM     15  C   LIG    1       26.286 -31.971   8.846  0.00  0.00    +0.153 C 
ATOM     16  O   LIG    1       27.407 -32.430   9.061  0.00  0.00    -0.296 OA
ATOM     17  C   LIG    1       26.884 -29.708   9.881  0.00  0.00    -0.007 C 
ATOM     18  C   LIG    1       23.372 -31.266   9.859  0.00  0.00    +0.179 C 
ATOM     19  C   LIG    1       26.312 -28.976  10.854  0.00  0.00    -0.033 C 
ATOM     20  C   LIG    1       27.025 -27.952  11.666  0.00  0.00    +0.043 C 
ENDROOT
BRANCH   2  21
ATOM     21  O   LIG    1       25.280 -31.605  11.263  0.00  0.00    -0.380 OA
ATOM     22  H   LIG    1       25.244 -31.093  12.091  0.00  0.00    +0.210 HD
ENDBRANCH   2  21
BRANCH  18  23
ATOM     23  O   LIG    1       22.384 -30.837  10.794  0.00  0.00    -0.384 OA
ATOM     24  H   LIG    1       22.831 -30.789  11.662  0.00  0.00    +0.210 HD
ENDBRANCH  18  23
BRANCH   1  25
ATOM     25  O   LIG    1       24.423 -29.502  12.353  0.00  0.00    -0.451 OA
BRANCH  25  26
ATOM     26  C   LIG    1       23.576 -28.619  12.928  0.00  0.00    +0.335 C 
ATOM     27  O   LIG    1       22.474 -28.315  12.518  0.00  0.00    -0.245 OA
BRANCH  26  30
ATOM     28  C   LIG    1       24.639 -25.716  13.641  0.00  0.00    +0.035 C 
ATOM     29  C   LIG    1       24.610 -26.924  14.520  0.00  0.00    -0.020 C 
ATOM     30  C   LIG    1       24.118 -28.149  14.247  0.00  0.00    +0.029 C 
ATOM     31  C   LIG    1       24.107 -29.223  15.300  0.00  0.00    +0.051 C 
ENDBRANCH  26  30
ENDBRANCH  25  26
ENDBRANCH   1  25
BRANCH  14  32
ATOM     32  C   LIG    1       22.517 -33.606  10.755  0.00  0.00    +0.189 C 
BRANCH  32  33
ATOM     33  O   LIG    1       22.982 -33.376  12.077  0.00  0.00    -0.391 OA
ATOM     34  H   LIG    1       23.322 -32.464  12.090  0.00  0.00    +0.210 HD
ENDBRANCH  32  33
ENDBRANCH  14  32
TORSDOF 7
ENDMDL
MODEL 3
REMARK VINA RESULT:      -5.0      2.693      4.079
REMARK  Name = *****
REMARK                            x       y       z     vdW  Elec       q    Type
REMARK                         _______ _______ _______ _____ _____    ______ ____
ROOT
ATOM      1  C   LIG    1       23.392 -30.342  12.370  0.00  0.00    +0.238 C 
ATOM      2  C   LIG    1       24.548 -30.364  11.312  0.00  0.00    +0.152 C 
ATOM      3  C   LIG    1       23.907 -31.042  10.030  0.00  0.00    +0.086 C 
ATOM      4  C   LIG    1       23.697 -32.622   9.796  0.00  0.00    +0.006 C 
ATOM      5  C   LIG    1       23.296 -33.356  11.091  0.00  0.00    +0.009 C 
ATOM      6  C   LIG    1       24.766 -33.542   9.080  0.00  0.00    +0.009 C 
ATOM      7  C   LIG    1       25.348 -33.085   7.736  0.00  0.00    -0.000 C 
ATOM      8  C   LIG    1       26.835 -33.252   7.420  0.00  0.00    -0.028 C 
ATOM      9  C   LIG    1       27.176 -33.642   5.998  0.00  0.00    +0.011 C 
ATOM     10  C   LIG    1       27.835 -33.777   8.420  0.00  0.00    +0.011 C 
ATOM     11  C   LIG    1       26.265 -31.860   7.622  0.00  0.00    +0.013 C 
ATOM     12  C   LIG    1       26.133 -31.065   8.863  0.00  0.00    +0.083 C 
ATOM     13  C   LIG    1       27.134 -30.207   9.533  0.00  0.00    -0.012 C 
ATOM     14  C   LIG    1       27.120 -30.135  10.896  0.00  0.00    -0.017 C 
ATOM     15  C   LIG    1       24.713 -30.490   8.873  0.00  0.00    +0.153 C 
ATOM     16  O   LIG    1       24.265 -29.771   7.982  0.00  0.00    -0.296 OA
ATOM     17  C   LIG    1       22.506 -30.466  10.168  0.00  0.00    -0.007 C 
ATOM     18  C   LIG    1       25.989 -30.819  11.751  0.00  0.00    +0.179 C 
ATOM     19  C   LIG    1       22.203 -30.147  11.440  0.00  0.00    -0.033 C 
ATOM     20  C   LIG    1       20.856 -29.716  11.902  0.00  0.00    +0.043 C 
ENDROOT
BRANCH   2  21
ATOM     21  O   LIG    1       24.742 -28.921  10.999  0.00  0.00    -0.380 OA
ATOM     22  H   LIG    1       23.899 -28.513  11.269  0.00  0.00    +0.210 HD
ENDBRANCH   2  21
BRANCH  18  23
ATOM     23  O   LIG    1       26.191 -30.519  13.131  0.00  0.00    -0.384 OA
ATOM     24  H   LIG    1       26.263 -31.380  13.589  0.00  0.00    +0.210 HD
ENDBRANCH  18  23
BRANCH   1  25
ATOM     25  O   LIG    1       23.615 -29.207  13.233  0.00  0.00    -0.451 OA
BRANCH  25  26
ATOM     26  C   LIG    1       23.163 -29.273  14.506  0.00  0.00    +0.335 C 
ATOM     27  O   LIG    1       23.611 -29.977  15.387  0.00  0.00    -0.245 OA
BRANCH  26  30
ATOM     28  C   LIG    1       23.190 -26.243  13.565  0.00  0.00    +0.035 C 
ATOM     29  C   LIG    1       22.148 -26.943  14.377  0.00  0.00    -0.020 C 
ATOM     30  C   LIG    1       22.101 -28.239  14.743  0.00  0.00    +0.029 C 
ATOM     31  C   LIG    1       20.918 -28.779  15.500  0.00  0.00    +0.051 C 
ENDBRANCH  26  30
ENDBRANCH  25  26
ENDBRANCH   1  25
BRANCH  14  32
ATOM     32  C   LIG    1       28.123 -29.261  11.590  0.00  0.00    +0.189 C 
BRANCH  32  33
ATOM     33  O   LIG    1       27.524 -27.990  11.796  0.00  0.00    -0.391 OA
ATOM     34  H   LIG    1       28.058 -27.354  11.289  0.00  0.00    +0.210 HD
ENDBRANCH  32  33
ENDBRANCH  14  32
TORSDOF 7
ENDMDL
MODEL 4
REMARK VINA RESULT:      -4.9      3.497      6.877
REMARK  Name = *****
REMARK                            x       y       z     vdW  Elec       q    Type
REMARK                         _______ _______ _______ _____ _____    ______ ____
ROOT
ATOM      1  C   LIG    1       24.988 -31.178  11.225  0.00  0.00    +0.238 C 
ATOM      2  C   LIG    1       24.484 -30.163  12.307  0.00  0.00    +0.152 C 
ATOM      3  C   LIG    1       23.090 -30.746  12.788  0.00  0.00    +0.086 C 
ATOM      4  C   LIG    1       21.681 -30.591  12.023  0.00  0.00    +0.006 C 
ATOM      5  C   LIG    1       21.836 -30.673  10.492  0.00  0.00    +0.009 C 
ATOM      6  C   LIG    1       20.669 -29.409  12.302  0.00  0.00    +0.009 C 
ATOM      7  C   LIG    1       20.290 -29.091  13.755  0.00  0.00    -0.000 C 
ATOM      8  C   LIG    1       20.166 -27.646  14.242  0.00  0.00    -0.028 C 
ATOM      9  C   LIG    1       19.044 -27.365  15.218  0.00  0.00    +0.011 C 
ATOM     10  C   LIG    1       20.493 -26.455  13.376  0.00  0.00    +0.011 C 
ATOM     11  C   LIG    1       21.305 -28.512  14.750  0.00  0.00    +0.013 C 
ATOM     12  C   LIG    1       22.662 -28.708  14.195  0.00  0.00    +0.083 C 
ATOM     13  C   LIG    1       23.874 -27.881  14.380  0.00  0.00    -0.012 C 
ATOM     14  C   LIG    1       24.754 -27.776  13.342  0.00  0.00    -0.017 C 
ATOM     15  C   LIG    1       22.930 -30.216  14.197  0.00  0.00    +0.153 C 
ATOM     16  O   LIG    1       22.895 -30.910  15.211  0.00  0.00    -0.296 OA
ATOM     17  C   LIG    1       23.439 -32.224  12.695  0.00  0.00    -0.007 C 
ATOM     18  C   LIG    1       24.584 -28.618  12.023  0.00  0.00    +0.179 C 
ATOM     19  C   LIG    1       24.419 -32.466  11.805  0.00  0.00    -0.033 C 
ATOM     20  C   LIG    1       24.858 -33.825  11.385  0.00  0.00    +0.043 C 
ENDROOT
BRANCH   2  21
ATOM     21  O   LIG    1       25.453 -30.355  13.422  0.00  0.00    -0.380 OA
ATOM     22  H   LIG    1       25.265 -29.607  14.019  0.00  0.00    +0.210 HD
ENDBRANCH   2  21
BRANCH  18  23
ATOM     23  O   LIG    1       25.683 -28.358  11.151  0.00  0.00    -0.384 OA
ATOM     24  H   LIG    1       25.313 -28.340  10.245  0.00  0.00    +0.210 HD
ENDBRANCH  18  23
BRANCH   1  25
ATOM     25  O   LIG    1       26.431 -31.151  11.242  0.00  0.00    -0.451 OA
BRANCH  25  26
ATOM     26  C   LIG    1       27.074 -30.630  10.173  0.00  0.00    +0.335 C 
ATOM     27  O   LIG    1       27.973 -29.816  10.206  0.00  0.00    -0.245 OA
BRANCH  26  30
ATOM     28  C   LIG    1       25.099 -29.469   7.978  0.00  0.00    +0.035 C 
ATOM     29  C   LIG    1       25.748 -30.815   8.009  0.00  0.00    -0.020 C 
ATOM     30  C   LIG    1       26.624 -31.303   8.908  0.00  0.00    +0.029 C 
ATOM     31  C   LIG    1       27.234 -32.666   8.723  0.00  0.00    +0.051 C 
ENDBRANCH  26  30
ENDBRANCH  25  26
ENDBRANCH   1  25
BRANCH  14  32
ATOM     32  C   LIG    1       25.994 -26.949  13.518  0.00  0.00    +0.189 C 
BRANCH  32  33
ATOM     33  O   LIG    1       27.110 -27.828  13.494  0.00  0.00    -0.391 OA
ATOM     34  H   LIG    1       27.876 -27.285  13.234  0.00  0.00    +0.210 HD
ENDBRANCH  32  33
ENDBRANCH  14  32
TORSDOF 7
ENDMDL
MODEL 5
REMARK VINA RESULT:      -4.8      4.899      7.513
REMARK  Name = *****
REMARK                            x       y       z     vdW  Elec       q    Type
REMARK                         _______ _______ _______ _____ _____    ______ ____
ROOT
ATOM      1  C   LIG    1       20.095 -32.323  11.911  0.00  0.00    +0.238 C 
ATOM      2  C   LIG    1       21.151 -31.166  11.879  0.00  0.00    +0.152 C 
ATOM      3  C   LIG    1       22.292 -31.689  10.911  0.00  0.00    +0.086 C 
ATOM      4  C   LIG    1       23.469 -32.718  11.297  0.00  0.00    +0.006 C 
ATOM      5  C   LIG    1       22.987 -33.822  12.258  0.00  0.00    +0.009 C 
ATOM      6  C   LIG    1       24.884 -32.255  11.830  0.00  0.00    +0.009 C 
ATOM      7  C   LIG    1       25.641 -31.166  11.059  0.00  0.00    -0.000 C 
ATOM      8  C   LIG    1       26.393 -30.054  11.794  0.00  0.00    -0.028 C 
ATOM      9  C   LIG    1       27.711 -29.626  11.187  0.00  0.00    +0.011 C 
ATOM     10  C   LIG    1       26.367 -29.895  13.293  0.00  0.00    +0.011 C 
ATOM     11  C   LIG    1       25.142 -29.715  11.004  0.00  0.00    +0.013 C 
ATOM     12  C   LIG    1       23.728 -29.695  11.438  0.00  0.00    +0.083 C 
ATOM     13  C   LIG    1       22.978 -28.621  12.125  0.00  0.00    -0.012 C 
ATOM     14  C   LIG    1       22.010 -28.974  13.019  0.00  0.00    -0.017 C 
ATOM     15  C   LIG    1       22.922 -30.427  10.360  0.00  0.00    +0.153 C 
ATOM     16  O   LIG    1       22.900 -30.085   9.179  0.00  0.00    -0.296 OA
ATOM     17  C   LIG    1       21.404 -32.442   9.931  0.00  0.00    -0.007 C 
ATOM     18  C   LIG    1       21.580 -30.475  13.226  0.00  0.00    +0.179 C 
ATOM     19  C   LIG    1       20.246 -32.841  10.487  0.00  0.00    -0.033 C 
ATOM     20  C   LIG    1       19.255 -33.730   9.823  0.00  0.00    +0.043 C 
ENDROOT
BRANCH   2  21
ATOM     21  O   LIG    1       20.430 -30.075  11.166  0.00  0.00    -0.380 OA
ATOM     22  H   LIG    1       20.459 -30.353  10.233  0.00  0.00    +0.210 HD
ENDBRANCH   2  21
BRANCH  18  23
ATOM     23  O   LIG    1       20.506 -30.535  14.164  0.00  0.00    -0.384 OA
ATOM     24  H   LIG    1       20.159 -29.624  14.239  0.00  0.00    +0.210 HD
ENDBRANCH  18  23
BRANCH   1  25
ATOM     25  O   LIG    1       18.803 -31.726  12.152  0.00  0.00    -0.451 OA
BRANCH  25  26
ATOM     26  C   LIG    1       18.034 -32.241  13.138  0.00  0.00    +0.335 C 
ATOM     27  O   LIG    1       18.427 -32.646  14.213  0.00  0.00    -0.245 OA
BRANCH  26  30
ATOM     28  C   LIG    1       16.148 -29.737  13.625  0.00  0.00    +0.035 C 
ATOM     29  C   LIG    1       15.780 -31.064  13.046  0.00  0.00    -0.020 C 
ATOM     30  C   LIG    1       16.578 -32.119  12.791  0.00  0.00    +0.029 C 
ATOM     31  C   LIG    1       16.031 -33.352  12.125  0.00  0.00    +0.051 C 
ENDBRANCH  26  30
ENDBRANCH  25  26
ENDBRANCH   1  25
BRANCH  14  32
ATOM     32  C   LIG    1       21.233 -27.896  13.717  0.00  0.00    +0.189 C 
BRANCH  32  33
ATOM     33  O   LIG    1       19.930 -27.864  13.153  0.00  0.00    -0.391 OA
ATOM     34  H   LIG    1       19.842 -26.994  12.725  0.00  0.00    +0.210 HD
ENDBRANCH  32  33
ENDBRANCH  14  32
TORSDOF 7
ENDMDL
MODEL 6
REMARK VINA RESULT:      -4.7      4.498      6.235
REMARK  Name = *****
REMARK                            x       y       z     vdW  Elec       q    Type
REMARK                         _______ _______ _______ _____ _____    ______ ____
ROOT
ATOM      1  C   LIG    1       23.808 -29.062  13.084  0.00  0.00    +0.238 C 
ATOM      2  C   LIG    1       22.341 -29.600  13.199  0.00  0.00    +0.152 C 
ATOM      3  C   LIG    1       22.404 -31.069  12.606  0.00  0.00    +0.086 C 
ATOM      4  C   LIG    1       22.400 -31.465  11.044  0.00  0.00    +0.006 C 
ATOM      5  C   LIG    1       23.206 -30.469  10.188  0.00  0.00    +0.009 C 
ATOM      6  C   LIG    1       21.079 -31.776  10.233  0.00  0.00    +0.009 C 
ATOM      7  C   LIG    1       20.067 -32.767  10.825  0.00  0.00    -0.000 C 
ATOM      8  C   LIG    1       18.563 -32.503  10.746  0.00  0.00    -0.028 C 
ATOM      9  C   LIG    1       17.686 -33.710  10.492  0.00  0.00    +0.011 C 
ATOM     10  C   LIG    1       17.979 -31.233  10.179  0.00  0.00    +0.011 C 
ATOM     11  C   LIG    1       19.262 -32.445  12.091  0.00  0.00    +0.013 C 
ATOM     12  C   LIG    1       19.907 -31.301  12.772  0.00  0.00    +0.083 C 
ATOM     13  C   LIG    1       19.293 -30.247  13.610  0.00  0.00    -0.012 C 
ATOM     14  C   LIG    1       19.824 -28.991  13.566  0.00  0.00    -0.017 C 
ATOM     15  C   LIG    1       21.262 -31.795  13.286  0.00  0.00    +0.153 C 
ATOM     16  O   LIG    1       21.391 -32.743  14.059  0.00  0.00    -0.296 OA
ATOM     17  C   LIG    1       23.790 -31.439  13.111  0.00  0.00    -0.007 C 
ATOM     18  C   LIG    1       21.143 -28.676  12.767  0.00  0.00    +0.179 C 
ATOM     19  C   LIG    1       24.570 -30.361  13.309  0.00  0.00    -0.033 C 
ATOM     20  C   LIG    1       26.019 -30.420  13.645  0.00  0.00    +0.043 C 
ENDROOT
BRANCH   2  21
ATOM     21  O   LIG    1       22.145 -29.724  14.670  0.00  0.00    -0.380 OA
ATOM     22  H   LIG    1       22.739 -29.046  15.038  0.00  0.00    +0.210 HD
ENDBRANCH   2  21
BRANCH  18  23
ATOM     23  O   LIG    1       21.496 -27.307  12.957  0.00  0.00    -0.384 OA
ATOM     24  H   LIG    1       21.675 -27.201  13.912  0.00  0.00    +0.210 HD
ENDBRANCH  18  23
BRANCH   1  25
ATOM     25  O   LIG    1       24.006 -28.109  14.150  0.00  0.00    -0.451 OA
BRANCH  25  26
ATOM     26  C   LIG    1       24.454 -26.874  13.830  0.00  0.00    +0.335 C 
ATOM     27  O   LIG    1       23.769 -25.932  13.489  0.00  0.00    -0.245 OA
BRANCH  26  30
ATOM     28  C   LIG    1       26.806 -27.364  11.757  0.00  0.00    +0.035 C 
ATOM     29  C   LIG    1       26.917 -27.021  13.207  0.00  0.00    -0.020 C 
ATOM     30  C   LIG    1       25.929 -26.765  14.087  0.00  0.00    +0.029 C 
ATOM     31  C   LIG    1       26.247 -26.355  15.500  0.00  0.00    +0.051 C 
ENDBRANCH  26  30
ENDBRANCH  25  26
ENDBRANCH   1  25
BRANCH  14  32
ATOM     32  C   LIG    1       19.219 -27.914  14.418  0.00  0.00    +0.189 C 
BRANCH  32  33
ATOM     33  O   LIG    1       18.753 -26.886  13.555  0.00  0.00    -0.391 OA
ATOM     34  H   LIG    1       18.436 -27.332  12.750  0.00  0.00    +0.210 HD
ENDBRANCH  32  33
ENDBRANCH  14  32
TORSDOF 7
ENDMDL
MODEL 7
REMARK VINA RESULT:      -4.5      5.590      8.804
REMARK  Name = *****
REMARK                            x       y       z     vdW  Elec       q    Type
REMARK                         _______ _______ _______ _____ _____    ______ ____
ROOT
ATOM      1  C   LIG    1       20.109 -31.333  13.593  0.00  0.00    +0.238 C 
ATOM      2  C   LIG    1       20.821 -29.955  13.368  0.00  0.00    +0.152 C 
ATOM      3  C   LIG    1       22.334 -30.326  13.074  0.00  0.00    +0.086 C 
ATOM      4  C   LIG    1       23.453 -30.694  14.172  0.00  0.00    +0.006 C 
ATOM      5  C   LIG    1       22.877 -31.525  15.335  0.00  0.00    +0.009 C 
ATOM      6  C   LIG    1       24.409 -29.620  14.828  0.00  0.00    +0.009 C 
ATOM      7  C   LIG    1       25.159 -28.643  13.912  0.00  0.00    -0.000 C 
ATOM      8  C   LIG    1       25.305 -27.166  14.281  0.00  0.00    -0.028 C 
ATOM      9  C   LIG    1       26.632 -26.522  13.944  0.00  0.00    +0.011 C 
ATOM     10  C   LIG    1       24.657 -26.554  15.497  0.00  0.00    +0.011 C 
ATOM     11  C   LIG    1       24.426 -27.560  13.108  0.00  0.00    +0.013 C 
ATOM     12  C   LIG    1       22.986 -27.899  13.079  0.00  0.00    +0.083 C 
ATOM     13  C   LIG    1       21.816 -26.996  13.005  0.00  0.00    -0.012 C 
ATOM     14  C   LIG    1       20.674 -27.359  13.656  0.00  0.00    -0.017 C 
ATOM     15  C   LIG    1       22.846 -29.171  12.238  0.00  0.00    +0.153 C 
ATOM     16  O   LIG    1       23.219 -29.257  11.070  0.00  0.00    -0.296 OA
ATOM     17  C   LIG    1       22.087 -31.614  12.303  0.00  0.00    -0.007 C 
ATOM     18  C   LIG    1       20.526 -28.763  14.353  0.00  0.00    +0.179 C 
ATOM     19  C   LIG    1       20.916 -32.192  12.629  0.00  0.00    -0.033 C 
ATOM     20  C   LIG    1       20.481 -33.536  12.160  0.00  0.00    +0.043 C 
ENDROOT
BRANCH   2  21
ATOM     21  O   LIG    1       20.225 -29.477  12.089  0.00  0.00    -0.380 OA
ATOM     22  H   LIG    1       20.509 -28.546  12.038  0.00  0.00    +0.210 HD
ENDBRANCH   2  21
BRANCH  18  23
ATOM     23  O   LIG    1       19.210 -28.891  14.886  0.00  0.00    -0.384 OA
ATOM     24  H   LIG    1       19.141 -28.231  15.604  0.00  0.00    +0.210 HD
ENDBRANCH  18  23
BRANCH   1  25
ATOM     25  O   LIG    1       18.733 -31.184  13.187  0.00  0.00    -0.451 OA
BRANCH  25  26
ATOM     26  C   LIG    1       17.765 -31.471  14.087  0.00  0.00    +0.335 C 
ATOM     27  O   LIG    1       17.931 -31.684  15.270  0.00  0.00    -0.245 OA
BRANCH  26  30
ATOM     28  C   LIG    1       16.203 -33.706  12.465  0.00  0.00    +0.035 C 
ATOM     29  C   LIG    1       15.777 -32.298  12.731  0.00  0.00    -0.020 C 
ATOM     30  C   LIG    1       16.407 -31.354  13.457  0.00  0.00    +0.029 C 
ATOM     31  C   LIG    1       15.775 -30.007  13.677  0.00  0.00    +0.051 C 
ENDBRANCH  26  30
ENDBRANCH  25  26
ENDBRANCH   1  25
BRANCH  14  32
ATOM     32  C   LIG    1       19.475 -26.459  13.582  0.00  0.00    +0.189 C 
BRANCH  32  33
ATOM     33  O   LIG    1       19.179 -26.018  14.899  0.00  0.00    -0.391 OA
ATOM     34  H   LIG    1       18.278 -25.651  14.866  0.00  0.00    +0.210 HD
ENDBRANCH  32  33
ENDBRANCH  14  32
TORSDOF 7
ENDMDL
MODEL 8
REMARK VINA RESULT:      -4.3      2.350      3.942
REMARK  Name = *****
REMARK                            x       y       z     vdW  Elec       q    Type
REMARK                         _______ _______ _______ _____ _____    ______ ____
ROOT
ATOM      1  C   LIG    1       23.368 -31.074  12.206  0.00  0.00    +0.238 C 
ATOM      2  C   LIG    1       24.387 -30.780  11.052  0.00  0.00    +0.152 C 
ATOM      3  C   LIG    1       23.659 -31.280   9.736  0.00  0.00    +0.086 C 
ATOM      4  C   LIG    1       23.560 -32.804   9.225  0.00  0.00    +0.006 C 
ATOM      5  C   LIG    1       23.381 -33.799  10.389  0.00  0.00    +0.009 C 
ATOM      6  C   LIG    1       24.612 -33.459   8.242  0.00  0.00    +0.009 C 
ATOM      7  C   LIG    1       24.988 -32.707   6.959  0.00  0.00    -0.000 C 
ATOM      8  C   LIG    1       26.436 -32.654   6.468  0.00  0.00    -0.028 C 
ATOM      9  C   LIG    1       26.637 -32.741   4.971  0.00  0.00    +0.011 C 
ATOM     10  C   LIG    1       27.589 -33.240   7.243  0.00  0.00    +0.011 C 
ATOM     11  C   LIG    1       25.776 -31.390   6.990  0.00  0.00    +0.013 C 
ATOM     12  C   LIG    1       25.724 -30.852   8.367  0.00  0.00    +0.083 C 
ATOM     13  C   LIG    1       26.720 -30.027   9.086  0.00  0.00    -0.012 C 
ATOM     14  C   LIG    1       26.862 -30.205  10.431  0.00  0.00    -0.017 C 
ATOM     15  C   LIG    1       24.271 -30.445   8.631  0.00  0.00    +0.153 C 
ATOM     16  O   LIG    1       23.660 -29.628   7.944  0.00  0.00    -0.296 OA
ATOM     17  C   LIG    1       22.240 -30.892  10.121  0.00  0.00    -0.007 C 
ATOM     18  C   LIG    1       25.904 -31.150  11.248  0.00  0.00    +0.179 C 
ATOM     19  C   LIG    1       22.064 -30.842  11.455  0.00  0.00    -0.033 C 
ATOM     20  C   LIG    1       20.749 -30.648  12.124  0.00  0.00    +0.043 C 
ENDROOT
BRANCH   2  21
ATOM     21  O   LIG    1       24.417 -29.291  11.004  0.00  0.00    -0.380 OA
ATOM     22  H   LIG    1       25.368 -29.081  11.032  0.00  0.00    +0.210 HD
ENDBRANCH   2  21
BRANCH  18  23
ATOM     23  O   LIG    1       26.242 -31.084  12.633  0.00  0.00    -0.384 OA
ATOM     24  H   LIG    1       27.219 -31.117  12.676  0.00  0.00    +0.210 HD
ENDBRANCH  18  23
BRANCH   1  25
ATOM     25  O   LIG    1       23.593 -30.096  13.244  0.00  0.00    -0.451 OA
BRANCH  25  26
ATOM     26  C   LIG    1       23.096 -30.346  14.477  0.00  0.00    +0.335 C 
ATOM     27  O   LIG    1       22.224 -29.715  15.037  0.00  0.00    -0.245 OA
BRANCH  26  30
ATOM     28  C   LIG    1       21.659 -33.167  14.685  0.00  0.00    +0.035 C 
ATOM     29  C   LIG    1       23.030 -32.799  15.152  0.00  0.00    -0.020 C 
ATOM     30  C   LIG    1       23.670 -31.620  15.028  0.00  0.00    +0.029 C 
ATOM     31  C   LIG    1       25.092 -31.466  15.495  0.00  0.00    +0.051 C 
ENDBRANCH  26  30
ENDBRANCH  25  26
ENDBRANCH   1  25
BRANCH  14  32
ATOM     32  C   LIG    1       27.861 -29.368  11.175  0.00  0.00    +0.189 C 
BRANCH  32  33
ATOM     33  O   LIG    1       27.160 -28.297  11.790  0.00  0.00    -0.391 OA
ATOM     34  H   LIG    1       26.844 -27.729  11.065  0.00  0.00    +0.210 HD
ENDBRANCH  32  33
ENDBRANCH  14  32
TORSDOF 7
ENDMDL
MODEL 9
REMARK VINA RESULT:      -3.9      2.072      5.962
REMARK  Name = *****
REMARK                            x       y       z     vdW  Elec       q    Type
REMARK                         _______ _______ _______ _____ _____    ______ ____
ROOT
ATOM      1  C   LIG    1       24.622 -31.127   6.554  0.00  0.00    +0.238 C 
ATOM      2  C   LIG    1       25.162 -31.096   8.025  0.00  0.00    +0.152 C 
ATOM      3  C   LIG    1       25.004 -32.586   8.543  0.00  0.00    +0.086 C 
ATOM      4  C   LIG    1       23.646 -33.265   9.084  0.00  0.00    +0.006 C 
ATOM      5  C   LIG    1       22.407 -32.801   8.293  0.00  0.00    +0.009 C 
ATOM      6  C   LIG    1       23.224 -33.264  10.607  0.00  0.00    +0.009 C 
ATOM      7  C   LIG    1       24.252 -33.706  11.657  0.00  0.00    -0.000 C 
ATOM      8  C   LIG    1       24.393 -32.966  12.988  0.00  0.00    -0.028 C 
ATOM      9  C   LIG    1       24.660 -33.825  14.205  0.00  0.00    +0.011 C 
ATOM     10  C   LIG    1       23.616 -31.717  13.320  0.00  0.00    +0.011 C 
ATOM     11  C   LIG    1       25.508 -32.879  11.962  0.00  0.00    +0.013 C 
ATOM     12  C   LIG    1       25.704 -31.911  10.861  0.00  0.00    +0.083 C 
ATOM     13  C   LIG    1       26.315 -30.564  10.900  0.00  0.00    -0.012 C 
ATOM     14  C   LIG    1       25.820 -29.602  10.069  0.00  0.00    -0.017 C 
ATOM     15  C   LIG    1       26.066 -32.724   9.614  0.00  0.00    +0.153 C 
ATOM     16  O   LIG    1       27.034 -33.479   9.553  0.00  0.00    -0.296 OA
ATOM     17  C   LIG    1       25.317 -33.296   7.235  0.00  0.00    -0.007 C 
ATOM     18  C   LIG    1       24.727 -29.926   8.983  0.00  0.00    +0.179 C 
ATOM     19  C   LIG    1       25.051 -32.534   6.159  0.00  0.00    -0.033 C 
ATOM     20  C   LIG    1       25.105 -33.015   4.752  0.00  0.00    +0.043 C 
ENDROOT
BRANCH   2  21
ATOM     21  O   LIG    1       26.619 -30.844   7.841  0.00  0.00    -0.380 OA
ATOM     22  H   LIG    1       26.688 -29.872   7.877  0.00  0.00    +0.210 HD
ENDBRANCH   2  21
BRANCH  18  23
ATOM     23  O   LIG    1       24.455 -28.752   8.220  0.00  0.00    -0.384 OA
ATOM     24  H   LIG    1       25.195 -28.137   8.392  0.00  0.00    +0.210 HD
ENDBRANCH  18  23
BRANCH   1  25
ATOM     25  O   LIG    1       25.320 -30.104   5.813  0.00  0.00    -0.451 OA
BRANCH  25  26
ATOM     26  C   LIG    1       24.625 -29.013   5.418  0.00  0.00    +0.335 C 
ATOM     27  O   LIG    1       23.417 -28.926   5.340  0.00  0.00    -0.245 OA
BRANCH  26  30
ATOM     28  C   LIG    1       24.072 -25.980   6.167  0.00  0.00    +0.035 C 
ATOM     29  C   LIG    1       25.278 -26.555   5.498  0.00  0.00    -0.020 C 
ATOM     30  C   LIG    1       25.547 -27.845   5.217  0.00  0.00    +0.029 C 
ATOM     31  C   LIG    1       26.864 -28.239   4.606  0.00  0.00    +0.051 C 
ENDBRANCH  26  30
ENDBRANCH  25  26
ENDBRANCH   1  25
BRANCH  14  32
ATOM     32  C   LIG    1       26.436 -28.233  10.088  0.00  0.00    +0.189 C 
BRANCH  32  33
ATOM     33  O   LIG    1       27.004 -27.993   8.809  0.00  0.00    -0.391 OA
ATOM     34  H   LIG    1       26.510 -28.553   8.184  0.00  0.00    +0.210 HD
ENDBRANCH  32  33
ENDBRANCH  14  32
TORSDOF 7
ENDMDL
