MODEL 1
REMARK VINA RESULT:      -6.3      0.000      0.000
REMARK  Name = *****
REMARK                            x       y       z     vdW  Elec       q    Type
REMARK                         _______ _______ _______ _____ _____    ______ ____
ROOT
ATOM      1  CA  LIG    1       24.234 -29.108  13.711  0.00  0.00    +0.191 C 
ENDROOT
BRANCH   1   9
ATOM      2  N   LIG    1       17.953 -28.032  14.709  0.00  0.00    -0.292 N 
ATOM      3  C   LIG    1       18.966 -27.169  14.295  0.00  0.00    +0.302 C 
ATOM      4  O   LIG    1       18.912 -25.950  14.370  0.00  0.00    -0.265 OA
ATOM      5  C   LIG    1       20.233 -27.841  13.724  0.00  0.00    +0.309 C 
ATOM      6  O   LIG    1       20.840 -27.304  12.803  0.00  0.00    -0.265 OA
ATOM      7  N   LIG    1       20.547 -29.097  14.245  0.00  0.00    -0.217 N 
ATOM      8  C   LIG    1       21.816 -29.632  14.193  0.00  0.00    +0.310 C 
ATOM      9  N   LIG    1       22.791 -28.843  13.663  0.00  0.00    -0.284 N 
ATOM     10  H   LIG    1       22.483 -28.299  12.858  0.00  0.00    +0.151 HD
ATOM     11  O   LIG    1       22.084 -30.669  14.798  0.00  0.00    -0.252 OA
ATOM     12  C   LIG    1       19.592 -29.760  15.135  0.00  0.00    +0.137 C 
ATOM     13  C   LIG    1       18.174 -29.471  14.677  0.00  0.00    +0.127 C 
BRANCH   2  15
ATOM     14  C   LIG    1       15.777 -27.065  14.032  0.00  0.00    +0.024 C 
ATOM     15  C   LIG    1       16.684 -27.492  15.174  0.00  0.00    +0.105 C 
ENDBRANCH   2  15
ENDBRANCH   1   9
BRANCH   1  16
ATOM     16  C   LIG    1       25.055 -27.852  13.445  0.00  0.00    -0.018 A 
ATOM     17  C   LIG    1       26.306 -27.941  12.821  0.00  0.00    +0.006 A 
ATOM     18  C   LIG    1       27.096 -26.806  12.634  0.00  0.00    +0.000 A 
ATOM     19  C   LIG    1       26.638 -25.555  13.039  0.00  0.00    +0.000 A 
ATOM     20  C   LIG    1       25.385 -25.437  13.635  0.00  0.00    +0.000 A 
ATOM     21  C   LIG    1       24.595 -26.577  13.836  0.00  0.00    +0.006 A 
ENDBRANCH   1  16
BRANCH   1  22
ATOM     22  C   LIG    1       24.794 -30.400  12.994  0.00  0.00    +0.239 C 
ATOM     23  N   LIG    1       24.422 -30.610  11.679  0.00  0.00    -0.300 N 
ATOM     24  H   LIG    1       24.189 -29.775  11.157  0.00  0.00    +0.150 HD
ATOM     25  O   LIG    1       25.500 -31.229  13.574  0.00  0.00    -0.273 OA
BRANCH  23  26
ATOM     26  CA  LIG    1       24.962 -31.730  10.881  0.00  0.00    +0.190 C 
ATOM     27  C   LIG    1       24.316 -31.909   9.497  0.00  0.00    +0.165 C 
ATOM     28  S   LIG    1       23.492 -30.471   8.730  0.00  0.00    -0.127 S 
ATOM     29  C   LIG    1       24.905 -30.018   7.617  0.00  0.00    +0.042 C 
ATOM     30  CA  LIG    1       25.912 -31.194   7.668  0.00  0.00    +0.201 C 
ATOM     31  C   LIG    1       25.542 -28.723   8.150  0.00  0.00    +0.025 C 
ATOM     32  C   LIG    1       24.301 -29.732   6.235  0.00  0.00    +0.025 C 
ATOM     33  N   LIG    1       25.664 -31.942   8.907  0.00  0.00    -0.271 N 
ATOM     34  C   LIG    1       26.260 -31.508  10.066  0.00  0.00    +0.240 C 
ATOM     35  O   LIG    1       27.361 -31.012  10.244  0.00  0.00    -0.273 OA
BRANCH  30  36
ATOM     36  C   LIG    1       25.842 -32.100   6.435  0.00  0.00    +0.327 C 
ATOM     37  O   LIG    1       25.073 -33.049   6.345  0.00  0.00    -0.249 OA
BRANCH  36  38
ATOM     38  OXT LIG    1       26.783 -31.863   5.495  0.00  0.00    -0.479 OA
ATOM     39  HXT LIG    1       26.405 -31.530   4.661  0.00  0.00    +0.295 HD
ENDBRANCH  36  38
ENDBRANCH  30  36
ENDBRANCH  23  26
ENDBRANCH   1  22
TORSDOF 7
ENDMDL
MODEL 2
REMARK VINA RESULT:      -5.5      2.950      7.662
REMARK  Name = *****
REMARK                            x       y       z     vdW  Elec       q    Type
REMARK                         _______ _______ _______ _____ _____    ______ ____
ROOT
ATOM      1  CA  LIG    1       24.508 -31.489   9.122  0.00  0.00    +0.191 C 
ENDROOT
BRANCH   1   9
ATOM      2  N   LIG    1       26.746 -27.531  13.697  0.00  0.00    -0.292 N 
ATOM      3  C   LIG    1       25.462 -27.678  13.173  0.00  0.00    +0.302 C 
ATOM      4  O   LIG    1       24.581 -26.834  13.251  0.00  0.00    -0.265 OA
ATOM      5  C   LIG    1       25.182 -29.005  12.436  0.00  0.00    +0.309 C 
ATOM      6  O   LIG    1       24.070 -29.519  12.516  0.00  0.00    -0.265 OA
ATOM      7  N   LIG    1       26.274 -29.592  11.798  0.00  0.00    -0.217 N 
ATOM      8  C   LIG    1       26.140 -30.496  10.765  0.00  0.00    +0.310 C 
ATOM      9  N   LIG    1       24.873 -30.749  10.336  0.00  0.00    -0.284 N 
ATOM     10  H   LIG    1       24.189 -30.800  11.090  0.00  0.00    +0.151 HD
ATOM     11  O   LIG    1       27.123 -30.871  10.128  0.00  0.00    -0.252 OA
ATOM     12  C   LIG    1       27.611 -29.034  12.009  0.00  0.00    +0.137 C 
ATOM     13  C   LIG    1       27.749 -28.556  13.443  0.00  0.00    +0.127 C 
BRANCH   2  15
ATOM     14  C   LIG    1       27.572 -25.198  13.634  0.00  0.00    +0.024 C 
ATOM     15  C   LIG    1       27.077 -26.356  14.487  0.00  0.00    +0.105 C 
ENDBRANCH   2  15
ENDBRANCH   1   9
BRANCH   1  16
ATOM     16  C   LIG    1       24.763 -30.676   7.858  0.00  0.00    -0.018 A 
ATOM     17  C   LIG    1       24.398 -29.325   7.799  0.00  0.00    +0.006 A 
ATOM     18  C   LIG    1       24.565 -28.589   6.624  0.00  0.00    +0.000 A 
ATOM     19  C   LIG    1       25.127 -29.181   5.496  0.00  0.00    +0.000 A 
ATOM     20  C   LIG    1       25.524 -30.514   5.541  0.00  0.00    +0.000 A 
ATOM     21  C   LIG    1       25.347 -31.260   6.715  0.00  0.00    +0.006 A 
ENDBRANCH   1  16
BRANCH   1  22
ATOM     22  C   LIG    1       23.146 -32.292   9.100  0.00  0.00    +0.239 C 
ATOM     23  N   LIG    1       22.301 -32.141  10.184  0.00  0.00    -0.300 N 
ATOM     24  H   LIG    1       22.391 -31.265  10.683  0.00  0.00    +0.150 HD
ATOM     25  O   LIG    1       22.845 -33.065   8.187  0.00  0.00    -0.273 OA
BRANCH  23  26
ATOM     26  CA  LIG    1       20.963 -32.765  10.227  0.00  0.00    +0.190 C 
ATOM     27  C   LIG    1       20.537 -33.289  11.608  0.00  0.00    +0.165 C 
ATOM     28  S   LIG    1       21.331 -32.577  13.090  0.00  0.00    -0.127 S 
ATOM     29  C   LIG    1       19.947 -31.413  13.502  0.00  0.00    +0.042 C 
ATOM     30  CA  LIG    1       18.744 -31.813  12.611  0.00  0.00    +0.201 C 
ATOM     31  C   LIG    1       20.413 -29.981  13.191  0.00  0.00    +0.025 C 
ATOM     32  C   LIG    1       19.709 -31.531  15.014  0.00  0.00    +0.025 C 
ATOM     33  N   LIG    1       19.269 -32.559  11.461  0.00  0.00    -0.271 N 
ATOM     34  C   LIG    1       19.719 -31.854  10.371  0.00  0.00    +0.240 C 
ATOM     35  O   LIG    1       19.298 -30.820   9.876  0.00  0.00    -0.273 OA
BRANCH  30  36
ATOM     36  C   LIG    1       17.675 -32.610  13.364  0.00  0.00    +0.327 C 
ATOM     37  O   LIG    1       17.747 -33.818  13.549  0.00  0.00    -0.249 OA
BRANCH  36  38
ATOM     38  OXT LIG    1       16.571 -31.909  13.704  0.00  0.00    -0.479 OA
ATOM     39  HXT LIG    1       16.536 -31.701  14.654  0.00  0.00    +0.295 HD
ENDBRANCH  36  38
ENDBRANCH  30  36
ENDBRANCH  23  26
ENDBRANCH   1  22
TORSDOF 7
ENDMDL
MODEL 3
REMARK VINA RESULT:      -5.5      2.664      7.807
REMARK  Name = *****
REMARK                            x       y       z     vdW  Elec       q    Type
REMARK                         _______ _______ _______ _____ _____    ______ ____
ROOT
ATOM      1  CA  LIG    1       24.910 -31.314   9.058  0.00  0.00    +0.191 C 
ENDROOT
BRANCH   1   9
ATOM      2  N   LIG    1       27.580 -28.466  14.192  0.00  0.00    -0.292 N 
ATOM      3  C   LIG    1       27.985 -29.582  13.462  0.00  0.00    +0.302 C 
ATOM      4  O   LIG    1       28.754 -30.439  13.874  0.00  0.00    -0.265 OA
ATOM      5  C   LIG    1       27.385 -29.715  12.046  0.00  0.00    +0.309 C 
ATOM      6  O   LIG    1       28.069 -30.183  11.140  0.00  0.00    -0.265 OA
ATOM      7  N   LIG    1       26.107 -29.185  11.871  0.00  0.00    -0.217 N 
ATOM      8  C   LIG    1       25.265 -29.583  10.854  0.00  0.00    +0.310 C 
ATOM      9  N   LIG    1       25.711 -30.585  10.048  0.00  0.00    -0.284 N 
ATOM     10  H   LIG    1       26.705 -30.521   9.830  0.00  0.00    +0.151 HD
ATOM     11  O   LIG    1       24.094 -29.206  10.827  0.00  0.00    -0.252 OA
ATOM     12  C   LIG    1       25.505 -28.400  12.950  0.00  0.00    +0.137 C 
ATOM     13  C   LIG    1       26.573 -27.571  13.642  0.00  0.00    +0.127 C 
BRANCH   2  15
ATOM     14  C   LIG    1       29.398 -27.322  15.424  0.00  0.00    +0.024 C 
ATOM     15  C   LIG    1       28.162 -28.204  15.500  0.00  0.00    +0.105 C 
ENDBRANCH   2  15
ENDBRANCH   1   9
BRANCH   1  16
ATOM     16  C   LIG    1       24.914 -30.625   7.698  0.00  0.00    -0.018 A 
ATOM     17  C   LIG    1       25.453 -31.269   6.579  0.00  0.00    +0.006 A 
ATOM     18  C   LIG    1       25.523 -30.622   5.344  0.00  0.00    +0.000 A 
ATOM     19  C   LIG    1       25.028 -29.328   5.198  0.00  0.00    +0.000 A 
ATOM     20  C   LIG    1       24.461 -28.679   6.291  0.00  0.00    +0.000 A 
ATOM     21  C   LIG    1       24.400 -29.322   7.535  0.00  0.00    +0.006 A 
ENDBRANCH   1  16
BRANCH   1  22
ATOM     22  C   LIG    1       23.494 -31.871   9.487  0.00  0.00    +0.239 C 
ATOM     23  N   LIG    1       23.201 -31.894  10.838  0.00  0.00    -0.300 N 
ATOM     24  H   LIG    1       23.691 -31.207  11.398  0.00  0.00    +0.150 HD
ATOM     25  O   LIG    1       22.681 -32.316   8.673  0.00  0.00    -0.273 OA
BRANCH  23  26
ATOM     26  CA  LIG    1       21.875 -32.301  11.346  0.00  0.00    +0.190 C 
ATOM     27  C   LIG    1       21.641 -32.025  12.840  0.00  0.00    +0.165 C 
ATOM     28  S   LIG    1       22.643 -30.731  13.651  0.00  0.00    -0.127 S 
ATOM     29  C   LIG    1       21.343 -29.410  13.570  0.00  0.00    +0.042 C 
ATOM     30  CA  LIG    1       20.023 -30.104  13.151  0.00  0.00    +0.201 C 
ATOM     31  C   LIG    1       21.777 -28.371  12.522  0.00  0.00    +0.025 C 
ATOM     32  C   LIG    1       21.318 -28.733  14.947  0.00  0.00    +0.025 C 
ATOM     33  N   LIG    1       20.373 -31.367  12.488  0.00  0.00    -0.271 N 
ATOM     34  C   LIG    1       20.674 -31.344  11.148  0.00  0.00    +0.240 C 
ATOM     35  O   LIG    1       20.199 -30.668  10.249  0.00  0.00    -0.273 OA
BRANCH  30  36
ATOM     36  C   LIG    1       19.061 -30.326  14.322  0.00  0.00    +0.327 C 
ATOM     37  O   LIG    1       19.154 -31.270  15.095  0.00  0.00    -0.249 OA
BRANCH  36  38
ATOM     38  OXT LIG    1       18.013 -29.474  14.372  0.00  0.00    -0.479 OA
ATOM     39  HXT LIG    1       18.289 -28.540  14.396  0.00  0.00    +0.295 HD
ENDBRANCH  36  38
ENDBRANCH  30  36
ENDBRANCH  23  26
ENDBRANCH   1  22
TORSDOF 7
ENDMDL
MODEL 4
REMARK VINA RESULT:      -5.4      3.725      8.609
REMARK  Name = *****
REMARK                            x       y       z     vdW  Elec       q    Type
REMARK                         _______ _______ _______ _____ _____    ______ ____
ROOT
ATOM      1  CA  LIG    1       25.469 -30.291   7.737  0.00  0.00    +0.191 C 
ENDROOT
BRANCH   1   9
ATOM      2  N   LIG    1       25.057 -24.188   5.689  0.00  0.00    -0.292 N 
ATOM      3  C   LIG    1       25.717 -24.732   6.790  0.00  0.00    +0.302 C 
ATOM      4  O   LIG    1       26.065 -24.096   7.775  0.00  0.00    -0.265 OA
ATOM      5  C   LIG    1       25.991 -26.250   6.729  0.00  0.00    +0.309 C 
ATOM      6  O   LIG    1       27.025 -26.699   7.215  0.00  0.00    -0.265 OA
ATOM      7  N   LIG    1       25.064 -27.011   6.017  0.00  0.00    -0.217 N 
ATOM      8  C   LIG    1       24.898 -28.365   6.215  0.00  0.00    +0.310 C 
ATOM      9  N   LIG    1       25.641 -28.934   7.203  0.00  0.00    -0.284 N 
ATOM     10  H   LIG    1       26.592 -28.570   7.260  0.00  0.00    +0.151 HD
ATOM     11  O   LIG    1       23.967 -28.967   5.680  0.00  0.00    -0.252 OA
ATOM     12  C   LIG    1       24.025 -26.330   5.242  0.00  0.00    +0.137 C 
ATOM     13  C   LIG    1       24.589 -25.063   4.625  0.00  0.00    +0.127 C 
BRANCH   2  15
ATOM     14  C   LIG    1       23.543 -22.323   6.287  0.00  0.00    +0.024 C 
ATOM     15  C   LIG    1       24.837 -22.752   5.613  0.00  0.00    +0.105 C 
ENDBRANCH   2  15
ENDBRANCH   1   9
BRANCH   1  16
ATOM     16  C   LIG    1       26.093 -31.345   6.829  0.00  0.00    -0.018 A 
ATOM     17  C   LIG    1       25.762 -31.396   5.470  0.00  0.00    +0.006 A 
ATOM     18  C   LIG    1       26.275 -32.398   4.644  0.00  0.00    +0.000 A 
ATOM     19  C   LIG    1       27.152 -33.351   5.156  0.00  0.00    +0.000 A 
ATOM     20  C   LIG    1       27.518 -33.303   6.498  0.00  0.00    +0.000 A 
ATOM     21  C   LIG    1       26.996 -32.305   7.332  0.00  0.00    +0.006 A 
ENDBRANCH   1  16
BRANCH   1  22
ATOM     22  C   LIG    1       24.061 -30.706   8.322  0.00  0.00    +0.239 C 
ATOM     23  N   LIG    1       23.745 -30.265   9.593  0.00  0.00    -0.300 N 
ATOM     24  H   LIG    1       24.207 -29.411   9.882  0.00  0.00    +0.150 HD
ATOM     25  O   LIG    1       23.275 -31.433   7.709  0.00  0.00    -0.273 OA
BRANCH  23  26
ATOM     26  CA  LIG    1       22.421 -30.510  10.202  0.00  0.00    +0.190 C 
ATOM     27  C   LIG    1       22.294 -31.841  10.959  0.00  0.00    +0.165 C 
ATOM     28  S   LIG    1       23.816 -32.638  11.580  0.00  0.00    -0.127 S 
ATOM     29  C   LIG    1       23.642 -32.038  13.326  0.00  0.00    +0.042 C 
ATOM     30  CA  LIG    1       22.218 -31.444  13.457  0.00  0.00    +0.201 C 
ATOM     31  C   LIG    1       24.714 -30.963  13.575  0.00  0.00    +0.025 C 
ATOM     32  C   LIG    1       23.937 -33.239  14.234  0.00  0.00    +0.025 C 
ATOM     33  N   LIG    1       21.751 -31.100  12.109  0.00  0.00    -0.271 N 
ATOM     34  C   LIG    1       22.106 -29.882  11.581  0.00  0.00    +0.240 C 
ATOM     35  O   LIG    1       22.234 -28.797  12.127  0.00  0.00    -0.273 OA
BRANCH  30  36
ATOM     36  C   LIG    1       21.239 -32.378  14.175  0.00  0.00    +0.327 C 
ATOM     37  O   LIG    1       20.584 -33.235  13.596  0.00  0.00    -0.249 OA
BRANCH  36  38
ATOM     38  OXT LIG    1       21.045 -32.108  15.485  0.00  0.00    -0.479 OA
ATOM     39  HXT LIG    1       21.119 -32.900  16.046  0.00  0.00    +0.295 HD
ENDBRANCH  36  38
ENDBRANCH  30  36
ENDBRANCH  23  26
ENDBRANCH   1  22
TORSDOF 7
ENDMDL
MODEL 5
REMARK VINA RESULT:      -5.3      3.723      8.826
REMARK  Name = *****
REMARK                            x       y       z     vdW  Elec       q    Type
REMARK                         _______ _______ _______ _____ _____    ______ ____
ROOT
ATOM      1  CA  LIG    1       25.779 -31.579   6.907  0.00  0.00    +0.191 C 
ENDROOT
BRANCH   1   9
ATOM      2  N   LIG    1       25.047 -25.316   5.545  0.00  0.00    -0.292 N 
ATOM      3  C   LIG    1       25.258 -26.408   4.705  0.00  0.00    +0.302 C 
ATOM      4  O   LIG    1       25.686 -26.331   3.561  0.00  0.00    -0.265 OA
ATOM      5  C   LIG    1       24.933 -27.793   5.304  0.00  0.00    +0.309 C 
ATOM      6  O   LIG    1       24.461 -28.669   4.585  0.00  0.00    -0.265 OA
ATOM      7  N   LIG    1       25.111 -27.920   6.682  0.00  0.00    -0.217 N 
ATOM      8  C   LIG    1       25.295 -29.137   7.303  0.00  0.00    +0.310 C 
ATOM      9  N   LIG    1       25.367 -30.231   6.496  0.00  0.00    -0.284 N 
ATOM     10  H   LIG    1       24.716 -30.204   5.712  0.00  0.00    +0.151 HD
ATOM     11  O   LIG    1       25.602 -29.193   8.493  0.00  0.00    -0.252 OA
ATOM     12  C   LIG    1       25.407 -26.728   7.477  0.00  0.00    +0.137 C 
ATOM     13  C   LIG    1       24.643 -25.538   6.926  0.00  0.00    +0.127 C 
BRANCH   2  15
ATOM     14  C   LIG    1       24.867 -22.903   6.063  0.00  0.00    +0.024 C 
ATOM     15  C   LIG    1       25.236 -23.965   5.040  0.00  0.00    +0.105 C 
ENDBRANCH   2  15
ENDBRANCH   1   9
BRANCH   1  16
ATOM     16  C   LIG    1       26.471 -32.335   5.778  0.00  0.00    -0.018 A 
ATOM     17  C   LIG    1       25.943 -32.311   4.482  0.00  0.00    +0.006 A 
ATOM     18  C   LIG    1       26.530 -33.054   3.456  0.00  0.00    +0.000 A 
ATOM     19  C   LIG    1       27.674 -33.810   3.699  0.00  0.00    +0.000 A 
ATOM     20  C   LIG    1       28.233 -33.825   4.974  0.00  0.00    +0.000 A 
ATOM     21  C   LIG    1       27.639 -33.090   6.009  0.00  0.00    +0.006 A 
ENDBRANCH   1  16
BRANCH   1  22
ATOM     22  C   LIG    1       24.768 -32.463   7.740  0.00  0.00    +0.239 C 
ATOM     23  N   LIG    1       24.296 -31.940   8.930  0.00  0.00    -0.300 N 
ATOM     24  H   LIG    1       24.282 -30.929   8.983  0.00  0.00    +0.150 HD
ATOM     25  O   LIG    1       24.432 -33.596   7.389  0.00  0.00    -0.273 OA
BRANCH  23  26
ATOM     26  CA  LIG    1       23.275 -32.634   9.741  0.00  0.00    +0.190 C 
ATOM     27  C   LIG    1       23.639 -32.816  11.223  0.00  0.00    +0.165 C 
ATOM     28  S   LIG    1       24.869 -31.685  11.961  0.00  0.00    -0.127 S 
ATOM     29  C   LIG    1       23.631 -30.566  12.772  0.00  0.00    +0.042 C 
ATOM     30  CA  LIG    1       22.257 -31.275  12.678  0.00  0.00    +0.201 C 
ATOM     31  C   LIG    1       23.616 -29.231  12.008  0.00  0.00    +0.025 C 
ATOM     32  C   LIG    1       24.140 -30.308  14.196  0.00  0.00    +0.025 C 
ATOM     33  N   LIG    1       22.330 -32.250  11.583  0.00  0.00    -0.271 N 
ATOM     34  C   LIG    1       22.086 -31.817  10.302  0.00  0.00    +0.240 C 
ATOM     35  O   LIG    1       21.294 -30.982   9.893  0.00  0.00    -0.273 OA
BRANCH  30  36
ATOM     36  C   LIG    1       21.828 -31.932  13.994  0.00  0.00    +0.327 C 
ATOM     37  O   LIG    1       22.197 -33.048  14.337  0.00  0.00    -0.249 OA
BRANCH  36  38
ATOM     38  OXT LIG    1       20.902 -31.247  14.701  0.00  0.00    -0.479 OA
ATOM     39  HXT LIG    1       20.048 -31.713  14.751  0.00  0.00    +0.295 HD
ENDBRANCH  36  38
ENDBRANCH  30  36
ENDBRANCH  23  26
ENDBRANCH   1  22
TORSDOF 7
ENDMDL
MODEL 6
REMARK VINA RESULT:      -5.2      3.613      8.631
REMARK  Name = *****
REMARK                            x       y       z     vdW  Elec       q    Type
REMARK                         _______ _______ _______ _____ _____    ______ ____
ROOT
ATOM      1  CA  LIG    1       24.275 -31.850  11.120  0.00  0.00    +0.191 C 
ENDROOT
BRANCH   1   9
ATOM      2  N   LIG    1       25.713 -32.992   4.937  0.00  0.00    -0.292 N 
ATOM      3  C   LIG    1       24.484 -32.772   5.556  0.00  0.00    +0.302 C 
ATOM      4  O   LIG    1       23.402 -33.095   5.085  0.00  0.00    -0.265 OA
ATOM      5  C   LIG    1       24.538 -32.087   6.939  0.00  0.00    +0.309 C 
ATOM      6  O   LIG    1       23.652 -31.300   7.260  0.00  0.00    -0.265 OA
ATOM      7  N   LIG    1       25.676 -32.343   7.704  0.00  0.00    -0.217 N 
ATOM      8  C   LIG    1       25.705 -32.193   9.074  0.00  0.00    +0.310 C 
ATOM      9  N   LIG    1       24.535 -31.845   9.676  0.00  0.00    -0.284 N 
ATOM     10  H   LIG    1       23.990 -31.165   9.146  0.00  0.00    +0.151 HD
ATOM     11  O   LIG    1       26.676 -32.576   9.726  0.00  0.00    -0.252 OA
ATOM     12  C   LIG    1       26.794 -33.069   7.100  0.00  0.00    +0.137 C 
ATOM     13  C   LIG    1       26.944 -32.668   5.644  0.00  0.00    +0.127 C 
BRANCH   2  15
ATOM     14  C   LIG    1       26.683 -32.767   2.671  0.00  0.00    +0.024 C 
ATOM     15  C   LIG    1       25.760 -33.547   3.593  0.00  0.00    +0.105 C 
ENDBRANCH   2  15
ENDBRANCH   1   9
BRANCH   1  16
ATOM     16  C   LIG    1       23.004 -31.087  11.476  0.00  0.00    -0.018 A 
ATOM     17  C   LIG    1       22.919 -30.371  12.676  0.00  0.00    +0.006 A 
ATOM     18  C   LIG    1       21.737 -29.725  13.042  0.00  0.00    +0.000 A 
ATOM     19  C   LIG    1       20.627 -29.757  12.202  0.00  0.00    +0.000 A 
ATOM     20  C   LIG    1       20.698 -30.438  10.990  0.00  0.00    +0.000 A 
ATOM     21  C   LIG    1       21.879 -31.099  10.625  0.00  0.00    +0.006 A 
ENDBRANCH   1  16
BRANCH   1  22
ATOM     22  C   LIG    1       25.477 -31.582  12.111  0.00  0.00    +0.239 C 
ATOM     23  N   LIG    1       26.152 -30.382  11.983  0.00  0.00    -0.300 N 
ATOM     24  H   LIG    1       25.610 -29.622  11.590  0.00  0.00    +0.150 HD
ATOM     25  O   LIG    1       25.850 -32.412  12.944  0.00  0.00    -0.273 OA
BRANCH  23  26
ATOM     26  CA  LIG    1       27.226 -29.983  12.915  0.00  0.00    +0.190 C 
ATOM     27  C   LIG    1       27.742 -28.547  12.732  0.00  0.00    +0.165 C 
ATOM     28  S   LIG    1       26.650 -27.328  11.921  0.00  0.00    -0.127 S 
ATOM     29  C   LIG    1       26.059 -26.534  13.490  0.00  0.00    +0.042 C 
ATOM     30  CA  LIG    1       26.962 -27.068  14.631  0.00  0.00    +0.201 C 
ATOM     31  C   LIG    1       24.592 -26.940  13.713  0.00  0.00    +0.025 C 
ATOM     32  C   LIG    1       26.118 -25.018  13.264  0.00  0.00    +0.025 C 
ATOM     33  N   LIG    1       27.559 -28.329  14.175  0.00  0.00    -0.271 N 
ATOM     34  C   LIG    1       26.841 -29.490  14.331  0.00  0.00    +0.240 C 
ATOM     35  O   LIG    1       26.091 -29.834  15.232  0.00  0.00    -0.273 OA
BRANCH  30  36
ATOM     36  C   LIG    1       28.029 -26.063  15.074  0.00  0.00    +0.327 C 
ATOM     37  O   LIG    1       27.762 -24.947  15.500  0.00  0.00    -0.249 OA
BRANCH  36  38
ATOM     38  OXT LIG    1       29.306 -26.442  14.843  0.00  0.00    -0.479 OA
ATOM     39  HXT LIG    1       29.569 -27.216  15.372  0.00  0.00    +0.295 HD
ENDBRANCH  36  38
ENDBRANCH  30  36
ENDBRANCH  23  26
ENDBRANCH   1  22
TORSDOF 7
ENDMDL
MODEL 7
REMARK VINA RESULT:      -4.9      3.414      8.603
REMARK  Name = *****
REMARK                            x       y       z     vdW  Elec       q    Type
REMARK                         _______ _______ _______ _____ _____    ______ ____
ROOT
ATOM      1  CA  LIG    1       25.694 -30.836   7.459  0.00  0.00    +0.191 C 
ENDROOT
BRANCH   1   9
ATOM      2  N   LIG    1       24.986 -24.646   5.789  0.00  0.00    -0.292 N 
ATOM      3  C   LIG    1       25.685 -25.225   6.847  0.00  0.00    +0.302 C 
ATOM      4  O   LIG    1       26.019 -24.633   7.864  0.00  0.00    -0.265 OA
ATOM      5  C   LIG    1       26.024 -26.723   6.691  0.00  0.00    +0.309 C 
ATOM      6  O   LIG    1       27.084 -27.153   7.136  0.00  0.00    -0.265 OA
ATOM      7  N   LIG    1       25.121 -27.480   5.945  0.00  0.00    -0.217 N 
ATOM      8  C   LIG    1       25.017 -28.850   6.063  0.00  0.00    +0.310 C 
ATOM      9  N   LIG    1       25.799 -29.443   7.006  0.00  0.00    -0.284 N 
ATOM     10  H   LIG    1       26.733 -29.041   7.074  0.00  0.00    +0.151 HD
ATOM     11  O   LIG    1       24.106 -29.460   5.504  0.00  0.00    -0.252 OA
ATOM     12  C   LIG    1       24.042 -26.801   5.226  0.00  0.00    +0.137 C 
ATOM     13  C   LIG    1       24.541 -25.476   4.679  0.00  0.00    +0.127 C 
BRANCH   2  15
ATOM     14  C   LIG    1       23.474 -22.875   6.630  0.00  0.00    +0.024 C 
ATOM     15  C   LIG    1       24.702 -23.219   5.801  0.00  0.00    +0.105 C 
ENDBRANCH   2  15
ENDBRANCH   1   9
BRANCH   1  16
ATOM     16  C   LIG    1       26.272 -31.813   6.441  0.00  0.00    -0.018 A 
ATOM     17  C   LIG    1       27.373 -32.612   6.770  0.00  0.00    +0.006 A 
ATOM     18  C   LIG    1       27.951 -33.460   5.825  0.00  0.00    +0.000 A 
ATOM     19  C   LIG    1       27.422 -33.548   4.540  0.00  0.00    +0.000 A 
ATOM     20  C   LIG    1       26.308 -32.785   4.199  0.00  0.00    +0.000 A 
ATOM     21  C   LIG    1       25.733 -31.923   5.142  0.00  0.00    +0.006 A 
ENDBRANCH   1  16
BRANCH   1  22
ATOM     22  C   LIG    1       24.342 -31.323   8.114  0.00  0.00    +0.239 C 
ATOM     23  N   LIG    1       24.401 -31.819   9.404  0.00  0.00    -0.300 N 
ATOM     24  H   LIG    1       25.165 -31.466   9.967  0.00  0.00    +0.150 HD
ATOM     25  O   LIG    1       23.269 -31.318   7.506  0.00  0.00    -0.273 OA
BRANCH  23  26
ATOM     26  CA  LIG    1       23.188 -32.212  10.149  0.00  0.00    +0.190 C 
ATOM     27  C   LIG    1       23.400 -32.442  11.655  0.00  0.00    +0.165 C 
ATOM     28  S   LIG    1       24.827 -31.639  12.464  0.00  0.00    -0.127 S 
ATOM     29  C   LIG    1       23.864 -30.224  13.179  0.00  0.00    +0.042 C 
ATOM     30  CA  LIG    1       22.364 -30.565  12.999  0.00  0.00    +0.201 C 
ATOM     31  C   LIG    1       24.236 -28.948  12.405  0.00  0.00    +0.025 C 
ATOM     32  C   LIG    1       24.330 -30.066  14.633  0.00  0.00    +0.025 C 
ATOM     33  N   LIG    1       22.257 -31.554  11.920  0.00  0.00    -0.271 N 
ATOM     34  C   LIG    1       22.212 -31.107  10.621  0.00  0.00    +0.240 C 
ATOM     35  O   LIG    1       21.685 -30.110  10.153  0.00  0.00    -0.273 OA
BRANCH  30  36
ATOM     36  C   LIG    1       21.700 -31.058  14.288  0.00  0.00    +0.327 C 
ATOM     37  O   LIG    1       21.761 -32.220  14.671  0.00  0.00    -0.249 OA
BRANCH  36  38
ATOM     38  OXT LIG    1       20.925 -30.148  14.918  0.00  0.00    -0.479 OA
ATOM     39  HXT LIG    1       21.365 -29.751  15.691  0.00  0.00    +0.295 HD
ENDBRANCH  36  38
ENDBRANCH  30  36
ENDBRANCH  23  26
ENDBRANCH   1  22
TORSDOF 7
ENDMDL
MODEL 8
REMARK VINA RESULT:      -4.8      3.073      8.148
REMARK  Name = *****
REMARK                            x       y       z     vdW  Elec       q    Type
REMARK                         _______ _______ _______ _____ _____    ______ ____
ROOT
ATOM      1  CA  LIG    1       21.307 -31.808  12.178  0.00  0.00    +0.191 C 
ENDROOT
BRANCH   1   9
ATOM      2  N   LIG    1       25.101 -31.655   6.964  0.00  0.00    -0.292 N 
ATOM      3  C   LIG    1       24.668 -32.729   7.739  0.00  0.00    +0.302 C 
ATOM      4  O   LIG    1       25.212 -33.825   7.772  0.00  0.00    -0.265 OA
ATOM      5  C   LIG    1       23.424 -32.471   8.616  0.00  0.00    +0.309 C 
ATOM      6  O   LIG    1       22.612 -33.373   8.796  0.00  0.00    -0.265 OA
ATOM      7  N   LIG    1       23.257 -31.163   9.071  0.00  0.00    -0.217 N 
ATOM      8  C   LIG    1       22.496 -30.846  10.175  0.00  0.00    +0.310 C 
ATOM      9  N   LIG    1       21.955 -31.889  10.864  0.00  0.00    -0.284 N 
ATOM     10  H   LIG    1       21.614 -32.641  10.265  0.00  0.00    +0.151 HD
ATOM     11  O   LIG    1       22.500 -29.704  10.633  0.00  0.00    -0.252 OA
ATOM     12  C   LIG    1       24.137 -30.111   8.558  0.00  0.00    +0.137 C 
ATOM     13  C   LIG    1       24.443 -30.363   7.093  0.00  0.00    +0.127 C 
BRANCH   2  15
ATOM     14  C   LIG    1       25.743 -32.169   4.629  0.00  0.00    +0.024 C 
ATOM     15  C   LIG    1       26.208 -31.829   6.036  0.00  0.00    +0.105 C 
ENDBRANCH   2  15
ENDBRANCH   1   9
BRANCH   1  16
ATOM     16  C   LIG    1       19.799 -32.015  12.086  0.00  0.00    -0.018 A 
ATOM     17  C   LIG    1       19.149 -32.889  12.966  0.00  0.00    +0.006 A 
ATOM     18  C   LIG    1       17.780 -33.137  12.847  0.00  0.00    +0.000 A 
ATOM     19  C   LIG    1       17.030 -32.493  11.866  0.00  0.00    +0.000 A 
ATOM     20  C   LIG    1       17.650 -31.597  11.000  0.00  0.00    +0.000 A 
ATOM     21  C   LIG    1       19.026 -31.355  11.108  0.00  0.00    +0.006 A 
ENDBRANCH   1  16
BRANCH   1  22
ATOM     22  C   LIG    1       21.732 -30.650  13.167  0.00  0.00    +0.239 C 
ATOM     23  N   LIG    1       23.059 -30.598  13.552  0.00  0.00    -0.300 N 
ATOM     24  H   LIG    1       23.716 -31.001  12.895  0.00  0.00    +0.150 HD
ATOM     25  O   LIG    1       20.925 -29.841  13.629  0.00  0.00    -0.273 OA
BRANCH  23  26
ATOM     26  CA  LIG    1       23.588 -29.505  14.393  0.00  0.00    +0.190 C 
ATOM     27  C   LIG    1       25.112 -29.523  14.595  0.00  0.00    +0.165 C 
ATOM     28  S   LIG    1       26.141 -30.393  13.361  0.00  0.00    -0.127 S 
ATOM     29  C   LIG    1       26.642 -28.869  12.428  0.00  0.00    +0.042 C 
ATOM     30  CA  LIG    1       26.208 -27.655  13.287  0.00  0.00    +0.201 C 
ATOM     31  C   LIG    1       25.915 -28.874  11.073  0.00  0.00    +0.025 C 
ATOM     32  C   LIG    1       28.150 -28.986  12.174  0.00  0.00    +0.025 C 
ATOM     33  N   LIG    1       25.151 -28.106  14.199  0.00  0.00    -0.271 N 
ATOM     34  C   LIG    1       23.854 -28.125  13.744  0.00  0.00    +0.240 C 
ATOM     35  O   LIG    1       23.277 -27.358  12.990  0.00  0.00    -0.273 OA
BRANCH  30  36
ATOM     36  C   LIG    1       27.371 -27.007  14.044  0.00  0.00    +0.327 C 
ATOM     37  O   LIG    1       27.836 -27.467  15.079  0.00  0.00    -0.249 OA
BRANCH  36  38
ATOM     38  OXT LIG    1       27.774 -25.810  13.561  0.00  0.00    -0.479 OA
ATOM     39  HXT LIG    1       28.183 -25.879  12.680  0.00  0.00    +0.295 HD
ENDBRANCH  36  38
ENDBRANCH  30  36
ENDBRANCH  23  26
ENDBRANCH   1  22
TORSDOF 7
ENDMDL
MODEL 9
REMARK VINA RESULT:      -4.6      4.662      8.411
REMARK  Name = *****
REMARK                            x       y       z     vdW  Elec       q    Type
REMARK                         _______ _______ _______ _____ _____    ______ ____
ROOT
ATOM      1  CA  LIG    1       24.469 -29.552   7.498  0.00  0.00    +0.191 C 
ENDROOT
BRANCH   1   9
ATOM      2  N   LIG    1       27.491 -29.369  13.194  0.00  0.00    -0.292 N 
ATOM      3  C   LIG    1       28.002 -29.397  11.897  0.00  0.00    +0.302 C 
ATOM      4  O   LIG    1       29.140 -29.737  11.607  0.00  0.00    -0.265 OA
ATOM      5  C   LIG    1       27.024 -28.979  10.778  0.00  0.00    +0.309 C 
ATOM      6  O   LIG    1       27.446 -28.362   9.805  0.00  0.00    -0.265 OA
ATOM      7  N   LIG    1       25.676 -29.252  11.010  0.00  0.00    -0.217 N 
ATOM      8  C   LIG    1       24.749 -29.358   9.995  0.00  0.00    +0.310 C 
ATOM      9  N   LIG    1       25.221 -29.251   8.723  0.00  0.00    -0.284 N 
ATOM     10  H   LIG    1       25.949 -28.545   8.615  0.00  0.00    +0.151 HD
ATOM     11  O   LIG    1       23.607 -29.752  10.228  0.00  0.00    -0.252 OA
ATOM     12  C   LIG    1       25.261 -29.734  12.329  0.00  0.00    +0.137 C 
ATOM     13  C   LIG    1       26.086 -29.056  13.408  0.00  0.00    +0.127 C 
BRANCH   2  15
ATOM     14  C   LIG    1       28.883 -28.395  14.994  0.00  0.00    +0.024 C 
ATOM     15  C   LIG    1       28.362 -29.656  14.323  0.00  0.00    +0.105 C 
ENDBRANCH   2  15
ENDBRANCH   1   9
BRANCH   1  16
ATOM     16  C   LIG    1       24.382 -31.051   7.235  0.00  0.00    -0.018 A 
ATOM     17  C   LIG    1       23.581 -31.543   6.198  0.00  0.00    +0.006 A 
ATOM     18  C   LIG    1       23.441 -32.917   5.991  0.00  0.00    +0.000 A 
ATOM     19  C   LIG    1       24.122 -33.824   6.797  0.00  0.00    +0.000 A 
ATOM     20  C   LIG    1       24.948 -33.357   7.816  0.00  0.00    +0.000 A 
ATOM     21  C   LIG    1       25.082 -31.979   8.035  0.00  0.00    +0.006 A 
ENDBRANCH   1  16
BRANCH   1  22
ATOM     22  C   LIG    1       24.750 -28.693   6.202  0.00  0.00    +0.239 C 
ATOM     23  N   LIG    1       24.285 -27.390   6.189  0.00  0.00    -0.300 N 
ATOM     24  H   LIG    1       24.186 -26.958   7.099  0.00  0.00    +0.150 HD
ATOM     25  O   LIG    1       25.317 -29.154   5.209  0.00  0.00    -0.273 OA
BRANCH  23  26
ATOM     26  CA  LIG    1       24.574 -26.467   5.073  0.00  0.00    +0.190 C 
ATOM     27  C   LIG    1       23.830 -25.123   5.136  0.00  0.00    +0.165 C 
ATOM     28  S   LIG    1       23.230 -24.537   6.759  0.00  0.00    -0.127 S 
ATOM     29  C   LIG    1       24.635 -23.366   7.066  0.00  0.00    +0.042 C 
ATOM     30  CA  LIG    1       25.420 -23.248   5.735  0.00  0.00    +0.201 C 
ATOM     31  C   LIG    1       25.520 -23.955   8.177  0.00  0.00    +0.025 C 
ATOM     32  C   LIG    1       24.014 -22.059   7.577  0.00  0.00    +0.025 C 
ATOM     33  N   LIG    1       25.114 -24.436   4.929  0.00  0.00    -0.271 N 
ATOM     34  C   LIG    1       25.842 -25.582   5.145  0.00  0.00    +0.240 C 
ATOM     35  O   LIG    1       27.022 -25.720   5.427  0.00  0.00    -0.273 OA
BRANCH  30  36
ATOM     36  C   LIG    1       25.122 -21.954   4.973  0.00  0.00    +0.327 C 
ATOM     37  O   LIG    1       24.163 -21.825   4.222  0.00  0.00    -0.249 OA
BRANCH  36  38
ATOM     38  OXT LIG    1       26.066 -20.993   5.082  0.00  0.00    -0.479 OA
ATOM     39  HXT LIG    1       26.893 -21.226   4.625  0.00  0.00    +0.295 HD
ENDBRANCH  36  38
ENDBRANCH  30  36
ENDBRANCH  23  26
ENDBRANCH   1  22
TORSDOF 7
ENDMDL
