MODEL 1
REMARK VINA RESULT:      -3.4      0.000      0.000
REMARK  Name = *****
REMARK                            x       y       z     vdW  Elec       q    Type
REMARK                         _______ _______ _______ _____ _____    ______ ____
ROOT
ATOM      1  O   LIG    1       26.811 -16.218   3.825  0.00  0.00    -0.459 OA
ENDROOT
BRANCH   1   7
ATOM      2  C   LIG    1       24.632 -11.448   4.024  0.00  0.00    +0.192 C 
ATOM      3  N   LIG    1       24.823 -12.857   3.419  0.00  0.00    +0.243 N 
ATOM      4  C   LIG    1       23.870 -12.895   2.224  0.00  0.00    +0.192 C 
ATOM      5  C   LIG    1       24.593 -13.953   4.478  0.00  0.00    +0.070 C 
ATOM      6  C   LIG    1       24.544 -15.332   3.798  0.00  0.00    +0.099 C 
ATOM      7  C   LIG    1       25.796 -15.655   2.966  0.00  0.00    +0.187 C 
ATOM      8  C   LIG    1       26.425 -14.431   2.276  0.00  0.00    +0.099 C 
ATOM      9  C   LIG    1       25.833 -13.825   5.379  0.00  0.00    +0.060 C 
ATOM     10  C   LIG    1       26.944 -13.275   4.474  0.00  0.00    +0.060 C 
ATOM     11  C   LIG    1       26.304 -13.128   3.085  0.00  0.00    +0.070 C 
ENDBRANCH   1   7
BRANCH   1  12
ATOM     12  C   LIG    1       26.879 -17.584   3.885  0.00  0.00    +0.341 C 
ATOM     13  O   LIG    1       27.785 -18.205   4.425  0.00  0.00    -0.247 OA
BRANCH  12  14
ATOM     14  C   LIG    1       25.668 -18.226   3.185  0.00  0.00    +0.253 C 
BRANCH  14  15
ATOM     15  C   LIG    1       24.832 -19.048   4.143  0.00  0.00    -0.008 A 
ATOM     16  C   LIG    1       25.418 -20.043   4.944  0.00  0.00    +0.007 A 
ATOM     17  C   LIG    1       24.644 -20.772   5.849  0.00  0.00    +0.000 A 
ATOM     18  C   LIG    1       23.276 -20.521   5.957  0.00  0.00    +0.000 A 
ATOM     19  C   LIG    1       22.681 -19.547   5.160  0.00  0.00    +0.000 A 
ATOM     20  C   LIG    1       23.452 -18.816   4.254  0.00  0.00    +0.007 A 
ENDBRANCH  14  15
BRANCH  14  21
ATOM     21  O   LIG    1       26.007 -19.029   2.063  0.00  0.00    -0.376 OA
ATOM     22  H   LIG    1       26.795 -19.548   2.306  0.00  0.00    +0.211 HD
ENDBRANCH  14  21
ENDBRANCH  12  14
ENDBRANCH   1  12
TORSDOF 5
ENDMDL
MODEL 2
REMARK VINA RESULT:      -3.2      0.806      1.790
REMARK  Name = *****
REMARK                            x       y       z     vdW  Elec       q    Type
REMARK                         _______ _______ _______ _____ _____    ______ ____
ROOT
ATOM      1  O   LIG    1       25.821 -16.237   3.996  0.00  0.00    -0.459 OA
ENDROOT
BRANCH   1   7
ATOM      2  C   LIG    1       23.739 -11.447   3.484  0.00  0.00    +0.192 C 
ATOM      3  N   LIG    1       24.848 -12.502   3.274  0.00  0.00    +0.243 N 
ATOM      4  C   LIG    1       25.944 -11.761   2.508  0.00  0.00    +0.192 C 
ATOM      5  C   LIG    1       24.294 -13.760   2.577  0.00  0.00    +0.070 C 
ATOM      6  C   LIG    1       25.456 -14.680   2.162  0.00  0.00    +0.099 C 
ATOM      7  C   LIG    1       26.373 -15.081   3.328  0.00  0.00    +0.187 C 
ATOM      8  C   LIG    1       26.545 -13.988   4.398  0.00  0.00    +0.099 C 
ATOM      9  C   LIG    1       23.440 -14.413   3.676  0.00  0.00    +0.060 C 
ATOM     10  C   LIG    1       24.081 -13.988   5.003  0.00  0.00    +0.060 C 
ATOM     11  C   LIG    1       25.290 -13.124   4.614  0.00  0.00    +0.070 C 
ENDBRANCH   1   7
BRANCH   1  12
ATOM     12  C   LIG    1       26.390 -17.447   3.704  0.00  0.00    +0.341 C 
ATOM     13  O   LIG    1       27.565 -17.723   3.912  0.00  0.00    -0.247 OA
BRANCH  12  14
ATOM     14  C   LIG    1       25.358 -18.405   3.084  0.00  0.00    +0.253 C 
BRANCH  14  15
ATOM     15  C   LIG    1       24.550 -19.127   4.142  0.00  0.00    -0.008 A 
ATOM     16  C   LIG    1       23.163 -18.930   4.253  0.00  0.00    +0.007 A 
ATOM     17  C   LIG    1       22.423 -19.626   5.210  0.00  0.00    +0.000 A 
ATOM     18  C   LIG    1       23.060 -20.518   6.072  0.00  0.00    +0.000 A 
ATOM     19  C   LIG    1       24.436 -20.712   5.981  0.00  0.00    +0.000 A 
ATOM     20  C   LIG    1       25.179 -20.018   5.026  0.00  0.00    +0.007 A 
ENDBRANCH  14  15
BRANCH  14  21
ATOM     21  O   LIG    1       25.918 -19.364   2.198  0.00  0.00    -0.376 OA
ATOM     22  H   LIG    1       25.743 -19.056   1.290  0.00  0.00    +0.211 HD
ENDBRANCH  14  21
ENDBRANCH  12  14
ENDBRANCH   1  12
TORSDOF 5
ENDMDL
MODEL 3
REMARK VINA RESULT:      -3.0      1.697      2.655
REMARK  Name = *****
REMARK                            x       y       z     vdW  Elec       q    Type
REMARK                         _______ _______ _______ _____ _____    ______ ____
ROOT
ATOM      1  O   LIG    1       27.135 -16.207   3.762  0.00  0.00    -0.459 OA
ENDROOT
BRANCH   1   7
ATOM      2  C   LIG    1       24.854 -11.532   4.461  0.00  0.00    +0.192 C 
ATOM      3  N   LIG    1       25.116 -12.840   3.681  0.00  0.00    +0.243 N 
ATOM      4  C   LIG    1       24.253 -12.718   2.425  0.00  0.00    +0.192 C 
ATOM      5  C   LIG    1       24.831 -14.076   4.557  0.00  0.00    +0.070 C 
ATOM      6  C   LIG    1       24.859 -15.347   3.690  0.00  0.00    +0.099 C 
ATOM      7  C   LIG    1       26.174 -15.537   2.917  0.00  0.00    +0.187 C 
ATOM      8  C   LIG    1       26.827 -14.223   2.453  0.00  0.00    +0.099 C 
ATOM      9  C   LIG    1       26.000 -14.064   5.557  0.00  0.00    +0.060 C 
ATOM     10  C   LIG    1       27.162 -13.383   4.824  0.00  0.00    +0.060 C 
ATOM     11  C   LIG    1       26.622 -13.047   3.425  0.00  0.00    +0.070 C 
ENDBRANCH   1   7
BRANCH   1  12
ATOM     12  C   LIG    1       27.060 -17.572   3.818  0.00  0.00    +0.341 C 
ATOM     13  O   LIG    1       26.126 -18.229   3.377  0.00  0.00    -0.247 OA
BRANCH  12  14
ATOM     14  C   LIG    1       28.304 -18.163   4.505  0.00  0.00    +0.253 C 
BRANCH  14  15
ATOM     15  C   LIG    1       27.950 -19.321   5.414  0.00  0.00    -0.008 A 
ATOM     16  C   LIG    1       26.650 -19.854   5.434  0.00  0.00    +0.007 A 
ATOM     17  C   LIG    1       26.343 -20.944   6.251  0.00  0.00    +0.000 A 
ATOM     18  C   LIG    1       27.328 -21.507   7.062  0.00  0.00    +0.000 A 
ATOM     19  C   LIG    1       28.617 -20.979   7.061  0.00  0.00    +0.000 A 
ATOM     20  C   LIG    1       28.927 -19.890   6.246  0.00  0.00    +0.007 A 
ENDBRANCH  14  15
BRANCH  14  21
ATOM     21  O   LIG    1       29.064 -17.215   5.241  0.00  0.00    -0.376 OA
ATOM     22  H   LIG    1       29.203 -17.584   6.132  0.00  0.00    +0.211 HD
ENDBRANCH  14  21
ENDBRANCH  12  14
ENDBRANCH   1  12
TORSDOF 5
ENDMDL
MODEL 4
REMARK VINA RESULT:      -2.1      1.335      2.499
REMARK  Name = *****
REMARK                            x       y       z     vdW  Elec       q    Type
REMARK                         _______ _______ _______ _____ _____    ______ ____
ROOT
ATOM      1  O   LIG    1       26.455 -15.992   3.320  0.00  0.00    -0.459 OA
ENDROOT
BRANCH   1   7
ATOM      2  C   LIG    1       23.855 -11.447   2.966  0.00  0.00    +0.192 C 
ATOM      3  N   LIG    1       24.492 -12.618   3.747  0.00  0.00    +0.243 N 
ATOM      4  C   LIG    1       24.220 -12.295   5.216  0.00  0.00    +0.192 C 
ATOM      5  C   LIG    1       25.978 -12.791   3.376  0.00  0.00    +0.070 C 
ATOM      6  C   LIG    1       26.642 -13.790   4.340  0.00  0.00    +0.099 C 
ATOM      7  C   LIG    1       25.946 -15.160   4.385  0.00  0.00    +0.187 C 
ATOM      8  C   LIG    1       24.418 -15.094   4.210  0.00  0.00    +0.099 C 
ATOM      9  C   LIG    1       25.912 -13.361   1.949  0.00  0.00    +0.060 C 
ATOM     10  C   LIG    1       24.582 -14.122   1.872  0.00  0.00    +0.060 C 
ATOM     11  C   LIG    1       23.946 -13.977   3.263  0.00  0.00    +0.070 C 
ENDBRANCH   1   7
BRANCH   1  12
ATOM     12  C   LIG    1       26.107 -17.315   3.353  0.00  0.00    +0.341 C 
ATOM     13  O   LIG    1       25.006 -17.746   3.036  0.00  0.00    -0.247 OA
BRANCH  12  14
ATOM     14  C   LIG    1       27.282 -18.181   3.839  0.00  0.00    +0.253 C 
BRANCH  14  15
ATOM     15  C   LIG    1       26.825 -19.282   4.773  0.00  0.00    -0.008 A 
ATOM     16  C   LIG    1       27.697 -19.829   5.730  0.00  0.00    +0.007 A 
ATOM     17  C   LIG    1       27.254 -20.819   6.608  0.00  0.00    +0.000 A 
ATOM     18  C   LIG    1       25.940 -21.280   6.535  0.00  0.00    +0.000 A 
ATOM     19  C   LIG    1       25.070 -20.756   5.582  0.00  0.00    +0.000 A 
ATOM     20  C   LIG    1       25.509 -19.766   4.703  0.00  0.00    +0.007 A 
ENDBRANCH  14  15
BRANCH  14  21
ATOM     21  O   LIG    1       28.322 -17.445   4.468  0.00  0.00    -0.376 OA
ATOM     22  H   LIG    1       28.806 -16.971   3.768  0.00  0.00    +0.211 HD
ENDBRANCH  14  21
ENDBRANCH  12  14
ENDBRANCH   1  12
TORSDOF 5
ENDMDL
MODEL 5
REMARK VINA RESULT:      -2.0      2.025      3.208
REMARK  Name = *****
REMARK                            x       y       z     vdW  Elec       q    Type
REMARK                         _______ _______ _______ _____ _____    ______ ____
ROOT
ATOM      1  O   LIG    1       23.244 -15.683   3.968  0.00  0.00    -0.459 OA
ENDROOT
BRANCH   1   7
ATOM      2  C   LIG    1       26.702 -11.970   2.628  0.00  0.00    +0.192 C 
ATOM      3  N   LIG    1       26.249 -13.216   3.422  0.00  0.00    +0.243 N 
ATOM      4  C   LIG    1       27.446 -13.564   4.308  0.00  0.00    +0.192 C 
ATOM      5  C   LIG    1       25.783 -14.339   2.476  0.00  0.00    +0.070 C 
ATOM      6  C   LIG    1       25.576 -15.639   3.273  0.00  0.00    +0.099 C 
ATOM      7  C   LIG    1       24.593 -15.494   4.446  0.00  0.00    +0.187 C 
ATOM      8  C   LIG    1       24.634 -14.117   5.134  0.00  0.00    +0.099 C 
ATOM      9  C   LIG    1       24.445 -13.802   1.939  0.00  0.00    +0.060 C 
ATOM     10  C   LIG    1       23.897 -12.887   3.041  0.00  0.00    +0.060 C 
ATOM     11  C   LIG    1       24.931 -12.950   4.176  0.00  0.00    +0.070 C 
ENDBRANCH   1   7
BRANCH   1  12
ATOM     12  C   LIG    1       22.355 -16.248   4.841  0.00  0.00    +0.341 C 
ATOM     13  O   LIG    1       22.008 -15.737   5.898  0.00  0.00    -0.247 OA
BRANCH  12  14
ATOM     14  C   LIG    1       21.854 -17.605   4.315  0.00  0.00    +0.253 C 
BRANCH  14  15
ATOM     15  C   LIG    1       22.858 -18.712   4.561  0.00  0.00    -0.008 A 
ATOM     16  C   LIG    1       23.952 -18.902   3.701  0.00  0.00    +0.007 A 
ATOM     17  C   LIG    1       24.890 -19.903   3.957  0.00  0.00    +0.000 A 
ATOM     18  C   LIG    1       24.740 -20.731   5.069  0.00  0.00    +0.000 A 
ATOM     19  C   LIG    1       23.652 -20.563   5.922  0.00  0.00    +0.000 A 
ATOM     20  C   LIG    1       22.713 -19.562   5.669  0.00  0.00    +0.007 A 
ENDBRANCH  14  15
BRANCH  14  21
ATOM     21  O   LIG    1       21.504 -17.598   2.938  0.00  0.00    -0.376 OA
ATOM     22  H   LIG    1       22.203 -18.081   2.459  0.00  0.00    +0.211 HD
ENDBRANCH  14  21
ENDBRANCH  12  14
ENDBRANCH   1  12
TORSDOF 5
ENDMDL
MODEL 6
REMARK VINA RESULT:      -1.8      1.541      2.573
REMARK  Name = *****
REMARK                            x       y       z     vdW  Elec       q    Type
REMARK                         _______ _______ _______ _____ _____    ______ ____
ROOT
ATOM      1  O   LIG    1       24.903 -16.233   3.396  0.00  0.00    -0.459 OA
ENDROOT
BRANCH   1   7
ATOM      2  C   LIG    1       27.894 -11.925   3.187  0.00  0.00    +0.192 C 
ATOM      3  N   LIG    1       27.265 -13.139   3.908  0.00  0.00    +0.243 N 
ATOM      4  C   LIG    1       27.781 -13.042   5.344  0.00  0.00    +0.192 C 
ATOM      5  C   LIG    1       27.599 -14.454   3.177  0.00  0.00    +0.070 C 
ATOM      6  C   LIG    1       27.176 -15.653   4.044  0.00  0.00    +0.099 C 
ATOM      7  C   LIG    1       25.692 -15.632   4.445  0.00  0.00    +0.187 C 
ATOM      8  C   LIG    1       25.124 -14.220   4.679  0.00  0.00    +0.099 C 
ATOM      9  C   LIG    1       26.742 -14.365   1.903  0.00  0.00    +0.060 C 
ATOM     10  C   LIG    1       25.532 -13.501   2.280  0.00  0.00    +0.060 C 
ATOM     11  C   LIG    1       25.731 -13.144   3.761  0.00  0.00    +0.070 C 
ENDBRANCH   1   7
BRANCH   1  12
ATOM     12  C   LIG    1       24.012 -17.201   3.772  0.00  0.00    +0.341 C 
ATOM     13  O   LIG    1       22.935 -16.974   4.308  0.00  0.00    -0.247 OA
BRANCH  12  14
ATOM     14  C   LIG    1       24.547 -18.603   3.431  0.00  0.00    +0.253 C 
BRANCH  14  15
ATOM     15  C   LIG    1       24.365 -19.571   4.581  0.00  0.00    -0.008 A 
ATOM     16  C   LIG    1       25.475 -20.144   5.226  0.00  0.00    +0.007 A 
ATOM     17  C   LIG    1       25.297 -21.009   6.307  0.00  0.00    +0.000 A 
ATOM     18  C   LIG    1       24.011 -21.318   6.750  0.00  0.00    +0.000 A 
ATOM     19  C   LIG    1       22.903 -20.768   6.110  0.00  0.00    +0.000 A 
ATOM     20  C   LIG    1       23.077 -19.903   5.029  0.00  0.00    +0.007 A 
ENDBRANCH  14  15
BRANCH  14  21
ATOM     21  O   LIG    1       25.907 -18.620   3.023  0.00  0.00    -0.376 OA
ATOM     22  H   LIG    1       25.923 -18.845   2.075  0.00  0.00    +0.211 HD
ENDBRANCH  14  21
ENDBRANCH  12  14
ENDBRANCH   1  12
TORSDOF 5
ENDMDL
MODEL 7
REMARK VINA RESULT:      -1.7      2.061      2.952
REMARK  Name = *****
REMARK                            x       y       z     vdW  Elec       q    Type
REMARK                         _______ _______ _______ _____ _____    ______ ____
ROOT
ATOM      1  O   LIG    1       23.601 -15.816   4.275  0.00  0.00    -0.459 OA
ENDROOT
BRANCH   1   7
ATOM      2  C   LIG    1       27.645 -12.706   3.046  0.00  0.00    +0.192 C 
ATOM      3  N   LIG    1       26.140 -13.023   3.196  0.00  0.00    +0.243 N 
ATOM      4  C   LIG    1       25.431 -11.750   2.733  0.00  0.00    +0.192 C 
ATOM      5  C   LIG    1       25.808 -13.475   4.632  0.00  0.00    +0.070 C 
ATOM      6  C   LIG    1       24.282 -13.543   4.816  0.00  0.00    +0.099 C 
ATOM      7  C   LIG    1       23.577 -14.454   3.797  0.00  0.00    +0.187 C 
ATOM      8  C   LIG    1       24.228 -14.458   2.402  0.00  0.00    +0.099 C 
ATOM      9  C   LIG    1       26.436 -14.878   4.703  0.00  0.00    +0.060 C 
ATOM     10  C   LIG    1       26.415 -15.411   3.265  0.00  0.00    +0.060 C 
ATOM     11  C   LIG    1       25.758 -14.303   2.427  0.00  0.00    +0.070 C 
ENDBRANCH   1   7
BRANCH   1  12
ATOM     12  C   LIG    1       22.506 -16.243   4.976  0.00  0.00    +0.341 C 
ATOM     13  O   LIG    1       22.004 -15.629   5.909  0.00  0.00    -0.247 OA
BRANCH  12  14
ATOM     14  C   LIG    1       21.995 -17.589   4.433  0.00  0.00    +0.253 C 
BRANCH  14  15
ATOM     15  C   LIG    1       23.032 -18.684   4.571  0.00  0.00    -0.008 A 
ATOM     16  C   LIG    1       22.901 -19.685   5.548  0.00  0.00    +0.007 A 
ATOM     17  C   LIG    1       23.845 -20.709   5.644  0.00  0.00    +0.000 A 
ATOM     18  C   LIG    1       24.934 -20.739   4.773  0.00  0.00    +0.000 A 
ATOM     19  C   LIG    1       25.083 -19.744   3.810  0.00  0.00    +0.000 A 
ATOM     20  C   LIG    1       24.140 -18.719   3.711  0.00  0.00    +0.007 A 
ENDBRANCH  14  15
BRANCH  14  21
ATOM     21  O   LIG    1       21.554 -17.539   3.083  0.00  0.00    -0.376 OA
ATOM     22  H   LIG    1       22.159 -16.945   2.602  0.00  0.00    +0.211 HD
ENDBRANCH  14  21
ENDBRANCH  12  14
ENDBRANCH   1  12
TORSDOF 5
ENDMDL
MODEL 8
REMARK VINA RESULT:      -1.0      2.372      6.577
REMARK  Name = *****
REMARK                            x       y       z     vdW  Elec       q    Type
REMARK                         _______ _______ _______ _____ _____    ______ ____
ROOT
ATOM      1  O   LIG    1       25.046 -17.845   3.393  0.00  0.00    -0.459 OA
ENDROOT
BRANCH   1   7
ATOM      2  C   LIG    1       21.548 -21.500   4.789  0.00  0.00    +0.192 C 
ATOM      3  N   LIG    1       22.918 -20.791   4.879  0.00  0.00    +0.243 N 
ATOM      4  C   LIG    1       23.686 -21.572   5.946  0.00  0.00    +0.192 C 
ATOM      5  C   LIG    1       22.748 -19.285   5.161  0.00  0.00    +0.070 C 
ATOM      6  C   LIG    1       24.115 -18.660   5.489  0.00  0.00    +0.099 C 
ATOM      7  C   LIG    1       25.173 -18.877   4.395  0.00  0.00    +0.187 C 
ATOM      8  C   LIG    1       25.052 -20.226   3.663  0.00  0.00    +0.099 C 
ATOM      9  C   LIG    1       22.201 -18.747   3.828  0.00  0.00    +0.060 C 
ATOM     10  C   LIG    1       22.748 -19.689   2.748  0.00  0.00    +0.060 C 
ATOM     11  C   LIG    1       23.604 -20.719   3.500  0.00  0.00    +0.070 C 
ENDBRANCH   1   7
BRANCH   1  12
ATOM     12  C   LIG    1       26.041 -16.907   3.346  0.00  0.00    +0.341 C 
ATOM     13  O   LIG    1       27.237 -17.172   3.326  0.00  0.00    -0.247 OA
BRANCH  12  14
ATOM     14  C   LIG    1       25.456 -15.484   3.322  0.00  0.00    +0.253 C 
BRANCH  14  15
ATOM     15  C   LIG    1       26.454 -14.454   3.809  0.00  0.00    -0.008 A 
ATOM     16  C   LIG    1       26.419 -13.983   5.132  0.00  0.00    +0.007 A 
ATOM     17  C   LIG    1       27.365 -13.059   5.580  0.00  0.00    +0.000 A 
ATOM     18  C   LIG    1       28.349 -12.590   4.710  0.00  0.00    +0.000 A 
ATOM     19  C   LIG    1       28.385 -13.038   3.393  0.00  0.00    +0.000 A 
ATOM     20  C   LIG    1       27.441 -13.962   2.941  0.00  0.00    +0.007 A 
ENDBRANCH  14  15
BRANCH  14  21
ATOM     21  O   LIG    1       24.250 -15.342   4.058  0.00  0.00    -0.376 OA
ATOM     22  H   LIG    1       24.352 -14.562   4.635  0.00  0.00    +0.211 HD
ENDBRANCH  14  21
ENDBRANCH  12  14
ENDBRANCH   1  12
TORSDOF 5
ENDMDL
MODEL 9
REMARK VINA RESULT:      -0.9      2.210      6.334
REMARK  Name = *****
REMARK                            x       y       z     vdW  Elec       q    Type
REMARK                         _______ _______ _______ _____ _____    ______ ____
ROOT
ATOM      1  O   LIG    1       25.217 -18.198   4.067  0.00  0.00    -0.459 OA
ENDROOT
BRANCH   1   7
ATOM      2  C   LIG    1       21.594 -21.571   5.812  0.00  0.00    +0.192 C 
ATOM      3  N   LIG    1       22.132 -20.504   4.832  0.00  0.00    +0.243 N 
ATOM      4  C   LIG    1       21.006 -20.311   3.816  0.00  0.00    +0.192 C 
ATOM      5  C   LIG    1       23.488 -20.930   4.235  0.00  0.00    +0.070 C 
ATOM      6  C   LIG    1       23.875 -19.978   3.090  0.00  0.00    +0.099 C 
ATOM      7  C   LIG    1       23.921 -18.499   3.505  0.00  0.00    +0.187 C 
ATOM      8  C   LIG    1       22.873 -18.110   4.565  0.00  0.00    +0.099 C 
ATOM      9  C   LIG    1       24.449 -20.779   5.427  0.00  0.00    +0.060 C 
ATOM     10  C   LIG    1       23.843 -19.679   6.308  0.00  0.00    +0.060 C 
ATOM     11  C   LIG    1       22.568 -19.227   5.578  0.00  0.00    +0.070 C 
ENDBRANCH   1   7
BRANCH   1  12
ATOM     12  C   LIG    1       26.064 -17.450   3.295  0.00  0.00    +0.341 C 
ATOM     13  O   LIG    1       26.426 -17.764   2.168  0.00  0.00    -0.247 OA
BRANCH  12  14
ATOM     14  C   LIG    1       26.494 -16.170   4.033  0.00  0.00    +0.253 C 
BRANCH  14  15
ATOM     15  C   LIG    1       25.772 -14.947   3.509  0.00  0.00    -0.008 A 
ATOM     16  C   LIG    1       24.471 -14.635   3.940  0.00  0.00    +0.007 A 
ATOM     17  C   LIG    1       23.827 -13.486   3.477  0.00  0.00    +0.000 A 
ATOM     18  C   LIG    1       24.471 -12.642   2.573  0.00  0.00    +0.000 A 
ATOM     19  C   LIG    1       25.755 -12.947   2.128  0.00  0.00    +0.000 A 
ATOM     20  C   LIG    1       26.401 -14.094   2.589  0.00  0.00    +0.007 A 
ENDBRANCH  14  15
BRANCH  14  21
ATOM     21  O   LIG    1       27.894 -15.928   4.002  0.00  0.00    -0.376 OA
ATOM     22  H   LIG    1       28.329 -16.771   3.778  0.00  0.00    +0.211 HD
ENDBRANCH  14  21
ENDBRANCH  12  14
ENDBRANCH   1  12
TORSDOF 5
ENDMDL
