MODEL 1
REMARK VINA RESULT:      79.2      0.000      0.000
REMARK  Name = *****
REMARK                            x       y       z     vdW  Elec       q    Type
REMARK                         _______ _______ _______ _____ _____    ______ ____
ROOT
ATOM      1  C   LIG    1       22.381 -20.151   3.703  0.00  0.00    +0.270 C 
ATOM      2  C   LIG    1       21.817 -18.487   3.372  0.00  0.00    +0.187 C 
ATOM      3  O   LIG    1       20.938 -18.392   2.486  0.00  0.00    -0.292 OA
ATOM      4  C   LIG    1       22.214 -16.946   4.175  0.00  0.00    +0.066 C 
ATOM      5  C   LIG    1       23.959 -16.358   4.523  0.00  0.00    +0.097 C 
ATOM      6  C   LIG    1       23.839 -14.844   4.948  0.00  0.00    +0.170 C 
ATOM      7  C   LIG    1       23.305 -14.177   3.629  0.00  0.00    +0.167 C 
ATOM      8  C   LIG    1       21.832 -14.341   3.446  0.00  0.00    +0.068 C 
ATOM      9  O   LIG    1       23.785 -12.884   4.073  0.00  0.00    -0.368 OA
ATOM     10  C   LIG    1       24.859 -13.636   4.772  0.00  0.00    +0.211 C 
ATOM     11  C   LIG    1       25.350 -17.118   5.480  0.00  0.00    +0.217 C 
ATOM     12  C   LIG    1       25.543 -18.909   5.983  0.00  0.00    +0.116 C 
ATOM     13  C   LIG    1       24.948 -20.529   5.306  0.00  0.00    +0.023 C 
ATOM     14  C   LIG    1       25.037 -21.568   6.545  0.00  0.00    +0.019 C 
ATOM     15  C   LIG    1       25.961 -21.277   4.391  0.00  0.00    +0.019 C 
ATOM     16  C   LIG    1       24.488 -18.756   6.978  0.00  0.00    +0.088 C 
ATOM     17  C   LIG    1       23.468 -18.689   5.891  0.00  0.00    +0.205 C 
ATOM     18  C   LIG    1       22.680 -19.925   5.970  0.00  0.00    -0.029 C 
ATOM     19  C   LIG    1       21.297 -19.926   6.514  0.00  0.00    +0.043 C 
ATOM     20  C   LIG    1       21.094 -16.788   5.297  0.00  0.00    +0.022 C 
ATOM     21  C   LIG    1       21.603 -15.833   3.111  0.00  0.00    +0.131 C 
ATOM     22  C   LIG    1       23.240 -20.614   4.975  0.00  0.00    -0.011 C 
ENDROOT
BRANCH  21  23
ATOM     23  O   LIG    1       20.175 -15.935   2.972  0.00  0.00    -0.391 OA
ATOM     24  H   LIG    1       19.995 -16.220   2.051  0.00  0.00    +0.210 HD
ENDBRANCH  21  23
BRANCH  12  25
ATOM     25  O   LIG    1       26.734 -19.141   6.705  0.00  0.00    -0.384 OA
ATOM     26  H   LIG    1       26.715 -20.074   6.993  0.00  0.00    +0.210 HD
ENDBRANCH  12  25
BRANCH  17  27
ATOM     27  O   LIG    1       24.054 -18.592   4.169  0.00  0.00    -0.455 OA
BRANCH  27  28
ATOM     28  C   LIG    1       24.926 -18.042   3.182  0.00  0.00    +0.339 C 
ATOM     29  O   LIG    1       24.796 -16.912   2.724  0.00  0.00    -0.248 OA
BRANCH  28  30
ATOM     30  C   LIG    1       25.970 -19.024   2.512  0.00  0.00    +0.247 C 
BRANCH  30  31
ATOM     31  O   LIG    1       25.909 -20.374   2.935  0.00  0.00    -0.379 OA
ATOM     32  H   LIG    1       25.463 -20.900   2.245  0.00  0.00    +0.211 HD
ENDBRANCH  30  31
BRANCH  30  33
ATOM     33  C   LIG    1       27.468 -18.490   2.606  0.00  0.00    +0.143 C 
BRANCH  33  34
ATOM     34  C   LIG    1       28.188 -18.903   3.910  0.00  0.00    -0.024 A 
ATOM     35  C   LIG    1       28.820 -17.924   4.702  0.00  0.00    +0.005 A 
ATOM     36  C   LIG    1       29.447 -18.259   5.910  0.00  0.00    +0.000 A 
ATOM     37  C   LIG    1       29.474 -19.581   6.344  0.00  0.00    +0.000 A 
ATOM     38  C   LIG    1       28.834 -20.562   5.594  0.00  0.00    +0.000 A 
ATOM     39  C   LIG    1       28.188 -20.226   4.396  0.00  0.00    +0.005 A 
ENDBRANCH  33  34
BRANCH  33  40
ATOM     40  N   LIG    1       27.560 -17.022   2.456  0.00  0.00    -0.301 N 
ATOM     41  H   LIG    1       28.297 -16.692   1.846  0.00  0.00    +0.150 HD
ATOM     42  C   LIG    1       26.641 -16.111   2.912  0.00  0.00    +0.245 C 
ATOM     43  O   LIG    1       25.628 -16.434   3.567  0.00  0.00    -0.270 OA
BRANCH  42  44
ATOM     44  C   LIG    1       26.883 -14.664   2.583  0.00  0.00    +0.037 A 
ATOM     45  C   LIG    1       25.897 -13.878   1.964  0.00  0.00    +0.013 A 
ATOM     46  C   LIG    1       26.077 -12.496   1.818  0.00  0.00    +0.001 A 
ATOM     47  C   LIG    1       27.240 -11.883   2.279  0.00  0.00    +0.000 A 
ATOM     48  C   LIG    1       28.257 -12.663   2.826  0.00  0.00    +0.001 A 
ATOM     49  C   LIG    1       28.086 -14.046   2.965  0.00  0.00    +0.013 A 
ENDBRANCH  42  44
ENDBRANCH  33  40
ENDBRANCH  30  33
ENDBRANCH  28  30
ENDBRANCH  27  28
ENDBRANCH  17  27
BRANCH  11  50
ATOM     50  O   LIG    1       26.678 -16.659   5.032  0.00  0.00    -0.455 OA
BRANCH  50  51
ATOM     51  C   LIG    1       27.491 -16.200   6.049  0.00  0.00    +0.340 C 
ATOM     52  O   LIG    1       28.281 -16.907   6.658  0.00  0.00    -0.245 OA
BRANCH  51  53
ATOM     53  C   LIG    1       27.465 -14.709   6.193  0.00  0.00    +0.059 A 
ATOM     54  C   LIG    1       28.579 -13.950   5.771  0.00  0.00    +0.015 A 
ATOM     55  C   LIG    1       28.457 -12.568   5.568  0.00  0.00    +0.001 A 
ATOM     56  C   LIG    1       27.230 -11.944   5.786  0.00  0.00    +0.000 A 
ATOM     57  C   LIG    1       26.154 -12.679   6.286  0.00  0.00    +0.001 A 
ATOM     58  C   LIG    1       26.284 -14.051   6.530  0.00  0.00    +0.015 A 
ENDBRANCH  51  53
ENDBRANCH  50  51
ENDBRANCH  11  50
BRANCH   6  59
ATOM     59  O   LIG    1       22.930 -14.758   6.081  0.00  0.00    -0.453 OA
BRANCH  59  60
ATOM     60  C   LIG    1       22.167 -13.629   6.200  0.00  0.00    +0.305 C 
ATOM     61  O   LIG    1       20.981 -13.584   6.197  0.00  0.00    -0.251 OA
ATOM     62  C   LIG    1       23.064 -12.421   6.255  0.00  0.00    +0.136 C 
ENDBRANCH  59  60
ENDBRANCH   6  59
BRANCH   1  63
ATOM     63  O   LIG    1       21.151 -20.945   3.840  0.00  0.00    -0.449 OA
BRANCH  63  65
ATOM     64  C   LIG    1       19.478 -19.328   4.171  0.00  0.00    +0.136 C 
ATOM     65  C   LIG    1       20.016 -20.431   3.296  0.00  0.00    +0.305 C 
ATOM     66  O   LIG    1       19.440 -20.873   2.315  0.00  0.00    -0.251 OA
ENDBRANCH  63  65
ENDBRANCH   1  63
TORSDOF 17
ENDMDL
MODEL 2
REMARK VINA RESULT:      79.4      0.759      1.043
REMARK  Name = *****
REMARK                            x       y       z     vdW  Elec       q    Type
REMARK                         _______ _______ _______ _____ _____    ______ ____
ROOT
ATOM      1  C   LIG    1       22.213 -19.842   3.783  0.00  0.00    +0.270 C 
ATOM      2  C   LIG    1       21.865 -18.144   3.347  0.00  0.00    +0.187 C 
ATOM      3  O   LIG    1       21.032 -17.993   2.424  0.00  0.00    -0.292 OA
ATOM      4  C   LIG    1       22.421 -16.619   4.084  0.00  0.00    +0.066 C 
ATOM      5  C   LIG    1       24.213 -16.225   4.466  0.00  0.00    +0.097 C 
ATOM      6  C   LIG    1       24.264 -14.686   4.808  0.00  0.00    +0.170 C 
ATOM      7  C   LIG    1       23.855 -14.034   3.437  0.00  0.00    +0.167 C 
ATOM      8  C   LIG    1       22.380 -14.031   3.209  0.00  0.00    +0.068 C 
ATOM      9  O   LIG    1       24.475 -12.785   3.832  0.00  0.00    -0.368 OA
ATOM     10  C   LIG    1       25.428 -13.620   4.608  0.00  0.00    +0.211 C 
ATOM     11  C   LIG    1       25.471 -17.091   5.511  0.00  0.00    +0.217 C 
ATOM     12  C   LIG    1       25.431 -18.862   6.112  0.00  0.00    +0.116 C 
ATOM     13  C   LIG    1       24.665 -20.434   5.497  0.00  0.00    +0.023 C 
ATOM     14  C   LIG    1       24.590 -21.406   6.790  0.00  0.00    +0.019 C 
ATOM     15  C   LIG    1       25.608 -21.348   4.660  0.00  0.00    +0.019 C 
ATOM     16  C   LIG    1       24.372 -18.529   7.058  0.00  0.00    +0.088 C 
ATOM     17  C   LIG    1       23.401 -18.402   5.932  0.00  0.00    +0.205 C 
ATOM     18  C   LIG    1       22.468 -19.529   6.044  0.00  0.00    -0.029 C 
ATOM     19  C   LIG    1       21.078 -19.334   6.536  0.00  0.00    +0.043 C 
ATOM     20  C   LIG    1       21.294 -16.267   5.153  0.00  0.00    +0.022 C 
ATOM     21  C   LIG    1       21.982 -15.502   2.942  0.00  0.00    +0.131 C 
ATOM     22  C   LIG    1       22.970 -20.333   5.107  0.00  0.00    -0.011 C 
ENDROOT
BRANCH  21  23
ATOM     23  O   LIG    1       20.557 -15.440   2.756  0.00  0.00    -0.391 OA
ATOM     24  H   LIG    1       20.284 -16.286   2.341  0.00  0.00    +0.210 HD
ENDBRANCH  21  23
BRANCH  12  25
ATOM     25  O   LIG    1       26.562 -19.194   6.889  0.00  0.00    -0.384 OA
ATOM     26  H   LIG    1       27.347 -18.902   6.388  0.00  0.00    +0.210 HD
ENDBRANCH  12  25
BRANCH  17  27
ATOM     27  O   LIG    1       24.047 -18.470   4.230  0.00  0.00    -0.455 OA
BRANCH  27  28
ATOM     28  C   LIG    1       25.023 -18.102   3.255  0.00  0.00    +0.339 C 
ATOM     29  O   LIG    1       25.002 -17.033   2.654  0.00  0.00    -0.248 OA
BRANCH  28  30
ATOM     30  C   LIG    1       26.041 -19.220   2.793  0.00  0.00    +0.247 C 
BRANCH  30  31
ATOM     31  O   LIG    1       25.761 -20.535   3.239  0.00  0.00    -0.379 OA
ATOM     32  H   LIG    1       25.179 -20.970   2.588  0.00  0.00    +0.211 HD
ENDBRANCH  30  31
BRANCH  30  33
ATOM     33  C   LIG    1       27.556 -18.847   3.117  0.00  0.00    +0.143 C 
BRANCH  33  34
ATOM     34  C   LIG    1       28.081 -19.482   4.424  0.00  0.00    -0.024 A 
ATOM     35  C   LIG    1       29.003 -18.779   5.224  0.00  0.00    +0.005 A 
ATOM     36  C   LIG    1       29.469 -19.309   6.435  0.00  0.00    +0.000 A 
ATOM     37  C   LIG    1       29.039 -20.561   6.865  0.00  0.00    +0.000 A 
ATOM     38  C   LIG    1       28.107 -21.263   6.107  0.00  0.00    +0.000 A 
ATOM     39  C   LIG    1       27.625 -20.725   4.906  0.00  0.00    +0.005 A 
ENDBRANCH  33  34
BRANCH  33  40
ATOM     40  N   LIG    1       27.783 -17.387   3.173  0.00  0.00    -0.301 N 
ATOM     41  H   LIG    1       28.696 -17.101   3.503  0.00  0.00    +0.150 HD
ATOM     42  C   LIG    1       26.953 -16.426   2.653  0.00  0.00    +0.245 C 
ATOM     43  O   LIG    1       25.861 -16.691   2.109  0.00  0.00    -0.270 OA
BRANCH  42  44
ATOM     44  C   LIG    1       27.411 -14.997   2.744  0.00  0.00    +0.037 A 
ATOM     45  C   LIG    1       28.422 -14.606   3.638  0.00  0.00    +0.013 A 
ATOM     46  C   LIG    1       28.950 -13.309   3.591  0.00  0.00    +0.001 A 
ATOM     47  C   LIG    1       28.476 -12.387   2.661  0.00  0.00    +0.000 A 
ATOM     48  C   LIG    1       27.422 -12.739   1.820  0.00  0.00    +0.001 A 
ATOM     49  C   LIG    1       26.884 -14.031   1.870  0.00  0.00    +0.013 A 
ENDBRANCH  42  44
ENDBRANCH  33  40
ENDBRANCH  30  33
ENDBRANCH  28  30
ENDBRANCH  27  28
ENDBRANCH  17  27
BRANCH  11  50
ATOM     50  O   LIG    1       26.858 -16.819   5.090  0.00  0.00    -0.455 OA
BRANCH  50  51
ATOM     51  C   LIG    1       27.684 -16.382   6.106  0.00  0.00    +0.340 C 
ATOM     52  O   LIG    1       28.482 -17.100   6.690  0.00  0.00    -0.245 OA
BRANCH  51  53
ATOM     53  C   LIG    1       27.657 -14.894   6.284  0.00  0.00    +0.059 A 
ATOM     54  C   LIG    1       28.770 -14.243   6.859  0.00  0.00    +0.015 A 
ATOM     55  C   LIG    1       28.926 -12.856   6.723  0.00  0.00    +0.001 A 
ATOM     56  C   LIG    1       27.975 -12.120   6.018  0.00  0.00    +0.000 A 
ATOM     57  C   LIG    1       26.831 -12.752   5.528  0.00  0.00    +0.001 A 
ATOM     58  C   LIG    1       26.651 -14.129   5.697  0.00  0.00    +0.015 A 
ENDBRANCH  51  53
ENDBRANCH  50  51
ENDBRANCH  11  50
BRANCH   6  59
ATOM     59  O   LIG    1       23.338 -14.430   5.901  0.00  0.00    -0.453 OA
BRANCH  59  60
ATOM     60  C   LIG    1       22.922 -13.141   6.093  0.00  0.00    +0.305 C 
ATOM     61  O   LIG    1       21.890 -12.679   5.735  0.00  0.00    -0.251 OA
ATOM     62  C   LIG    1       24.017 -12.356   6.766  0.00  0.00    +0.136 C 
ENDBRANCH  59  60
ENDBRANCH   6  59
BRANCH   1  63
ATOM     63  O   LIG    1       20.892 -20.474   3.915  0.00  0.00    -0.449 OA
BRANCH  63  65
ATOM     64  C   LIG    1       19.352 -20.267   2.152  0.00  0.00    +0.136 C 
ATOM     65  C   LIG    1       19.816 -19.759   3.494  0.00  0.00    +0.305 C 
ATOM     66  O   LIG    1       19.363 -18.771   4.048  0.00  0.00    -0.251 OA
ENDBRANCH  63  65
ENDBRANCH   1  63
TORSDOF 17
ENDMDL
MODEL 3
REMARK VINA RESULT:      79.9      1.034      1.678
REMARK  Name = *****
REMARK                            x       y       z     vdW  Elec       q    Type
REMARK                         _______ _______ _______ _____ _____    ______ ____
ROOT
ATOM      1  C   LIG    1       22.351 -20.421   3.603  0.00  0.00    +0.270 C 
ATOM      2  C   LIG    1       21.706 -18.887   2.951  0.00  0.00    +0.187 C 
ATOM      3  O   LIG    1       20.981 -19.005   1.937  0.00  0.00    -0.292 OA
ATOM      4  C   LIG    1       21.828 -17.219   3.571  0.00  0.00    +0.066 C 
ATOM      5  C   LIG    1       23.433 -16.403   4.090  0.00  0.00    +0.097 C 
ATOM      6  C   LIG    1       23.111 -14.869   4.265  0.00  0.00    +0.170 C 
ATOM      7  C   LIG    1       22.746 -14.442   2.797  0.00  0.00    +0.167 C 
ATOM      8  C   LIG    1       21.344 -14.790   2.419  0.00  0.00    +0.068 C 
ATOM      9  O   LIG    1       23.031 -13.058   3.115  0.00  0.00    -0.368 OA
ATOM     10  C   LIG    1       24.036 -13.589   4.071  0.00  0.00    +0.211 C 
ATOM     11  C   LIG    1       24.707 -16.874   5.347  0.00  0.00    +0.217 C 
ATOM     12  C   LIG    1       24.971 -18.552   6.130  0.00  0.00    +0.116 C 
ATOM     13  C   LIG    1       24.641 -20.302   5.614  0.00  0.00    +0.023 C 
ATOM     14  C   LIG    1       24.615 -21.154   6.991  0.00  0.00    +0.019 C 
ATOM     15  C   LIG    1       25.854 -21.046   4.983  0.00  0.00    +0.019 C 
ATOM     16  C   LIG    1       23.756 -18.387   6.920  0.00  0.00    +0.088 C 
ATOM     17  C   LIG    1       22.928 -18.576   5.693  0.00  0.00    +0.205 C 
ATOM     18  C   LIG    1       22.250 -19.870   5.831  0.00  0.00    -0.029 C 
ATOM     19  C   LIG    1       20.801 -19.952   6.153  0.00  0.00    +0.043 C 
ATOM     20  C   LIG    1       20.527 -17.041   4.474  0.00  0.00    +0.022 C 
ATOM     21  C   LIG    1       21.306 -16.329   2.275  0.00  0.00    +0.131 C 
ATOM     22  C   LIG    1       23.025 -20.617   5.044  0.00  0.00    -0.011 C 
ENDROOT
BRANCH  21  23
ATOM     23  O   LIG    1       19.935 -16.605   1.937  0.00  0.00    -0.391 OA
ATOM     24  H   LIG    1       19.919 -16.871   0.993  0.00  0.00    +0.210 HD
ENDBRANCH  21  23
BRANCH  12  25
ATOM     25  O   LIG    1       26.041 -18.555   7.051  0.00  0.00    -0.384 OA
ATOM     26  H   LIG    1       25.844 -17.871   7.718  0.00  0.00    +0.210 HD
ENDBRANCH  12  25
BRANCH  17  27
ATOM     27  O   LIG    1       23.781 -18.639   4.085  0.00  0.00    -0.455 OA
BRANCH  27  28
ATOM     28  C   LIG    1       24.779 -18.155   3.186  0.00  0.00    +0.339 C 
ATOM     29  O   LIG    1       24.697 -17.075   2.610  0.00  0.00    -0.248 OA
BRANCH  28  30
ATOM     30  C   LIG    1       25.926 -19.160   2.769  0.00  0.00    +0.247 C 
BRANCH  30  31
ATOM     31  O   LIG    1       25.824 -20.469   3.299  0.00  0.00    -0.379 OA
ATOM     32  H   LIG    1       25.326 -21.025   2.670  0.00  0.00    +0.211 HD
ENDBRANCH  30  31
BRANCH  30  33
ATOM     33  C   LIG    1       27.385 -18.577   3.034  0.00  0.00    +0.143 C 
BRANCH  33  34
ATOM     34  C   LIG    1       27.950 -18.943   4.425  0.00  0.00    -0.024 A 
ATOM     35  C   LIG    1       27.973 -20.289   4.840  0.00  0.00    +0.005 A 
ATOM     36  C   LIG    1       28.514 -20.660   6.078  0.00  0.00    +0.000 A 
ATOM     37  C   LIG    1       29.026 -19.693   6.938  0.00  0.00    +0.000 A 
ATOM     38  C   LIG    1       29.041 -18.361   6.541  0.00  0.00    +0.000 A 
ATOM     39  C   LIG    1       28.519 -17.990   5.293  0.00  0.00    +0.005 A 
ENDBRANCH  33  34
BRANCH  33  40
ATOM     40  N   LIG    1       27.451 -17.109   2.864  0.00  0.00    -0.301 N 
ATOM     41  H   LIG    1       26.731 -16.707   2.277  0.00  0.00    +0.150 HD
ATOM     42  C   LIG    1       28.265 -16.257   3.567  0.00  0.00    +0.245 C 
ATOM     43  O   LIG    1       29.098 -16.651   4.409  0.00  0.00    -0.270 OA
BRANCH  42  44
ATOM     44  C   LIG    1       28.117 -14.785   3.298  0.00  0.00    +0.037 A 
ATOM     45  C   LIG    1       29.053 -13.854   3.778  0.00  0.00    +0.013 A 
ATOM     46  C   LIG    1       28.991 -12.513   3.378  0.00  0.00    +0.001 A 
ATOM     47  C   LIG    1       27.997 -12.082   2.504  0.00  0.00    +0.000 A 
ATOM     48  C   LIG    1       27.019 -12.979   2.080  0.00  0.00    +0.001 A 
ATOM     49  C   LIG    1       27.070 -14.319   2.485  0.00  0.00    +0.013 A 
ENDBRANCH  42  44
ENDBRANCH  33  40
ENDBRANCH  30  33
ENDBRANCH  28  30
ENDBRANCH  27  28
ENDBRANCH  17  27
BRANCH  11  50
ATOM     50  O   LIG    1       26.045 -16.333   5.044  0.00  0.00    -0.455 OA
BRANCH  50  51
ATOM     51  C   LIG    1       26.032 -15.100   4.425  0.00  0.00    +0.340 C 
ATOM     52  O   LIG    1       25.911 -14.947   3.218  0.00  0.00    -0.245 OA
BRANCH  51  53
ATOM     53  C   LIG    1       25.971 -13.958   5.393  0.00  0.00    +0.059 A 
ATOM     54  C   LIG    1       27.086 -13.102   5.530  0.00  0.00    +0.015 A 
ATOM     55  C   LIG    1       26.945 -11.851   6.147  0.00  0.00    +0.001 A 
ATOM     56  C   LIG    1       25.698 -11.453   6.627  0.00  0.00    +0.000 A 
ATOM     57  C   LIG    1       24.618 -12.336   6.570  0.00  0.00    +0.001 A 
ATOM     58  C   LIG    1       24.764 -13.602   5.993  0.00  0.00    +0.015 A 
ENDBRANCH  51  53
ENDBRANCH  50  51
ENDBRANCH  11  50
BRANCH   6  59
ATOM     59  O   LIG    1       22.023 -14.737   5.223  0.00  0.00    -0.453 OA
BRANCH  59  60
ATOM     60  C   LIG    1       21.806 -15.776   6.085  0.00  0.00    +0.305 C 
ATOM     61  O   LIG    1       22.635 -16.496   6.534  0.00  0.00    -0.251 OA
ATOM     62  C   LIG    1       20.327 -15.927   6.327  0.00  0.00    +0.136 C 
ENDBRANCH  59  60
ENDBRANCH   6  59
BRANCH   1  63
ATOM     63  O   LIG    1       21.190 -21.320   3.666  0.00  0.00    -0.449 OA
BRANCH  63  65
ATOM     64  C   LIG    1       19.456 -19.737   3.624  0.00  0.00    +0.136 C 
ATOM     65  C   LIG    1       20.078 -20.949   2.980  0.00  0.00    +0.305 C 
ATOM     66  O   LIG    1       19.578 -21.569   2.055  0.00  0.00    -0.251 OA
ENDBRANCH  63  65
ENDBRANCH   1  63
TORSDOF 17
ENDMDL
