MODEL 1
REMARK VINA RESULT:      -6.9      0.000      0.000
REMARK  Name = *****
REMARK                            x       y       z     vdW  Elec       q    Type
REMARK                         _______ _______ _______ _____ _____    ______ ____
ROOT
ATOM      1  C   LIG    1       28.418 -20.218   6.081  0.00  0.00    +0.113 C 
ENDROOT
BRANCH   1   2
ATOM      2  C   LIG    1       29.574 -19.242   6.343  0.00  0.00    +0.233 C 
BRANCH   2   3
ATOM      3  N   LIG    1       30.678 -19.884   7.069  0.00  0.00    -0.233 N 
ATOM      4  H   LIG    1       31.485 -20.068   6.480  0.00  0.00    +0.291 HD
BRANCH   3   5
ATOM      5  C   LIG    1       31.090 -19.639   8.377  0.00  0.00    +0.326 C 
ATOM      6  C   LIG    1       30.955 -18.405   8.910  0.00  0.00    +0.474 C 
BRANCH   5   8
ATOM      7  C   LIG    1       31.099 -22.051   9.199  0.00  0.00    +0.273 C 
ATOM      8  N   LIG    1       31.598 -20.704   9.094  0.00  0.00    -0.236 N 
ATOM      9  H   LIG    1       32.499 -20.549   9.549  0.00  0.00    +0.291 HD
ENDBRANCH   5   8
BRANCH   6  10
ATOM     10  N   LIG    1       31.443 -18.045  10.214  0.00  0.00    +0.080 N 
ATOM     11  O   LIG    1       30.781 -18.385  11.217  0.00  0.00    -0.576 OA
ATOM     12  O   LIG    1       32.524 -17.467  10.246  0.00  0.00    +0.041 OA
ENDBRANCH   6  10
ENDBRANCH   3   5
ENDBRANCH   2   3
ENDBRANCH   1   2
BRANCH   1  13
ATOM     13  S   LIG    1       27.294 -20.280   7.529  0.00  0.00    -0.151 S 
BRANCH  13  14
ATOM     14  C   LIG    1       27.199 -22.085   7.771  0.00  0.00    +0.125 C 
BRANCH  14  15
ATOM     15  C   LIG    1       25.884 -22.675   7.369  0.00  0.00    +0.059 A 
ATOM     16  N   LIG    1       25.848 -23.952   6.812  0.00  0.00    -0.247 NA
ATOM     17  C   LIG    1       24.605 -24.287   6.516  0.00  0.00    +0.092 A 
ATOM     18  S   LIG    1       23.435 -23.049   6.785  0.00  0.00    -0.079 S 
ATOM     19  C   LIG    1       24.651 -22.060   7.466  0.00  0.00    +0.071 A 
BRANCH  17  20
ATOM     20  C   LIG    1       24.166 -25.642   5.989  0.00  0.00    +0.146 C 
BRANCH  20  21
ATOM     21  N   LIG    1       25.184 -26.719   6.036  0.00  0.00    -0.302 NA
ATOM     22  C   LIG    1       25.881 -26.885   4.762  0.00  0.00    +0.105 C 
ATOM     23  C   LIG    1       24.610 -27.990   6.477  0.00  0.00    +0.105 C 
ENDBRANCH  20  21
ENDBRANCH  17  20
ENDBRANCH  14  15
ENDBRANCH  13  14
ENDBRANCH   1  13
TORSDOF 10
ENDMDL
MODEL 2
REMARK VINA RESULT:      -6.8      2.050      3.430
REMARK  Name = *****
REMARK                            x       y       z     vdW  Elec       q    Type
REMARK                         _______ _______ _______ _____ _____    ______ ____
ROOT
ATOM      1  C   LIG    1       28.647 -19.731   6.048  0.00  0.00    +0.113 C 
ENDROOT
BRANCH   1   2
ATOM      2  C   LIG    1       29.985 -19.009   6.259  0.00  0.00    +0.233 C 
BRANCH   2   3
ATOM      3  N   LIG    1       30.908 -19.799   7.084  0.00  0.00    -0.233 N 
ATOM      4  H   LIG    1       31.717 -20.131   6.567  0.00  0.00    +0.291 HD
BRANCH   3   5
ATOM      5  C   LIG    1       31.251 -19.584   8.417  0.00  0.00    +0.326 C 
ATOM      6  C   LIG    1       31.137 -18.350   8.956  0.00  0.00    +0.474 C 
BRANCH   5   8
ATOM      7  C   LIG    1       31.124 -22.008   9.194  0.00  0.00    +0.273 C 
ATOM      8  N   LIG    1       31.671 -20.676   9.151  0.00  0.00    -0.236 N 
ATOM      9  H   LIG    1       32.541 -20.557   9.673  0.00  0.00    +0.291 HD
ENDBRANCH   5   8
BRANCH   6  10
ATOM     10  N   LIG    1       31.561 -18.023  10.290  0.00  0.00    +0.080 N 
ATOM     11  O   LIG    1       32.624 -17.387  10.444  0.00  0.00    -0.576 OA
ATOM     12  O   LIG    1       30.802 -18.355  11.195  0.00  0.00    +0.041 OA
ENDBRANCH   6  10
ENDBRANCH   3   5
ENDBRANCH   2   3
ENDBRANCH   1   2
BRANCH   1  13
ATOM     13  S   LIG    1       27.864 -20.110   7.662  0.00  0.00    -0.151 S 
BRANCH  13  14
ATOM     14  C   LIG    1       27.654 -21.913   7.490  0.00  0.00    +0.125 C 
BRANCH  14  15
ATOM     15  C   LIG    1       26.289 -22.317   7.029  0.00  0.00    +0.059 A 
ATOM     16  N   LIG    1       25.441 -21.358   6.479  0.00  0.00    -0.247 NA
ATOM     17  C   LIG    1       24.285 -21.906   6.146  0.00  0.00    +0.092 A 
ATOM     18  S   LIG    1       24.119 -23.567   6.579  0.00  0.00    -0.079 S 
ATOM     19  C   LIG    1       25.740 -23.581   7.117  0.00  0.00    +0.071 A 
BRANCH  17  20
ATOM     20  C   LIG    1       23.154 -21.194   5.426  0.00  0.00    +0.146 C 
BRANCH  20  21
ATOM     21  N   LIG    1       23.501 -19.901   4.788  0.00  0.00    -0.302 NA
ATOM     22  C   LIG    1       22.357 -18.995   4.702  0.00  0.00    +0.105 C 
ATOM     23  C   LIG    1       24.106 -20.092   3.470  0.00  0.00    +0.105 C 
ENDBRANCH  20  21
ENDBRANCH  17  20
ENDBRANCH  14  15
ENDBRANCH  13  14
ENDBRANCH   1  13
TORSDOF 10
ENDMDL
MODEL 3
REMARK VINA RESULT:      -6.8      1.096      1.498
REMARK  Name = *****
REMARK                            x       y       z     vdW  Elec       q    Type
REMARK                         _______ _______ _______ _____ _____    ______ ____
ROOT
ATOM      1  C   LIG    1       27.964 -21.077   7.996  0.00  0.00    +0.113 C 
ENDROOT
BRANCH   1   2
ATOM      2  C   LIG    1       28.445 -20.413   6.699  0.00  0.00    +0.233 C 
BRANCH   2   3
ATOM      3  N   LIG    1       29.910 -20.338   6.633  0.00  0.00    -0.233 N 
ATOM      4  H   LIG    1       30.253 -20.070   5.715  0.00  0.00    +0.291 HD
BRANCH   3   5
ATOM      5  C   LIG    1       30.782 -19.881   7.618  0.00  0.00    +0.326 C 
ATOM      6  C   LIG    1       30.773 -18.578   7.979  0.00  0.00    +0.474 C 
BRANCH   5   8
ATOM      7  C   LIG    1       31.272 -21.886   9.112  0.00  0.00    +0.273 C 
ATOM      8  N   LIG    1       31.610 -20.809   8.217  0.00  0.00    -0.236 N 
ATOM      9  H   LIG    1       32.589 -20.792   7.924  0.00  0.00    +0.291 HD
ENDBRANCH   5   8
BRANCH   6  10
ATOM     10  N   LIG    1       31.704 -18.007   8.914  0.00  0.00    +0.080 N 
ATOM     11  O   LIG    1       31.947 -18.624   9.971  0.00  0.00    -0.576 OA
ATOM     12  O   LIG    1       32.243 -16.960   8.570  0.00  0.00    +0.041 OA
ENDBRANCH   6  10
ENDBRANCH   3   5
ENDBRANCH   2   3
ENDBRANCH   1   2
BRANCH   1  13
ATOM     13  S   LIG    1       26.292 -20.468   8.443  0.00  0.00    -0.151 S 
BRANCH  13  14
ATOM     14  C   LIG    1       25.405 -20.832   6.892  0.00  0.00    +0.125 C 
BRANCH  14  15
ATOM     15  C   LIG    1       24.903 -22.238   6.804  0.00  0.00    +0.059 A 
ATOM     16  N   LIG    1       25.816 -23.289   6.739  0.00  0.00    -0.247 NA
ATOM     17  C   LIG    1       25.180 -24.444   6.655  0.00  0.00    +0.092 A 
ATOM     18  S   LIG    1       23.464 -24.321   6.536  0.00  0.00    -0.079 S 
ATOM     19  C   LIG    1       23.579 -22.630   6.749  0.00  0.00    +0.071 A 
BRANCH  17  20
ATOM     20  C   LIG    1       25.842 -25.811   6.670  0.00  0.00    +0.146 C 
BRANCH  20  21
ATOM     21  N   LIG    1       25.275 -26.818   5.741  0.00  0.00    -0.302 NA
ATOM     22  C   LIG    1       24.672 -27.949   6.444  0.00  0.00    +0.105 C 
ATOM     23  C   LIG    1       26.268 -27.284   4.774  0.00  0.00    +0.105 C 
ENDBRANCH  20  21
ENDBRANCH  17  20
ENDBRANCH  14  15
ENDBRANCH  13  14
ENDBRANCH   1  13
TORSDOF 10
ENDMDL
MODEL 4
REMARK VINA RESULT:      -6.8      1.532      2.086
REMARK  Name = *****
REMARK                            x       y       z     vdW  Elec       q    Type
REMARK                         _______ _______ _______ _____ _____    ______ ____
ROOT
ATOM      1  C   LIG    1       27.186 -20.031   6.100  0.00  0.00    +0.113 C 
ENDROOT
BRANCH   1   2
ATOM      2  C   LIG    1       28.716 -20.144   6.049  0.00  0.00    +0.233 C 
BRANCH   2   3
ATOM      3  N   LIG    1       29.357 -19.377   7.126  0.00  0.00    -0.233 N 
ATOM      4  H   LIG    1       28.767 -18.635   7.490  0.00  0.00    +0.291 HD
BRANCH   3   5
ATOM      5  C   LIG    1       30.188 -19.862   8.134  0.00  0.00    +0.326 C 
ATOM      6  C   LIG    1       30.376 -21.192   8.276  0.00  0.00    +0.474 C 
BRANCH   5   8
ATOM      7  C   LIG    1       31.528 -17.737   8.563  0.00  0.00    +0.273 C 
ATOM      8  N   LIG    1       30.821 -18.934   8.938  0.00  0.00    -0.236 N 
ATOM      9  H   LIG    1       30.703 -19.060   9.945  0.00  0.00    +0.291 HD
ENDBRANCH   5   8
BRANCH   6  10
ATOM     10  N   LIG    1       31.136 -21.777   9.347  0.00  0.00    +0.080 N 
ATOM     11  O   LIG    1       30.567 -22.571  10.123  0.00  0.00    -0.576 OA
ATOM     12  O   LIG    1       32.327 -21.486   9.386  0.00  0.00    +0.041 OA
ENDBRANCH   6  10
ENDBRANCH   3   5
ENDBRANCH   2   3
ENDBRANCH   1   2
BRANCH   1  13
ATOM     13  S   LIG    1       26.570 -20.449   7.775  0.00  0.00    -0.151 S 
BRANCH  13  14
ATOM     14  C   LIG    1       26.775 -22.261   7.738  0.00  0.00    +0.125 C 
BRANCH  14  15
ATOM     15  C   LIG    1       25.543 -22.995   7.311  0.00  0.00    +0.059 A 
ATOM     16  N   LIG    1       25.657 -24.291   6.811  0.00  0.00    -0.247 NA
ATOM     17  C   LIG    1       24.466 -24.760   6.481  0.00  0.00    +0.092 A 
ATOM     18  S   LIG    1       23.171 -23.634   6.647  0.00  0.00    -0.079 S 
ATOM     19  C   LIG    1       24.252 -22.502   7.330  0.00  0.00    +0.071 A 
BRANCH  17  20
ATOM     20  C   LIG    1       24.185 -26.173   6.000  0.00  0.00    +0.146 C 
BRANCH  20  21
ATOM     21  N   LIG    1       25.276 -27.157   6.198  0.00  0.00    -0.302 NA
ATOM     22  C   LIG    1       26.062 -27.371   4.985  0.00  0.00    +0.105 C 
ATOM     23  C   LIG    1       24.773 -28.428   6.716  0.00  0.00    +0.105 C 
ENDBRANCH  20  21
ENDBRANCH  17  20
ENDBRANCH  14  15
ENDBRANCH  13  14
ENDBRANCH   1  13
TORSDOF 10
ENDMDL
MODEL 5
REMARK VINA RESULT:      -6.4      2.220      3.547
REMARK  Name = *****
REMARK                            x       y       z     vdW  Elec       q    Type
REMARK                         _______ _______ _______ _____ _____    ______ ____
ROOT
ATOM      1  C   LIG    1       25.635 -22.119   8.206  0.00  0.00    +0.113 C 
ENDROOT
BRANCH   1   2
ATOM      2  C   LIG    1       26.722 -21.036   8.227  0.00  0.00    +0.233 C 
BRANCH   2   3
ATOM      3  N   LIG    1       27.848 -21.373   7.346  0.00  0.00    -0.233 N 
ATOM      4  H   LIG    1       27.597 -21.365   6.361  0.00  0.00    +0.291 HD
BRANCH   3   5
ATOM      5  C   LIG    1       29.184 -21.009   7.499  0.00  0.00    +0.326 C 
ATOM      6  C   LIG    1       29.901 -21.484   8.542  0.00  0.00    +0.474 C 
BRANCH   5   8
ATOM      7  C   LIG    1       29.260 -18.920   6.042  0.00  0.00    +0.273 C 
ATOM      8  N   LIG    1       29.735 -20.187   6.536  0.00  0.00    -0.236 N 
ATOM      9  H   LIG    1       30.651 -20.466   6.179  0.00  0.00    +0.291 HD
ENDBRANCH   5   8
BRANCH   6  10
ATOM     10  N   LIG    1       31.251 -21.082   8.826  0.00  0.00    +0.080 N 
ATOM     11  O   LIG    1       31.612 -19.928   8.516  0.00  0.00    -0.576 OA
ATOM     12  O   LIG    1       31.947 -21.903   9.415  0.00  0.00    +0.041 OA
ENDBRANCH   6  10
ENDBRANCH   3   5
ENDBRANCH   2   3
ENDBRANCH   1   2
BRANCH   1  13
ATOM     13  S   LIG    1       24.887 -22.239   6.536  0.00  0.00    -0.151 S 
BRANCH  13  14
ATOM     14  C   LIG    1       23.912 -23.767   6.741  0.00  0.00    +0.125 C 
BRANCH  14  15
ATOM     15  C   LIG    1       24.644 -25.005   6.332  0.00  0.00    +0.059 A 
ATOM     16  N   LIG    1       23.935 -26.190   6.147  0.00  0.00    -0.247 NA
ATOM     17  C   LIG    1       24.756 -27.166   5.801  0.00  0.00    +0.092 A 
ATOM     18  S   LIG    1       26.427 -26.739   5.791  0.00  0.00    -0.079 S 
ATOM     19  C   LIG    1       26.007 -25.120   6.136  0.00  0.00    +0.071 A 
BRANCH  17  20
ATOM     20  C   LIG    1       24.332 -28.573   5.416  0.00  0.00    +0.146 C 
BRANCH  20  21
ATOM     21  N   LIG    1       23.963 -29.470   6.538  0.00  0.00    -0.302 NA
ATOM     22  C   LIG    1       24.787 -29.248   7.725  0.00  0.00    +0.105 C 
ATOM     23  C   LIG    1       24.000 -30.877   6.142  0.00  0.00    +0.105 C 
ENDBRANCH  20  21
ENDBRANCH  17  20
ENDBRANCH  14  15
ENDBRANCH  13  14
ENDBRANCH   1  13
TORSDOF 10
ENDMDL
MODEL 6
REMARK VINA RESULT:      -6.3      4.001      8.486
REMARK  Name = *****
REMARK                            x       y       z     vdW  Elec       q    Type
REMARK                         _______ _______ _______ _____ _____    ______ ____
ROOT
ATOM      1  C   LIG    1       26.411 -22.794   7.204  0.00  0.00    +0.113 C 
ENDROOT
BRANCH   1   2
ATOM      2  C   LIG    1       25.110 -23.070   6.437  0.00  0.00    +0.233 C 
BRANCH   2   3
ATOM      3  N   LIG    1       25.115 -22.443   5.108  0.00  0.00    -0.233 N 
ATOM      4  H   LIG    1       25.010 -23.114   4.353  0.00  0.00    +0.291 HD
BRANCH   3   5
ATOM      5  C   LIG    1       24.550 -21.223   4.743  0.00  0.00    +0.326 C 
ATOM      6  C   LIG    1       25.208 -20.395   3.902  0.00  0.00    +0.474 C 
BRANCH   5   8
ATOM      7  C   LIG    1       22.943 -20.326   6.506  0.00  0.00    +0.273 C 
ATOM      8  N   LIG    1       23.298 -20.926   5.246  0.00  0.00    -0.236 N 
ATOM      9  H   LIG    1       22.514 -21.069   4.607  0.00  0.00    +0.291 HD
ENDBRANCH   5   8
BRANCH   6  10
ATOM     10  N   LIG    1       24.741 -19.081   3.554  0.00  0.00    +0.080 N 
ATOM     11  O   LIG    1       23.516 -18.902   3.395  0.00  0.00    -0.576 OA
ATOM     12  O   LIG    1       25.596 -18.203   3.492  0.00  0.00    +0.041 OA
ENDBRANCH   6  10
ENDBRANCH   3   5
ENDBRANCH   2   3
ENDBRANCH   1   2
BRANCH   1  13
ATOM     13  S   LIG    1       26.353 -21.134   7.982  0.00  0.00    -0.151 S 
BRANCH  13  14
ATOM     14  C   LIG    1       27.630 -20.284   6.996  0.00  0.00    +0.125 C 
BRANCH  14  15
ATOM     15  C   LIG    1       28.969 -20.238   7.661  0.00  0.00    +0.059 A 
ATOM     16  N   LIG    1       29.638 -19.021   7.770  0.00  0.00    -0.247 NA
ATOM     17  C   LIG    1       30.802 -19.191   8.373  0.00  0.00    +0.092 A 
ATOM     18  S   LIG    1       31.198 -20.829   8.737  0.00  0.00    -0.079 S 
ATOM     19  C   LIG    1       29.661 -21.317   8.177  0.00  0.00    +0.071 A 
BRANCH  17  20
ATOM     20  C   LIG    1       31.758 -18.076   8.759  0.00  0.00    +0.146 C 
BRANCH  20  21
ATOM     21  N   LIG    1       31.976 -17.880  10.213  0.00  0.00    -0.302 NA
ATOM     22  C   LIG    1       30.724 -17.714  10.948  0.00  0.00    +0.105 C 
ATOM     23  C   LIG    1       32.881 -16.762  10.480  0.00  0.00    +0.105 C 
ENDBRANCH  20  21
ENDBRANCH  17  20
ENDBRANCH  14  15
ENDBRANCH  13  14
ENDBRANCH   1  13
TORSDOF 10
ENDMDL
MODEL 7
REMARK VINA RESULT:      -6.2      2.587      3.791
REMARK  Name = *****
REMARK                            x       y       z     vdW  Elec       q    Type
REMARK                         _______ _______ _______ _____ _____    ______ ____
ROOT
ATOM      1  C   LIG    1       24.733 -21.749   5.220  0.00  0.00    +0.113 C 
ENDROOT
BRANCH   1   2
ATOM      2  C   LIG    1       25.332 -20.336   5.168  0.00  0.00    +0.233 C 
BRANCH   2   3
ATOM      3  N   LIG    1       26.798 -20.367   5.074  0.00  0.00    -0.233 N 
ATOM      4  H   LIG    1       27.144 -20.049   4.173  0.00  0.00    +0.291 HD
BRANCH   3   5
ATOM      5  C   LIG    1       27.719 -20.060   6.073  0.00  0.00    +0.326 C 
ATOM      6  C   LIG    1       28.860 -19.404   5.765  0.00  0.00    +0.474 C 
BRANCH   5   8
ATOM      7  C   LIG    1       27.642 -21.665   8.051  0.00  0.00    +0.273 C 
ATOM      8  N   LIG    1       27.399 -20.421   7.367  0.00  0.00    -0.236 N 
ATOM      9  H   LIG    1       27.013 -19.681   7.956  0.00  0.00    +0.291 HD
ENDBRANCH   5   8
BRANCH   6  10
ATOM     10  N   LIG    1       29.904 -19.137   6.717  0.00  0.00    +0.080 N 
ATOM     11  O   LIG    1       29.600 -18.624   7.813  0.00  0.00    -0.576 OA
ATOM     12  O   LIG    1       31.033 -19.492   6.393  0.00  0.00    +0.041 OA
ENDBRANCH   6  10
ENDBRANCH   3   5
ENDBRANCH   2   3
ENDBRANCH   1   2
BRANCH   1  13
ATOM     13  S   LIG    1       24.217 -22.160   6.931  0.00  0.00    -0.151 S 
BRANCH  13  14
ATOM     14  C   LIG    1       23.378 -23.751   6.629  0.00  0.00    +0.125 C 
BRANCH  14  15
ATOM     15  C   LIG    1       24.319 -24.887   6.382  0.00  0.00    +0.059 A 
ATOM     16  N   LIG    1       23.806 -26.148   6.084  0.00  0.00    -0.247 NA
ATOM     17  C   LIG    1       24.791 -27.014   5.912  0.00  0.00    +0.092 A 
ATOM     18  S   LIG    1       26.369 -26.386   6.210  0.00  0.00    -0.079 S 
ATOM     19  C   LIG    1       25.698 -24.833   6.447  0.00  0.00    +0.071 A 
BRANCH  17  20
ATOM     20  C   LIG    1       24.620 -28.458   5.474  0.00  0.00    +0.146 C 
BRANCH  20  21
ATOM     21  N   LIG    1       24.038 -29.378   6.481  0.00  0.00    -0.302 NA
ATOM     22  C   LIG    1       24.726 -29.304   7.769  0.00  0.00    +0.105 C 
ATOM     23  C   LIG    1       24.000 -30.758   5.997  0.00  0.00    +0.105 C 
ENDBRANCH  20  21
ENDBRANCH  17  20
ENDBRANCH  14  15
ENDBRANCH  13  14
ENDBRANCH   1  13
TORSDOF 10
ENDMDL
MODEL 8
REMARK VINA RESULT:      -6.1      3.738      8.521
REMARK  Name = *****
REMARK                            x       y       z     vdW  Elec       q    Type
REMARK                         _______ _______ _______ _____ _____    ______ ____
ROOT
ATOM      1  C   LIG    1       24.733 -20.724   7.379  0.00  0.00    +0.113 C 
ENDROOT
BRANCH   1   2
ATOM      2  C   LIG    1       23.614 -21.720   7.712  0.00  0.00    +0.233 C 
BRANCH   2   3
ATOM      3  N   LIG    1       23.312 -22.603   6.578  0.00  0.00    -0.233 N 
ATOM      4  H   LIG    1       22.546 -22.263   6.004  0.00  0.00    +0.291 HD
BRANCH   3   5
ATOM      5  C   LIG    1       24.216 -23.316   5.793  0.00  0.00    +0.326 C 
ATOM      6  C   LIG    1       24.584 -24.567   6.149  0.00  0.00    +0.474 C 
BRANCH   5   8
ATOM      7  C   LIG    1       24.186 -21.530   3.976  0.00  0.00    +0.273 C 
ATOM      8  N   LIG    1       24.679 -22.707   4.644  0.00  0.00    -0.236 N 
ATOM      9  H   LIG    1       25.543 -23.087   4.253  0.00  0.00    +0.291 HD
ENDBRANCH   5   8
BRANCH   6  10
ATOM     10  N   LIG    1       25.582 -25.330   5.451  0.00  0.00    +0.080 N 
ATOM     11  O   LIG    1       26.592 -25.712   6.077  0.00  0.00    -0.576 OA
ATOM     12  O   LIG    1       25.335 -25.600   4.280  0.00  0.00    +0.041 OA
ENDBRANCH   6  10
ENDBRANCH   3   5
ENDBRANCH   2   3
ENDBRANCH   1   2
BRANCH   1  13
ATOM     13  S   LIG    1       26.023 -20.754   8.683  0.00  0.00    -0.151 S 
BRANCH  13  14
ATOM     14  C   LIG    1       27.388 -21.524   7.751  0.00  0.00    +0.125 C 
BRANCH  14  15
ATOM     15  C   LIG    1       28.512 -20.584   7.448  0.00  0.00    +0.059 A 
ATOM     16  N   LIG    1       29.442 -20.285   8.442  0.00  0.00    -0.247 NA
ATOM     17  C   LIG    1       30.344 -19.433   7.984  0.00  0.00    +0.092 A 
ATOM     18  S   LIG    1       30.057 -18.865   6.382  0.00  0.00    -0.079 S 
ATOM     19  C   LIG    1       28.726 -19.928   6.251  0.00  0.00    +0.071 A 
BRANCH  17  20
ATOM     20  C   LIG    1       31.568 -18.960   8.748  0.00  0.00    +0.146 C 
BRANCH  20  21
ATOM     21  N   LIG    1       31.303 -18.217  10.004  0.00  0.00    -0.302 NA
ATOM     22  C   LIG    1       30.066 -17.440   9.943  0.00  0.00    +0.105 C 
ATOM     23  C   LIG    1       32.430 -17.362  10.376  0.00  0.00    +0.105 C 
ENDBRANCH  20  21
ENDBRANCH  17  20
ENDBRANCH  14  15
ENDBRANCH  13  14
ENDBRANCH   1  13
TORSDOF 10
ENDMDL
MODEL 9
REMARK VINA RESULT:      -6.1      1.469      1.834
REMARK  Name = *****
REMARK                            x       y       z     vdW  Elec       q    Type
REMARK                         _______ _______ _______ _____ _____    ______ ____
ROOT
ATOM      1  C   LIG    1       29.356 -19.069   6.790  0.00  0.00    +0.113 C 
ENDROOT
BRANCH   1   2
ATOM      2  C   LIG    1       30.791 -19.246   6.273  0.00  0.00    +0.233 C 
BRANCH   2   3
ATOM      3  N   LIG    1       31.781 -19.117   7.351  0.00  0.00    -0.233 N 
ATOM      4  H   LIG    1       32.614 -18.611   7.066  0.00  0.00    +0.291 HD
BRANCH   3   5
ATOM      5  C   LIG    1       31.537 -18.908   8.706  0.00  0.00    +0.326 C 
ATOM      6  C   LIG    1       31.445 -17.650   9.193  0.00  0.00    +0.474 C 
BRANCH   5   8
ATOM      7  C   LIG    1       31.186 -21.399   9.114  0.00  0.00    +0.273 C 
ATOM      8  N   LIG    1       31.363 -20.024   9.502  0.00  0.00    -0.236 N 
ATOM      9  H   LIG    1       31.457 -19.875  10.508  0.00  0.00    +0.291 HD
ENDBRANCH   5   8
BRANCH   6  10
ATOM     10  N   LIG    1       31.293 -17.348  10.590  0.00  0.00    +0.080 N 
ATOM     11  O   LIG    1       32.258 -17.552  11.356  0.00  0.00    -0.576 OA
ATOM     12  O   LIG    1       30.222 -16.852  10.922  0.00  0.00    +0.041 OA
ENDBRANCH   6  10
ENDBRANCH   3   5
ENDBRANCH   2   3
ENDBRANCH   1   2
BRANCH   1  13
ATOM     13  S   LIG    1       28.394 -20.610   6.540  0.00  0.00    -0.151 S 
BRANCH  13  14
ATOM     14  C   LIG    1       26.968 -19.940   5.623  0.00  0.00    +0.125 C 
BRANCH  14  15
ATOM     15  C   LIG    1       25.718 -20.746   5.785  0.00  0.00    +0.059 A 
ATOM     16  N   LIG    1       25.810 -22.085   6.159  0.00  0.00    -0.247 NA
ATOM     17  C   LIG    1       24.605 -22.623   6.238  0.00  0.00    +0.092 A 
ATOM     18  S   LIG    1       23.315 -21.584   5.759  0.00  0.00    -0.079 S 
ATOM     19  C   LIG    1       24.427 -20.302   5.570  0.00  0.00    +0.071 A 
BRANCH  17  20
ATOM     20  C   LIG    1       24.306 -24.032   6.716  0.00  0.00    +0.146 C 
BRANCH  20  21
ATOM     21  N   LIG    1       24.975 -25.127   5.974  0.00  0.00    -0.302 NA
ATOM     22  C   LIG    1       24.035 -26.152   5.522  0.00  0.00    +0.105 C 
ATOM     23  C   LIG    1       26.057 -25.729   6.752  0.00  0.00    +0.105 C 
ENDBRANCH  20  21
ENDBRANCH  17  20
ENDBRANCH  14  15
ENDBRANCH  13  14
ENDBRANCH   1  13
TORSDOF 10
ENDMDL
