MODEL 1
REMARK VINA RESULT:      -3.2      0.000      0.000
REMARK  Name = *****
REMARK                            x       y       z     vdW  Elec       q    Type
REMARK                         _______ _______ _______ _____ _____    ______ ____
ROOT
ATOM      1  C   LIG    1       23.517 -15.731   4.271  0.00  0.00    +0.234 C 
ATOM      2  N   LIG    1       23.988 -16.819   3.538  0.00  0.00    -0.284 N 
ATOM      3  H   LIG    1       24.811 -16.581   2.992  0.00  0.00    +0.155 HD
ATOM      4  O   LIG    1       22.969 -15.802   5.365  0.00  0.00    -0.274 OA
ENDROOT
BRANCH   2   5
ATOM      5  C   LIG    1       23.845 -18.161   3.972  0.00  0.00    +0.039 A 
ATOM      6  C   LIG    1       22.572 -18.717   4.245  0.00  0.00    -0.029 A 
ATOM      7  C   LIG    1       21.274 -17.973   4.073  0.00  0.00    +0.045 C 
ATOM      8  C   LIG    1       22.476 -20.085   4.568  0.00  0.00    +0.005 A 
ATOM      9  C   LIG    1       23.606 -20.892   4.638  0.00  0.00    +0.001 A 
ATOM     10  C   LIG    1       24.857 -20.343   4.383  0.00  0.00    +0.005 A 
ATOM     11  C   LIG    1       24.994 -18.984   4.042  0.00  0.00    -0.029 A 
ATOM     12  C   LIG    1       26.385 -18.453   3.831  0.00  0.00    +0.045 C 
ENDBRANCH   2   5
BRANCH   1  14
ATOM     13  N   LIG    1       24.990 -14.379   2.714  0.00  0.00    -0.291 NA
ATOM     14  C   LIG    1       23.742 -14.380   3.547  0.00  0.00    +0.143 C 
ATOM     15  C   LIG    1       23.660 -13.190   4.521  0.00  0.00    +0.028 C 
ATOM     16  C   LIG    1       23.820 -11.853   3.799  0.00  0.00    +0.003 C 
ATOM     17  C   LIG    1       25.012 -11.854   2.847  0.00  0.00    +0.015 C 
ATOM     18  C   LIG    1       25.020 -13.105   1.960  0.00  0.00    +0.085 C 
BRANCH  13  19
ATOM     19  C   LIG    1       26.210 -14.585   3.531  0.00  0.00    +0.085 C 
BRANCH  19  20
ATOM     20  C   LIG    1       27.507 -14.112   2.850  0.00  0.00    +0.015 C 
BRANCH  20  22
ATOM     21  C   LIG    1       27.686 -13.093   5.153  0.00  0.00    +0.004 C 
ATOM     22  C   LIG    1       28.360 -13.267   3.799  0.00  0.00    -0.002 C 
ENDBRANCH  20  22
ENDBRANCH  19  20
ENDBRANCH  13  19
ENDBRANCH   1  14
TORSDOF 5
ENDMDL
MODEL 2
REMARK VINA RESULT:      -2.9      1.435      2.485
REMARK  Name = *****
REMARK                            x       y       z     vdW  Elec       q    Type
REMARK                         _______ _______ _______ _____ _____    ______ ____
ROOT
ATOM      1  C   LIG    1       25.260 -17.026   3.282  0.00  0.00    +0.234 C 
ATOM      2  N   LIG    1       24.197 -17.595   3.980  0.00  0.00    -0.284 N 
ATOM      3  H   LIG    1       23.308 -17.170   3.731  0.00  0.00    +0.155 HD
ATOM      4  O   LIG    1       26.273 -17.620   2.932  0.00  0.00    -0.274 OA
ENDROOT
BRANCH   2   5
ATOM      5  C   LIG    1       24.190 -18.947   4.406  0.00  0.00    +0.039 A 
ATOM      6  C   LIG    1       25.387 -19.617   4.756  0.00  0.00    -0.029 A 
ATOM      7  C   LIG    1       26.748 -18.970   4.746  0.00  0.00    +0.045 C 
ATOM      8  C   LIG    1       25.315 -20.925   5.277  0.00  0.00    +0.005 A 
ATOM      9  C   LIG    1       24.095 -21.571   5.437  0.00  0.00    +0.001 A 
ATOM     10  C   LIG    1       22.921 -20.918   5.082  0.00  0.00    +0.005 A 
ATOM     11  C   LIG    1       22.949 -19.606   4.573  0.00  0.00    -0.029 A 
ATOM     12  C   LIG    1       21.641 -18.987   4.163  0.00  0.00    +0.045 C 
ENDBRANCH   2   5
BRANCH   1  14
ATOM     13  N   LIG    1       26.331 -14.810   2.678  0.00  0.00    -0.291 NA
ATOM     14  C   LIG    1       25.046 -15.519   2.992  0.00  0.00    +0.143 C 
ATOM     15  C   LIG    1       24.231 -14.834   4.105  0.00  0.00    +0.028 C 
ATOM     16  C   LIG    1       23.966 -13.363   3.792  0.00  0.00    +0.003 C 
ATOM     17  C   LIG    1       25.231 -12.634   3.349  0.00  0.00    +0.015 C 
ATOM     18  C   LIG    1       25.988 -13.426   2.277  0.00  0.00    +0.085 C 
BRANCH  13  19
ATOM     19  C   LIG    1       27.287 -14.853   3.811  0.00  0.00    +0.085 C 
BRANCH  19  20
ATOM     20  C   LIG    1       28.332 -13.723   3.791  0.00  0.00    +0.015 C 
BRANCH  20  22
ATOM     21  C   LIG    1       27.180 -13.368   6.009  0.00  0.00    +0.004 C 
ATOM     22  C   LIG    1       28.304 -12.914   5.090  0.00  0.00    -0.002 C 
ENDBRANCH  20  22
ENDBRANCH  19  20
ENDBRANCH  13  19
ENDBRANCH   1  14
TORSDOF 5
ENDMDL
MODEL 3
REMARK VINA RESULT:      -2.9      2.092      3.507
REMARK  Name = *****
REMARK                            x       y       z     vdW  Elec       q    Type
REMARK                         _______ _______ _______ _____ _____    ______ ____
ROOT
ATOM      1  C   LIG    1       25.269 -17.578   3.306  0.00  0.00    +0.234 C 
ATOM      2  N   LIG    1       24.295 -17.809   4.276  0.00  0.00    -0.284 N 
ATOM      3  H   LIG    1       23.691 -17.004   4.407  0.00  0.00    +0.155 HD
ATOM      4  O   LIG    1       25.735 -18.428   2.557  0.00  0.00    -0.274 OA
ENDROOT
BRANCH   2   5
ATOM      5  C   LIG    1       23.753 -19.094   4.533  0.00  0.00    +0.039 A 
ATOM      6  C   LIG    1       24.574 -20.173   4.940  0.00  0.00    -0.029 A 
ATOM      7  C   LIG    1       26.059 -20.062   5.171  0.00  0.00    +0.045 C 
ATOM      8  C   LIG    1       23.973 -21.400   5.288  0.00  0.00    +0.005 A 
ATOM      9  C   LIG    1       22.595 -21.572   5.223  0.00  0.00    +0.001 A 
ATOM     10  C   LIG    1       21.790 -20.516   4.811  0.00  0.00    +0.005 A 
ATOM     11  C   LIG    1       22.351 -19.271   4.470  0.00  0.00    -0.029 A 
ATOM     12  C   LIG    1       21.420 -18.195   3.984  0.00  0.00    +0.045 C 
ENDBRANCH   2   5
BRANCH   1  14
ATOM     13  N   LIG    1       27.226 -15.971   3.403  0.00  0.00    -0.291 NA
ATOM     14  C   LIG    1       25.737 -16.101   3.271  0.00  0.00    +0.143 C 
ATOM     15  C   LIG    1       24.960 -15.232   4.277  0.00  0.00    +0.028 C 
ATOM     16  C   LIG    1       25.377 -13.764   4.201  0.00  0.00    +0.003 C 
ATOM     17  C   LIG    1       26.893 -13.598   4.209  0.00  0.00    +0.015 C 
ATOM     18  C   LIG    1       27.566 -14.543   3.207  0.00  0.00    +0.085 C 
BRANCH  13  19
ATOM     19  C   LIG    1       27.723 -16.503   4.695  0.00  0.00    +0.085 C 
BRANCH  19  20
ATOM     20  C   LIG    1       28.556 -17.791   4.564  0.00  0.00    +0.015 C 
BRANCH  20  22
ATOM     21  C   LIG    1       29.307 -19.437   6.325  0.00  0.00    +0.004 C 
ATOM     22  C   LIG    1       29.435 -18.015   5.797  0.00  0.00    -0.002 C 
ENDBRANCH  20  22
ENDBRANCH  19  20
ENDBRANCH  13  19
ENDBRANCH   1  14
TORSDOF 5
ENDMDL
MODEL 4
REMARK VINA RESULT:      -2.6      2.132      6.386
REMARK  Name = *****
REMARK                            x       y       z     vdW  Elec       q    Type
REMARK                         _______ _______ _______ _____ _____    ______ ____
ROOT
ATOM      1  C   LIG    1       25.295 -17.771   3.441  0.00  0.00    +0.234 C 
ATOM      2  N   LIG    1       25.046 -16.546   4.058  0.00  0.00    -0.284 N 
ATOM      3  H   LIG    1       24.755 -16.660   5.024  0.00  0.00    +0.155 HD
ATOM      4  O   LIG    1       26.134 -17.964   2.569  0.00  0.00    -0.274 OA
ENDROOT
BRANCH   2   5
ATOM      5  C   LIG    1       25.728 -15.353   3.706  0.00  0.00    +0.039 A 
ATOM      6  C   LIG    1       25.026 -14.196   3.294  0.00  0.00    -0.029 A 
ATOM      7  C   LIG    1       23.524 -14.102   3.224  0.00  0.00    +0.045 C 
ATOM      8  C   LIG    1       25.743 -13.005   3.061  0.00  0.00    +0.005 A 
ATOM      9  C   LIG    1       27.123 -12.952   3.212  0.00  0.00    +0.001 A 
ATOM     10  C   LIG    1       27.815 -14.093   3.604  0.00  0.00    +0.005 A 
ATOM     11  C   LIG    1       27.134 -15.297   3.862  0.00  0.00    -0.029 A 
ATOM     12  C   LIG    1       27.957 -16.500   4.232  0.00  0.00    +0.045 C 
ENDBRANCH   2   5
BRANCH   1  14
ATOM     13  N   LIG    1       24.832 -19.450   5.281  0.00  0.00    -0.291 NA
ATOM     14  C   LIG    1       24.372 -18.900   3.963  0.00  0.00    +0.143 C 
ATOM     15  C   LIG    1       24.144 -19.989   2.897  0.00  0.00    +0.028 C 
ATOM     16  C   LIG    1       23.186 -21.073   3.387  0.00  0.00    +0.003 C 
ATOM     17  C   LIG    1       23.550 -21.572   4.782  0.00  0.00    +0.015 C 
ATOM     18  C   LIG    1       23.802 -20.407   5.746  0.00  0.00    +0.085 C 
BRANCH  13  19
ATOM     19  C   LIG    1       26.179 -20.063   5.195  0.00  0.00    +0.085 C 
BRANCH  19  20
ATOM     20  C   LIG    1       26.622 -20.786   6.480  0.00  0.00    +0.015 C 
BRANCH  20  22
ATOM     21  C   LIG    1       28.779 -19.590   5.943  0.00  0.00    +0.004 C 
ATOM     22  C   LIG    1       27.912 -20.184   7.043  0.00  0.00    -0.002 C 
ENDBRANCH  20  22
ENDBRANCH  19  20
ENDBRANCH  13  19
ENDBRANCH   1  14
TORSDOF 5
ENDMDL
MODEL 5
REMARK VINA RESULT:      -2.4      2.176      6.605
REMARK  Name = *****
REMARK                            x       y       z     vdW  Elec       q    Type
REMARK                         _______ _______ _______ _____ _____    ______ ____
ROOT
ATOM      1  C   LIG    1       25.225 -17.720   3.510  0.00  0.00    +0.234 C 
ATOM      2  N   LIG    1       24.910 -16.495   4.095  0.00  0.00    -0.284 N 
ATOM      3  H   LIG    1       24.582 -16.604   5.050  0.00  0.00    +0.155 HD
ATOM      4  O   LIG    1       26.106 -17.898   2.677  0.00  0.00    -0.274 OA
ENDROOT
BRANCH   2   5
ATOM      5  C   LIG    1       25.566 -15.285   3.752  0.00  0.00    +0.039 A 
ATOM      6  C   LIG    1       26.977 -15.178   3.778  0.00  0.00    -0.029 A 
ATOM      7  C   LIG    1       27.902 -16.315   4.128  0.00  0.00    +0.045 C 
ATOM      8  C   LIG    1       27.583 -13.989   3.324  0.00  0.00    +0.005 A 
ATOM      9  C   LIG    1       26.822 -12.920   2.868  0.00  0.00    +0.001 A 
ATOM     10  C   LIG    1       25.436 -13.021   2.854  0.00  0.00    +0.005 A 
ATOM     11  C   LIG    1       24.793 -14.196   3.285  0.00  0.00    -0.029 A 
ATOM     12  C   LIG    1       23.289 -14.209   3.288  0.00  0.00    +0.045 C 
ENDBRANCH   2   5
BRANCH   1  14
ATOM     13  N   LIG    1       24.797 -19.450   5.311  0.00  0.00    -0.291 NA
ATOM     14  C   LIG    1       24.318 -18.872   4.011  0.00  0.00    +0.143 C 
ATOM     15  C   LIG    1       24.091 -19.935   2.920  0.00  0.00    +0.028 C 
ATOM     16  C   LIG    1       23.148 -21.041   3.392  0.00  0.00    +0.003 C 
ATOM     17  C   LIG    1       23.531 -21.572   4.769  0.00  0.00    +0.015 C 
ATOM     18  C   LIG    1       23.781 -20.430   5.761  0.00  0.00    +0.085 C 
BRANCH  13  19
ATOM     19  C   LIG    1       26.150 -20.047   5.195  0.00  0.00    +0.085 C 
BRANCH  19  20
ATOM     20  C   LIG    1       26.840 -20.299   6.548  0.00  0.00    +0.015 C 
BRANCH  20  22
ATOM     21  C   LIG    1       29.164 -19.403   6.963  0.00  0.00    +0.004 C 
ATOM     22  C   LIG    1       28.342 -20.539   6.372  0.00  0.00    -0.002 C 
ENDBRANCH  20  22
ENDBRANCH  19  20
ENDBRANCH  13  19
ENDBRANCH   1  14
TORSDOF 5
ENDMDL
MODEL 6
REMARK VINA RESULT:      -1.7      1.440      3.392
REMARK  Name = *****
REMARK                            x       y       z     vdW  Elec       q    Type
REMARK                         _______ _______ _______ _____ _____    ______ ____
ROOT
ATOM      1  C   LIG    1       25.715 -16.830   3.566  0.00  0.00    +0.234 C 
ATOM      2  N   LIG    1       24.857 -17.319   4.549  0.00  0.00    -0.284 N 
ATOM      3  H   LIG    1       24.451 -16.571   5.104  0.00  0.00    +0.155 HD
ATOM      4  O   LIG    1       25.894 -17.343   2.467  0.00  0.00    -0.274 OA
ENDROOT
BRANCH   2   5
ATOM      5  C   LIG    1       24.109 -18.514   4.395  0.00  0.00    +0.039 A 
ATOM      6  C   LIG    1       24.740 -19.779   4.346  0.00  0.00    -0.029 A 
ATOM      7  C   LIG    1       26.226 -19.985   4.486  0.00  0.00    +0.045 C 
ATOM      8  C   LIG    1       23.945 -20.942   4.301  0.00  0.00    +0.005 A 
ATOM      9  C   LIG    1       22.557 -20.867   4.288  0.00  0.00    +0.001 A 
ATOM     10  C   LIG    1       21.937 -19.623   4.323  0.00  0.00    +0.005 A 
ATOM     11  C   LIG    1       22.695 -18.439   4.384  0.00  0.00    -0.029 A 
ATOM     12  C   LIG    1       21.953 -17.131   4.367  0.00  0.00    +0.045 C 
ENDBRANCH   2   5
BRANCH   1  14
ATOM     13  N   LIG    1       25.553 -14.563   4.685  0.00  0.00    -0.291 NA
ATOM     14  C   LIG    1       26.462 -15.547   4.009  0.00  0.00    +0.143 C 
ATOM     15  C   LIG    1       27.272 -14.931   2.853  0.00  0.00    +0.028 C 
ATOM     16  C   LIG    1       28.057 -13.700   3.302  0.00  0.00    +0.003 C 
ATOM     17  C   LIG    1       27.194 -12.730   4.102  0.00  0.00    +0.015 C 
ATOM     18  C   LIG    1       26.396 -13.455   5.191  0.00  0.00    +0.085 C 
BRANCH  13  19
ATOM     19  C   LIG    1       24.471 -14.089   3.788  0.00  0.00    +0.085 C 
BRANCH  19  20
ATOM     20  C   LIG    1       23.846 -12.748   4.214  0.00  0.00    +0.015 C 
BRANCH  20  22
ATOM     21  C   LIG    1       24.553 -12.300   1.832  0.00  0.00    +0.004 C 
ATOM     22  C   LIG    1       23.877 -11.731   3.070  0.00  0.00    -0.002 C 
ENDBRANCH  20  22
ENDBRANCH  19  20
ENDBRANCH  13  19
ENDBRANCH   1  14
TORSDOF 5
ENDMDL
MODEL 7
REMARK VINA RESULT:      -1.4      2.322      6.551
REMARK  Name = *****
REMARK                            x       y       z     vdW  Elec       q    Type
REMARK                         _______ _______ _______ _____ _____    ______ ____
ROOT
ATOM      1  C   LIG    1       26.847 -17.287   3.673  0.00  0.00    +0.234 C 
ATOM      2  N   LIG    1       26.939 -15.975   4.136  0.00  0.00    -0.284 N 
ATOM      3  H   LIG    1       27.885 -15.738   4.417  0.00  0.00    +0.155 HD
ATOM      4  O   LIG    1       26.079 -17.675   2.801  0.00  0.00    -0.274 OA
ENDROOT
BRANCH   2   5
ATOM      5  C   LIG    1       26.105 -14.931   3.663  0.00  0.00    +0.039 A 
ATOM      6  C   LIG    1       24.694 -15.018   3.745  0.00  0.00    -0.029 A 
ATOM      7  C   LIG    1       23.956 -16.179   4.358  0.00  0.00    +0.045 C 
ATOM      8  C   LIG    1       23.915 -13.908   3.361  0.00  0.00    +0.005 A 
ATOM      9  C   LIG    1       24.504 -12.740   2.891  0.00  0.00    +0.001 A 
ATOM     10  C   LIG    1       25.888 -12.659   2.799  0.00  0.00    +0.005 A 
ATOM     11  C   LIG    1       26.702 -13.740   3.186  0.00  0.00    -0.029 A 
ATOM     12  C   LIG    1       28.189 -13.595   3.008  0.00  0.00    +0.045 C 
ENDBRANCH   2   5
BRANCH   1  14
ATOM     13  N   LIG    1       27.203 -19.578   4.696  0.00  0.00    -0.291 NA
ATOM     14  C   LIG    1       27.826 -18.245   4.397  0.00  0.00    +0.143 C 
ATOM     15  C   LIG    1       28.464 -17.583   5.633  0.00  0.00    +0.028 C 
ATOM     16  C   LIG    1       29.475 -18.504   6.313  0.00  0.00    +0.003 C 
ATOM     17  C   LIG    1       28.919 -19.909   6.523  0.00  0.00    +0.015 C 
ATOM     18  C   LIG    1       28.265 -20.451   5.246  0.00  0.00    +0.085 C 
BRANCH  13  19
ATOM     19  C   LIG    1       26.035 -19.462   5.602  0.00  0.00    +0.085 C 
BRANCH  19  20
ATOM     20  C   LIG    1       24.927 -20.495   5.331  0.00  0.00    +0.015 C 
BRANCH  20  22
ATOM     21  C   LIG    1       22.542 -19.692   5.130  0.00  0.00    +0.004 C 
ATOM     22  C   LIG    1       23.854 -19.929   4.397  0.00  0.00    -0.002 C 
ENDBRANCH  20  22
ENDBRANCH  19  20
ENDBRANCH  13  19
ENDBRANCH   1  14
TORSDOF 5
ENDMDL
MODEL 8
REMARK VINA RESULT:      -1.2      1.792      6.608
REMARK  Name = *****
REMARK                            x       y       z     vdW  Elec       q    Type
REMARK                         _______ _______ _______ _____ _____    ______ ____
ROOT
ATOM      1  C   LIG    1       25.602 -18.022   3.415  0.00  0.00    +0.234 C 
ATOM      2  N   LIG    1       25.429 -17.009   4.357  0.00  0.00    -0.284 N 
ATOM      3  H   LIG    1       25.908 -17.216   5.228  0.00  0.00    +0.155 HD
ATOM      4  O   LIG    1       25.657 -17.856   2.202  0.00  0.00    -0.274 OA
ENDROOT
BRANCH   2   5
ATOM      5  C   LIG    1       25.256 -15.648   4.001  0.00  0.00    +0.039 A 
ATOM      6  C   LIG    1       23.976 -15.043   3.999  0.00  0.00    -0.029 A 
ATOM      7  C   LIG    1       22.708 -15.752   4.397  0.00  0.00    +0.045 C 
ATOM      8  C   LIG    1       23.871 -13.660   3.744  0.00  0.00    +0.005 A 
ATOM      9  C   LIG    1       24.996 -12.888   3.481  0.00  0.00    +0.001 A 
ATOM     10  C   LIG    1       26.251 -13.484   3.471  0.00  0.00    +0.005 A 
ATOM     11  C   LIG    1       26.400 -14.858   3.736  0.00  0.00    -0.029 A 
ATOM     12  C   LIG    1       27.785 -15.440   3.656  0.00  0.00    +0.045 C 
ENDBRANCH   2   5
BRANCH   1  14
ATOM     13  N   LIG    1       24.386 -20.145   4.077  0.00  0.00    -0.291 NA
ATOM     14  C   LIG    1       25.704 -19.427   4.061  0.00  0.00    +0.143 C 
ATOM     15  C   LIG    1       26.383 -19.372   5.442  0.00  0.00    +0.028 C 
ATOM     16  C   LIG    1       26.540 -20.763   6.054  0.00  0.00    +0.003 C 
ATOM     17  C   LIG    1       25.249 -21.572   5.978  0.00  0.00    +0.015 C 
ATOM     18  C   LIG    1       24.635 -21.517   4.574  0.00  0.00    +0.085 C 
BRANCH  13  19
ATOM     19  C   LIG    1       23.366 -19.426   4.878  0.00  0.00    +0.085 C 
BRANCH  19  20
ATOM     20  C   LIG    1       21.915 -19.736   4.466  0.00  0.00    +0.015 C 
BRANCH  20  22
ATOM     21  C   LIG    1       19.835 -18.843   3.348  0.00  0.00    +0.004 C 
ATOM     22  C   LIG    1       21.270 -18.544   3.754  0.00  0.00    -0.002 C 
ENDBRANCH  20  22
ENDBRANCH  19  20
ENDBRANCH  13  19
ENDBRANCH   1  14
TORSDOF 5
ENDMDL
MODEL 9
REMARK VINA RESULT:      -1.2      1.752      6.872
REMARK  Name = *****
REMARK                            x       y       z     vdW  Elec       q    Type
REMARK                         _______ _______ _______ _____ _____    ______ ____
ROOT
ATOM      1  C   LIG    1       25.530 -17.979   3.411  0.00  0.00    +0.234 C 
ATOM      2  N   LIG    1       25.305 -16.988   4.364  0.00  0.00    -0.284 N 
ATOM      3  H   LIG    1       25.704 -17.231   5.266  0.00  0.00    +0.155 HD
ATOM      4  O   LIG    1       25.690 -17.782   2.212  0.00  0.00    -0.274 OA
ENDROOT
BRANCH   2   5
ATOM      5  C   LIG    1       25.194 -15.613   4.035  0.00  0.00    +0.039 A 
ATOM      6  C   LIG    1       26.330 -14.845   3.682  0.00  0.00    -0.029 A 
ATOM      7  C   LIG    1       27.727 -15.402   3.587  0.00  0.00    +0.045 C 
ATOM      8  C   LIG    1       26.152 -13.513   3.258  0.00  0.00    +0.005 A 
ATOM      9  C   LIG    1       24.889 -12.937   3.197  0.00  0.00    +0.001 A 
ATOM     10  C   LIG    1       23.775 -13.687   3.555  0.00  0.00    +0.005 A 
ATOM     11  C   LIG    1       23.908 -15.026   3.969  0.00  0.00    -0.029 A 
ATOM     12  C   LIG    1       22.662 -15.755   4.390  0.00  0.00    +0.045 C 
ENDBRANCH   2   5
BRANCH   1  14
ATOM     13  N   LIG    1       24.194 -20.057   3.976  0.00  0.00    -0.291 NA
ATOM     14  C   LIG    1       25.544 -19.403   4.022  0.00  0.00    +0.143 C 
ATOM     15  C   LIG    1       26.177 -19.416   5.426  0.00  0.00    +0.028 C 
ATOM     16  C   LIG    1       26.247 -20.828   6.004  0.00  0.00    +0.003 C 
ATOM     17  C   LIG    1       24.923 -21.571   5.865  0.00  0.00    +0.015 C 
ATOM     18  C   LIG    1       24.360 -21.452   4.444  0.00  0.00    +0.085 C 
BRANCH  13  19
ATOM     19  C   LIG    1       23.181 -19.310   4.761  0.00  0.00    +0.085 C 
BRANCH  19  20
ATOM     20  C   LIG    1       21.726 -19.650   4.391  0.00  0.00    +0.015 C 
BRANCH  20  22
ATOM     21  C   LIG    1       19.639 -18.848   3.219  0.00  0.00    +0.004 C 
ATOM     22  C   LIG    1       21.056 -18.494   3.645  0.00  0.00    -0.002 C 
ENDBRANCH  20  22
ENDBRANCH  19  20
ENDBRANCH  13  19
ENDBRANCH   1  14
TORSDOF 5
ENDMDL
