MODEL 1
REMARK VINA RESULT:      -7.8      0.000      0.000
REMARK  Name = *****
REMARK                            x       y       z     vdW  Elec       q    Type
REMARK                         _______ _______ _______ _____ _____    ______ ____
ROOT
ATOM      1  C   LIG    1       26.428 -21.134   8.341  0.00  0.00    +0.162 C 
ENDROOT
BRANCH   1   2
ATOM      2  C   LIG    1       25.164 -21.589   7.598  0.00  0.00    -0.007 A 
ATOM      3  C   LIG    1       24.959 -22.911   7.109  0.00  0.00    +0.009 A 
ATOM      4  C   LIG    1       23.786 -23.175   6.369  0.00  0.00    +0.071 A 
ATOM      5  C   LIG    1       23.590 -24.435   5.815  0.00  0.00    +0.032 A 
ATOM      6  C   LIG    1       24.511 -25.465   6.014  0.00  0.00    +0.048 A 
ATOM      7  C   LIG    1       25.626 -25.255   6.809  0.00  0.00    +0.121 A 
ATOM      8  N   LIG    1       22.815 -22.267   6.170  0.00  0.00    -0.255 NA
ATOM      9  C   LIG    1       22.979 -21.055   6.726  0.00  0.00    +0.112 A 
ATOM     10  C   LIG    1       25.854 -23.986   7.351  0.00  0.00    +0.056 A 
ATOM     11  C   LIG    1       24.110 -20.675   7.415  0.00  0.00    +0.026 A 
BRANCH   7  12
ATOM     12  O   LIG    1       26.443 -26.340   6.977  0.00  0.00    -0.495 OA
ATOM     13  C   LIG    1       25.794 -27.564   7.303  0.00  0.00    +0.277 C 
ENDBRANCH   7  12
ENDBRANCH   1   2
BRANCH   1  17
ATOM     14  C   LIG    1       30.286 -20.690   7.615  0.00  0.00    +0.028 C 
ATOM     15  C   LIG    1       29.740 -19.258   7.827  0.00  0.00    -0.000 C 
ATOM     16  C   LIG    1       28.345 -19.329   8.490  0.00  0.00    +0.026 C 
ATOM     17  C   LIG    1       27.353 -20.094   7.583  0.00  0.00    +0.090 C 
ATOM     18  N   LIG    1       28.076 -20.631   6.365  0.00  0.00    -0.296 NA
ATOM     19  C   LIG    1       28.571 -19.451   5.600  0.00  0.00    +0.085 C 
ATOM     20  C   LIG    1       29.581 -18.631   6.424  0.00  0.00    +0.019 C 
ATOM     21  C   LIG    1       29.286 -21.434   6.694  0.00  0.00    +0.092 C 
BRANCH  14  23
ATOM     22  C   LIG    1       31.559 -22.289   9.105  0.00  0.00    +0.004 C 
ATOM     23  C   LIG    1       30.537 -21.452   8.897  0.00  0.00    -0.029 C 
ENDBRANCH  14  23
ENDBRANCH   1  17
BRANCH   1  24
ATOM     24  O   LIG    1       26.007 -20.613   9.606  0.00  0.00    -0.386 OA
ATOM     25  H   LIG    1       26.803 -20.510  10.140  0.00  0.00    +0.210 HD
ENDBRANCH   1  24
TORSDOF 5
ENDMDL
MODEL 2
REMARK VINA RESULT:      -7.7      1.915      6.546
REMARK  Name = *****
REMARK                            x       y       z     vdW  Elec       q    Type
REMARK                         _______ _______ _______ _____ _____    ______ ____
ROOT
ATOM      1  C   LIG    1       26.535 -20.909   6.786  0.00  0.00    +0.162 C 
ENDROOT
BRANCH   1   2
ATOM      2  C   LIG    1       27.652 -19.962   6.327  0.00  0.00    -0.007 A 
ATOM      3  C   LIG    1       28.913 -19.840   6.979  0.00  0.00    +0.009 A 
ATOM      4  C   LIG    1       29.820 -18.869   6.503  0.00  0.00    +0.071 A 
ATOM      5  C   LIG    1       31.028 -18.673   7.162  0.00  0.00    +0.032 A 
ATOM      6  C   LIG    1       31.386 -19.451   8.264  0.00  0.00    +0.048 A 
ATOM      7  C   LIG    1       30.551 -20.468   8.696  0.00  0.00    +0.121 A 
ATOM      8  N   LIG    1       29.591 -18.110   5.417  0.00  0.00    -0.255 NA
ATOM      9  C   LIG    1       28.440 -18.311   4.755  0.00  0.00    +0.112 A 
ATOM     10  C   LIG    1       29.320 -20.661   8.063  0.00  0.00    +0.056 A 
ATOM     11  C   LIG    1       27.461 -19.188   5.167  0.00  0.00    +0.026 A 
BRANCH   7  12
ATOM     12  O   LIG    1       31.014 -21.201   9.755  0.00  0.00    -0.495 OA
ATOM     13  C   LIG    1       31.400 -22.541   9.465  0.00  0.00    +0.277 C 
ENDBRANCH   7  12
ENDBRANCH   1   2
BRANCH   1  17
ATOM     14  C   LIG    1       23.138 -22.914   6.564  0.00  0.00    +0.028 C 
ATOM     15  C   LIG    1       23.338 -22.287   5.163  0.00  0.00    -0.000 C 
ATOM     16  C   LIG    1       24.800 -21.809   5.014  0.00  0.00    +0.026 C 
ATOM     17  C   LIG    1       25.129 -20.734   6.076  0.00  0.00    +0.090 C 
ATOM     18  N   LIG    1       23.948 -20.548   7.005  0.00  0.00    -0.296 NA
ATOM     19  C   LIG    1       22.820 -20.035   6.176  0.00  0.00    +0.085 C 
ATOM     20  C   LIG    1       22.412 -21.052   5.093  0.00  0.00    +0.019 C 
ATOM     21  C   LIG    1       23.458 -21.818   7.611  0.00  0.00    +0.092 C 
BRANCH  14  23
ATOM     22  C   LIG    1       23.910 -25.264   6.037  0.00  0.00    +0.004 C 
ATOM     23  C   LIG    1       23.950 -24.167   6.801  0.00  0.00    -0.029 C 
ENDBRANCH  14  23
ENDBRANCH   1  17
BRANCH   1  24
ATOM     24  O   LIG    1       27.024 -22.244   6.624  0.00  0.00    -0.386 OA
ATOM     25  H   LIG    1       27.738 -22.356   7.263  0.00  0.00    +0.210 HD
ENDBRANCH   1  24
TORSDOF 5
ENDMDL
MODEL 3
REMARK VINA RESULT:      -7.4      2.242      7.023
REMARK  Name = *****
REMARK                            x       y       z     vdW  Elec       q    Type
REMARK                         _______ _______ _______ _____ _____    ______ ____
ROOT
ATOM      1  C   LIG    1       27.167 -20.318   8.121  0.00  0.00    +0.162 C 
ENDROOT
BRANCH   1   2
ATOM      2  C   LIG    1       28.428 -19.770   7.437  0.00  0.00    -0.007 A 
ATOM      3  C   LIG    1       29.500 -19.138   8.130  0.00  0.00    +0.009 A 
ATOM      4  C   LIG    1       30.563 -18.604   7.370  0.00  0.00    +0.071 A 
ATOM      5  C   LIG    1       31.589 -17.917   8.008  0.00  0.00    +0.032 A 
ATOM      6  C   LIG    1       31.615 -17.781   9.397  0.00  0.00    +0.048 A 
ATOM      7  C   LIG    1       30.628 -18.371  10.171  0.00  0.00    +0.121 A 
ATOM      8  N   LIG    1       30.658 -18.732   6.035  0.00  0.00    -0.255 NA
ATOM      9  C   LIG    1       29.687 -19.420   5.410  0.00  0.00    +0.112 A 
ATOM     10  C   LIG    1       29.574 -19.042   9.544  0.00  0.00    +0.056 A 
ATOM     11  C   LIG    1       28.577 -19.930   6.047  0.00  0.00    +0.026 A 
BRANCH   7  12
ATOM     12  O   LIG    1       30.769 -18.217  11.523  0.00  0.00    -0.495 OA
ATOM     13  C   LIG    1       31.518 -17.083  11.947  0.00  0.00    +0.277 C 
ENDBRANCH   7  12
ENDBRANCH   1   2
BRANCH   1  17
ATOM     14  C   LIG    1       24.730 -23.097   6.727  0.00  0.00    +0.028 C 
ATOM     15  C   LIG    1       24.811 -22.025   5.614  0.00  0.00    -0.000 C 
ATOM     16  C   LIG    1       26.016 -21.095   5.878  0.00  0.00    +0.026 C 
ATOM     17  C   LIG    1       25.853 -20.371   7.235  0.00  0.00    +0.090 C 
ATOM     18  N   LIG    1       24.610 -20.870   7.941  0.00  0.00    -0.296 NA
ATOM     19  C   LIG    1       23.447 -20.496   7.086  0.00  0.00    +0.085 C 
ATOM     20  C   LIG    1       23.517 -21.186   5.711  0.00  0.00    +0.019 C 
ATOM     21  C   LIG    1       24.553 -22.352   8.074  0.00  0.00    +0.092 C 
BRANCH  14  23
ATOM     22  C   LIG    1       25.832 -25.372   6.648  0.00  0.00    +0.004 C 
ATOM     23  C   LIG    1       25.910 -24.042   6.762  0.00  0.00    -0.029 C 
ENDBRANCH  14  23
ENDBRANCH   1  17
BRANCH   1  24
ATOM     24  O   LIG    1       27.493 -21.616   8.626  0.00  0.00    -0.386 OA
ATOM     25  H   LIG    1       28.372 -21.546   9.018  0.00  0.00    +0.210 HD
ENDBRANCH   1  24
TORSDOF 5
ENDMDL
MODEL 4
REMARK VINA RESULT:      -7.2      1.646      3.439
REMARK  Name = *****
REMARK                            x       y       z     vdW  Elec       q    Type
REMARK                         _______ _______ _______ _____ _____    ______ ____
ROOT
ATOM      1  C   LIG    1       26.654 -21.258   8.444  0.00  0.00    +0.162 C 
ENDROOT
BRANCH   1   2
ATOM      2  C   LIG    1       25.789 -22.256   7.661  0.00  0.00    -0.007 A 
ATOM      3  C   LIG    1       24.632 -21.894   6.912  0.00  0.00    +0.009 A 
ATOM      4  C   LIG    1       23.880 -22.923   6.307  0.00  0.00    +0.071 A 
ATOM      5  C   LIG    1       22.706 -22.611   5.632  0.00  0.00    +0.032 A 
ATOM      6  C   LIG    1       22.275 -21.289   5.499  0.00  0.00    +0.048 A 
ATOM      7  C   LIG    1       23.042 -20.255   6.010  0.00  0.00    +0.121 A 
ATOM      8  N   LIG    1       24.241 -24.217   6.330  0.00  0.00    -0.255 NA
ATOM      9  C   LIG    1       25.389 -24.528   6.954  0.00  0.00    +0.112 A 
ATOM     10  C   LIG    1       24.212 -20.552   6.716  0.00  0.00    +0.056 A 
ATOM     11  C   LIG    1       26.167 -23.611   7.628  0.00  0.00    +0.026 A 
BRANCH   7  12
ATOM     12  O   LIG    1       22.556 -18.996   5.788  0.00  0.00    -0.495 OA
ATOM     13  C   LIG    1       22.233 -18.680   4.438  0.00  0.00    +0.277 C 
ENDBRANCH   7  12
ENDBRANCH   1   2
BRANCH   1  17
ATOM     14  C   LIG    1       30.424 -20.413   7.617  0.00  0.00    +0.028 C 
ATOM     15  C   LIG    1       29.707 -19.046   7.715  0.00  0.00    -0.000 C 
ATOM     16  C   LIG    1       28.336 -19.227   8.405  0.00  0.00    +0.026 C 
ATOM     17  C   LIG    1       27.440 -20.184   7.584  0.00  0.00    +0.090 C 
ATOM     18  N   LIG    1       28.215 -20.732   6.405  0.00  0.00    -0.296 NA
ATOM     19  C   LIG    1       28.557 -19.572   5.533  0.00  0.00    +0.085 C 
ATOM     20  C   LIG    1       29.464 -18.567   6.266  0.00  0.00    +0.019 C 
ATOM     21  C   LIG    1       29.517 -21.351   6.780  0.00  0.00    +0.092 C 
BRANCH  14  23
ATOM     22  C   LIG    1       31.302 -22.241   9.129  0.00  0.00    +0.004 C 
ATOM     23  C   LIG    1       30.774 -21.024   8.955  0.00  0.00    -0.029 C 
ENDBRANCH  14  23
ENDBRANCH   1  17
BRANCH   1  24
ATOM     24  O   LIG    1       25.800 -20.621   9.398  0.00  0.00    -0.386 OA
ATOM     25  H   LIG    1       26.282 -19.853   9.730  0.00  0.00    +0.210 HD
ENDBRANCH   1  24
TORSDOF 5
ENDMDL
MODEL 5
REMARK VINA RESULT:      -6.8      1.898      6.337
REMARK  Name = *****
REMARK                            x       y       z     vdW  Elec       q    Type
REMARK                         _______ _______ _______ _____ _____    ______ ____
ROOT
ATOM      1  C   LIG    1       25.862 -20.807   7.901  0.00  0.00    +0.162 C 
ENDROOT
BRANCH   1   2
ATOM      2  C   LIG    1       26.823 -20.204   6.867  0.00  0.00    -0.007 A 
ATOM      3  C   LIG    1       28.227 -20.072   7.066  0.00  0.00    +0.009 A 
ATOM      4  C   LIG    1       28.984 -19.423   6.067  0.00  0.00    +0.071 A 
ATOM      5  C   LIG    1       30.344 -19.211   6.262  0.00  0.00    +0.032 A 
ATOM      6  C   LIG    1       30.991 -19.670   7.411  0.00  0.00    +0.048 A 
ATOM      7  C   LIG    1       30.286 -20.386   8.365  0.00  0.00    +0.121 A 
ATOM      8  N   LIG    1       28.465 -18.996   4.903  0.00  0.00    -0.255 NA
ATOM      9  C   LIG    1       27.158 -19.221   4.690  0.00  0.00    +0.112 A 
ATOM     10  C   LIG    1       28.912 -20.584   8.199  0.00  0.00    +0.056 A 
ATOM     11  C   LIG    1       26.317 -19.790   5.621  0.00  0.00    +0.026 A 
BRANCH   7  12
ATOM     12  O   LIG    1       31.021 -20.829   9.431  0.00  0.00    -0.495 OA
ATOM     13  C   LIG    1       31.277 -22.228   9.473  0.00  0.00    +0.277 C 
ENDBRANCH   7  12
ENDBRANCH   1   2
BRANCH   1  17
ATOM     14  C   LIG    1       23.103 -22.150   5.411  0.00  0.00    +0.028 C 
ATOM     15  C   LIG    1       22.958 -23.010   6.689  0.00  0.00    -0.000 C 
ATOM     16  C   LIG    1       23.711 -22.334   7.857  0.00  0.00    +0.026 C 
ATOM     17  C   LIG    1       25.217 -22.207   7.529  0.00  0.00    +0.090 C 
ATOM     18  N   LIG    1       25.481 -22.693   6.120  0.00  0.00    -0.296 NA
ATOM     19  C   LIG    1       25.131 -24.142   6.088  0.00  0.00    +0.085 C 
ATOM     20  C   LIG    1       23.639 -24.365   6.392  0.00  0.00    +0.019 C 
ATOM     21  C   LIG    1       24.616 -22.047   5.093  0.00  0.00    +0.092 C 
BRANCH  14  23
ATOM     22  C   LIG    1       22.735 -19.748   4.711  0.00  0.00    +0.004 C 
ATOM     23  C   LIG    1       22.459 -20.785   5.509  0.00  0.00    -0.029 C 
ENDBRANCH  14  23
ENDBRANCH   1  17
BRANCH   1  24
ATOM     24  O   LIG    1       26.573 -20.887   9.140  0.00  0.00    -0.386 OA
ATOM     25  H   LIG    1       25.999 -21.355   9.758  0.00  0.00    +0.210 HD
ENDBRANCH   1  24
TORSDOF 5
ENDMDL
MODEL 6
REMARK VINA RESULT:      -6.7      2.323      3.968
REMARK  Name = *****
REMARK                            x       y       z     vdW  Elec       q    Type
REMARK                         _______ _______ _______ _____ _____    ______ ____
ROOT
ATOM      1  C   LIG    1       26.907 -21.529   7.216  0.00  0.00    +0.162 C 
ENDROOT
BRANCH   1   2
ATOM      2  C   LIG    1       25.432 -21.474   6.796  0.00  0.00    -0.007 A 
ATOM      3  C   LIG    1       24.936 -20.677   5.725  0.00  0.00    +0.009 A 
ATOM      4  C   LIG    1       23.543 -20.655   5.497  0.00  0.00    +0.071 A 
ATOM      5  C   LIG    1       23.020 -19.831   4.508  0.00  0.00    +0.032 A 
ATOM      6  C   LIG    1       23.850 -19.055   3.698  0.00  0.00    +0.048 A 
ATOM      7  C   LIG    1       25.226 -19.126   3.844  0.00  0.00    +0.121 A 
ATOM      8  N   LIG    1       22.668 -21.409   6.185  0.00  0.00    -0.255 NA
ATOM      9  C   LIG    1       23.165 -22.231   7.124  0.00  0.00    +0.112 A 
ATOM     10  C   LIG    1       25.769 -19.928   4.853  0.00  0.00    +0.056 A 
ATOM     11  C   LIG    1       24.498 -22.286   7.467  0.00  0.00    +0.026 A 
BRANCH   7  12
ATOM     12  O   LIG    1       25.952 -18.360   2.973  0.00  0.00    -0.495 OA
ATOM     13  C   LIG    1       26.046 -16.975   3.289  0.00  0.00    +0.277 C 
ENDBRANCH   7  12
ENDBRANCH   1   2
BRANCH   1  17
ATOM     14  C   LIG    1       30.575 -20.284   7.996  0.00  0.00    +0.028 C 
ATOM     15  C   LIG    1       29.654 -19.084   8.323  0.00  0.00    -0.000 C 
ATOM     16  C   LIG    1       28.190 -19.567   8.426  0.00  0.00    +0.026 C 
ATOM     17  C   LIG    1       27.727 -20.179   7.083  0.00  0.00    +0.090 C 
ATOM     18  N   LIG    1       28.882 -20.211   6.104  0.00  0.00    -0.296 NA
ATOM     19  C   LIG    1       29.271 -18.795   5.846  0.00  0.00    +0.085 C 
ATOM     20  C   LIG    1       29.761 -18.105   7.132  0.00  0.00    +0.019 C 
ATOM     21  C   LIG    1       30.103 -20.872   6.642  0.00  0.00    +0.092 C 
BRANCH  14  23
ATOM     22  C   LIG    1       31.524 -22.323   9.152  0.00  0.00    +0.004 C 
ATOM     23  C   LIG    1       30.621 -21.339   9.078  0.00  0.00    -0.029 C 
ENDBRANCH  14  23
ENDBRANCH   1  17
BRANCH   1  24
ATOM     24  O   LIG    1       26.944 -22.017   8.561  0.00  0.00    -0.386 OA
ATOM     25  H   LIG    1       27.870 -22.192   8.765  0.00  0.00    +0.210 HD
ENDBRANCH   1  24
TORSDOF 5
ENDMDL
MODEL 7
REMARK VINA RESULT:      -6.5      4.997      8.797
REMARK  Name = *****
REMARK                            x       y       z     vdW  Elec       q    Type
REMARK                         _______ _______ _______ _____ _____    ______ ____
ROOT
ATOM      1  C   LIG    1       26.165 -29.059   9.935  0.00  0.00    +0.162 C 
ENDROOT
BRANCH   1   2
ATOM      2  C   LIG    1       25.403 -29.476   8.670  0.00  0.00    -0.007 A 
ATOM      3  C   LIG    1       25.273 -28.658   7.511  0.00  0.00    +0.009 A 
ATOM      4  C   LIG    1       24.474 -29.131   6.447  0.00  0.00    +0.071 A 
ATOM      5  C   LIG    1       24.266 -28.326   5.333  0.00  0.00    +0.032 A 
ATOM      6  C   LIG    1       24.870 -27.072   5.222  0.00  0.00    +0.048 A 
ATOM      7  C   LIG    1       25.727 -26.624   6.213  0.00  0.00    +0.121 A 
ATOM      8  N   LIG    1       23.898 -30.345   6.435  0.00  0.00    -0.255 NA
ATOM      9  C   LIG    1       24.116 -31.143   7.494  0.00  0.00    +0.112 A 
ATOM     10  C   LIG    1       25.927 -27.408   7.354  0.00  0.00    +0.056 A 
ATOM     11  C   LIG    1       24.828 -30.759   8.609  0.00  0.00    +0.026 A 
BRANCH   7  12
ATOM     12  O   LIG    1       26.302 -25.404   5.988  0.00  0.00    -0.495 OA
ATOM     13  C   LIG    1       25.864 -24.343   6.831  0.00  0.00    +0.277 C 
ENDBRANCH   7  12
ENDBRANCH   1   2
BRANCH   1  17
ATOM     14  C   LIG    1       25.821 -28.203  13.777  0.00  0.00    +0.028 C 
ATOM     15  C   LIG    1       26.405 -29.635  13.725  0.00  0.00    -0.000 C 
ATOM     16  C   LIG    1       26.938 -29.926  12.304  0.00  0.00    +0.026 C 
ATOM     17  C   LIG    1       25.793 -29.833  11.268  0.00  0.00    +0.090 C 
ATOM     18  N   LIG    1       24.517 -29.386  11.947  0.00  0.00    -0.296 NA
ATOM     19  C   LIG    1       24.153 -30.447  12.929  0.00  0.00    +0.085 C 
ATOM     20  C   LIG    1       25.235 -30.602  14.014  0.00  0.00    +0.019 C 
ATOM     21  C   LIG    1       24.669 -28.136  12.743  0.00  0.00    +0.092 C 
BRANCH  14  23
ATOM     22  C   LIG    1       26.649 -26.028  12.787  0.00  0.00    +0.004 C 
ATOM     23  C   LIG    1       26.842 -27.111  13.547  0.00  0.00    -0.029 C 
ENDBRANCH  14  23
ENDBRANCH   1  17
BRANCH   1  24
ATOM     24  O   LIG    1       27.561 -29.184   9.646  0.00  0.00    -0.386 OA
ATOM     25  H   LIG    1       27.629 -29.697   8.832  0.00  0.00    +0.210 HD
ENDBRANCH   1  24
TORSDOF 5
ENDMDL
MODEL 8
REMARK VINA RESULT:      -6.3      5.296      8.667
REMARK  Name = *****
REMARK                            x       y       z     vdW  Elec       q    Type
REMARK                         _______ _______ _______ _____ _____    ______ ____
ROOT
ATOM      1  C   LIG    1       26.376 -29.002   9.900  0.00  0.00    +0.162 C 
ENDROOT
BRANCH   1   2
ATOM      2  C   LIG    1       25.544 -29.439   8.687  0.00  0.00    -0.007 A 
ATOM      3  C   LIG    1       25.311 -28.623   7.543  0.00  0.00    +0.009 A 
ATOM      4  C   LIG    1       24.457 -29.116   6.533  0.00  0.00    +0.071 A 
ATOM      5  C   LIG    1       24.151 -28.315   5.439  0.00  0.00    +0.032 A 
ATOM      6  C   LIG    1       24.708 -27.044   5.293  0.00  0.00    +0.048 A 
ATOM      7  C   LIG    1       25.616 -26.573   6.227  0.00  0.00    +0.121 A 
ATOM      8  N   LIG    1       23.917 -30.347   6.554  0.00  0.00    -0.255 NA
ATOM      9  C   LIG    1       24.230 -31.141   7.592  0.00  0.00    +0.112 A 
ATOM     10  C   LIG    1       25.915 -27.353   7.348  0.00  0.00    +0.056 A 
ATOM     11  C   LIG    1       25.004 -30.739   8.659  0.00  0.00    +0.026 A 
BRANCH   7  12
ATOM     12  O   LIG    1       26.138 -25.335   5.970  0.00  0.00    -0.495 OA
ATOM     13  C   LIG    1       25.223 -24.363   5.473  0.00  0.00    +0.277 C 
ENDBRANCH   7  12
ENDBRANCH   1   2
BRANCH   1  17
ATOM     14  C   LIG    1       27.497 -28.981  13.689  0.00  0.00    +0.028 C 
ATOM     15  C   LIG    1       26.348 -30.015  13.605  0.00  0.00    -0.000 C 
ATOM     16  C   LIG    1       26.094 -30.388  12.127  0.00  0.00    +0.026 C 
ATOM     17  C   LIG    1       25.678 -29.138  11.317  0.00  0.00    +0.090 C 
ATOM     18  N   LIG    1       25.744 -27.907  12.197  0.00  0.00    -0.296 NA
ATOM     19  C   LIG    1       24.741 -28.097  13.283  0.00  0.00    +0.085 C 
ATOM     20  C   LIG    1       25.083 -29.318  14.156  0.00  0.00    +0.019 C 
ATOM     21  C   LIG    1       27.054 -27.733  12.884  0.00  0.00    +0.092 C 
BRANCH  14  23
ATOM     22  C   LIG    1       29.912 -29.665  13.992  0.00  0.00    +0.004 C 
ATOM     23  C   LIG    1       28.834 -29.505  13.217  0.00  0.00    -0.029 C 
ENDBRANCH  14  23
ENDBRANCH   1  17
BRANCH   1  24
ATOM     24  O   LIG    1       27.598 -29.746   9.861  0.00  0.00    -0.386 OA
ATOM     25  H   LIG    1       27.420 -30.541   9.345  0.00  0.00    +0.210 HD
ENDBRANCH   1  24
TORSDOF 5
ENDMDL
MODEL 9
REMARK VINA RESULT:      -6.1      2.426      6.598
REMARK  Name = *****
REMARK                            x       y       z     vdW  Elec       q    Type
REMARK                         _______ _______ _______ _____ _____    ______ ____
ROOT
ATOM      1  C   LIG    1       26.832 -20.819   5.064  0.00  0.00    +0.162 C 
ENDROOT
BRANCH   1   2
ATOM      2  C   LIG    1       27.846 -19.720   5.412  0.00  0.00    -0.007 A 
ATOM      3  C   LIG    1       28.797 -19.818   6.468  0.00  0.00    +0.009 A 
ATOM      4  C   LIG    1       29.617 -18.699   6.734  0.00  0.00    +0.071 A 
ATOM      5  C   LIG    1       30.503 -18.734   7.803  0.00  0.00    +0.032 A 
ATOM      6  C   LIG    1       30.636 -19.874   8.598  0.00  0.00    +0.048 A 
ATOM      7  C   LIG    1       29.906 -21.014   8.303  0.00  0.00    +0.121 A 
ATOM      8  N   LIG    1       29.604 -17.578   5.992  0.00  0.00    -0.255 NA
ATOM      9  C   LIG    1       28.772 -17.544   4.938  0.00  0.00    +0.112 A 
ATOM     10  C   LIG    1       28.988 -20.988   7.248  0.00  0.00    +0.056 A 
ATOM     11  C   LIG    1       27.888 -18.554   4.626  0.00  0.00    +0.026 A 
BRANCH   7  12
ATOM     12  O   LIG    1       30.140 -22.091   9.114  0.00  0.00    -0.495 OA
ATOM     13  C   LIG    1       31.504 -22.467   9.272  0.00  0.00    +0.277 C 
ENDBRANCH   7  12
ENDBRANCH   1   2
BRANCH   1  17
ATOM     14  C   LIG    1       22.920 -20.978   5.593  0.00  0.00    +0.028 C 
ATOM     15  C   LIG    1       23.504 -20.560   6.964  0.00  0.00    -0.000 C 
ATOM     16  C   LIG    1       24.967 -20.096   6.784  0.00  0.00    +0.026 C 
ATOM     17  C   LIG    1       25.834 -21.246   6.220  0.00  0.00    +0.090 C 
ATOM     18  N   LIG    1       24.965 -22.448   5.920  0.00  0.00    -0.296 NA
ATOM     19  C   LIG    1       24.395 -22.907   7.219  0.00  0.00    +0.085 C 
ATOM     20  C   LIG    1       23.500 -21.825   7.852  0.00  0.00    +0.019 C 
ATOM     21  C   LIG    1       23.793 -22.139   5.054  0.00  0.00    +0.092 C 
BRANCH  14  23
ATOM     22  C   LIG    1       22.209 -18.677   4.822  0.00  0.00    +0.004 C 
ATOM     23  C   LIG    1       22.816 -19.847   4.595  0.00  0.00    -0.029 C 
ENDBRANCH  14  23
ENDBRANCH   1  17
BRANCH   1  24
ATOM     24  O   LIG    1       26.114 -20.378   3.908  0.00  0.00    -0.386 OA
ATOM     25  H   LIG    1       25.203 -20.672   4.021  0.00  0.00    +0.210 HD
ENDBRANCH   1  24
TORSDOF 5
ENDMDL
