MODEL 1
REMARK VINA RESULT:      -8.0      0.000      0.000
REMARK  Name = *****
REMARK                            x       y       z     vdW  Elec       q    Type
REMARK                         _______ _______ _______ _____ _____    ______ ____
ROOT
ATOM      1  S   LIG    1       26.024 -21.510   8.048  0.00  0.00    +0.084 S 
ATOM      2  O   LIG    1       26.144 -22.628   8.960  0.00  0.00    -0.149 OA
ATOM      3  O   LIG    1       25.298 -20.327   8.475  0.00  0.00    -0.149 OA
ENDROOT
BRANCH   1   4
ATOM      4  C   LIG    1       27.680 -20.977   7.636  0.00  0.00    +0.109 A 
ATOM      5  C   LIG    1       28.770 -21.511   8.328  0.00  0.00    +0.030 A 
ATOM      6  C   LIG    1       30.054 -21.006   8.094  0.00  0.00    +0.024 A 
ATOM      7  C   LIG    1       30.265 -19.982   7.166  0.00  0.00    +0.025 A 
ATOM      8  C   LIG    1       29.157 -19.421   6.524  0.00  0.00    +0.024 A 
ATOM      9  C   LIG    1       27.871 -19.923   6.740  0.00  0.00    +0.030 A 
BRANCH   7  10
ATOM     10  N   LIG    1       31.516 -19.363   7.073  0.00  0.00    -0.358 N 
ATOM     11  H   LIG    1       32.140 -19.575   7.846  0.00  0.00    +0.142 HD
ATOM     12  H   LIG    1       31.971 -19.471   6.172  0.00  0.00    +0.142 HD
ENDBRANCH   7  10
ENDBRANCH   1   4
BRANCH   1  15
ATOM     13  C   LIG    1       26.108 -24.446   6.698  0.00  0.00    +0.111 C 
ATOM     14  C   LIG    1       25.059 -23.424   6.342  0.00  0.00    +0.238 C 
ATOM     15  N   LIG    1       25.372 -22.048   6.573  0.00  0.00    -0.104 N 
ATOM     16  O   LIG    1       24.041 -23.792   5.758  0.00  0.00    -0.274 OA
BRANCH  15  17
ATOM     17  C   LIG    1       24.370 -21.148   6.087  0.00  0.00    +0.249 A 
ATOM     18  C   LIG    1       24.496 -20.284   5.015  0.00  0.00    +0.036 A 
ATOM     19  C   LIG    1       25.659 -20.080   4.120  0.00  0.00    +0.051 C 
ATOM     20  C   LIG    1       23.217 -19.662   4.934  0.00  0.00    +0.085 A 
ATOM     21  C   LIG    1       22.729 -18.676   3.940  0.00  0.00    +0.069 C 
ATOM     22  N   LIG    1       22.400 -20.091   5.903  0.00  0.00    -0.081 NA
ATOM     23  O   LIG    1       23.114 -21.042   6.602  0.00  0.00    -0.337 OA
ENDBRANCH  15  17
ENDBRANCH   1  15
TORSDOF 4
ENDMDL
MODEL 2
REMARK VINA RESULT:      -7.9      3.877      7.355
REMARK  Name = *****
REMARK                            x       y       z     vdW  Elec       q    Type
REMARK                         _______ _______ _______ _____ _____    ______ ____
ROOT
ATOM      1  S   LIG    1       29.763 -19.153   6.950  0.00  0.00    +0.084 S 
ATOM      2  O   LIG    1       30.457 -19.905   5.925  0.00  0.00    -0.149 OA
ATOM      3  O   LIG    1       29.546 -17.731   6.754  0.00  0.00    -0.149 OA
ENDROOT
BRANCH   1   4
ATOM      4  C   LIG    1       28.150 -19.895   7.158  0.00  0.00    +0.109 A 
ATOM      5  C   LIG    1       27.367 -20.173   6.034  0.00  0.00    +0.030 A 
ATOM      6  C   LIG    1       26.058 -20.637   6.200  0.00  0.00    +0.024 A 
ATOM      7  C   LIG    1       25.524 -20.842   7.476  0.00  0.00    +0.025 A 
ATOM      8  C   LIG    1       26.301 -20.506   8.588  0.00  0.00    +0.024 A 
ATOM      9  C   LIG    1       27.614 -20.052   8.438  0.00  0.00    +0.030 A 
BRANCH   7  10
ATOM     10  N   LIG    1       24.164 -21.130   7.633  0.00  0.00    -0.358 N 
ATOM     11  H   LIG    1       23.641 -21.137   6.762  0.00  0.00    +0.142 HD
ATOM     12  H   LIG    1       23.972 -21.948   8.202  0.00  0.00    +0.142 HD
ENDBRANCH   7  10
ENDBRANCH   1   4
BRANCH   1  15
ATOM     13  C   LIG    1       30.412 -21.894   8.536  0.00  0.00    +0.111 C 
ATOM     14  C   LIG    1       31.178 -20.619   8.781  0.00  0.00    +0.238 C 
ATOM     15  N   LIG    1       30.534 -19.387   8.447  0.00  0.00    -0.104 N 
ATOM     16  O   LIG    1       32.258 -20.674   9.367  0.00  0.00    -0.274 OA
BRANCH  15  17
ATOM     17  C   LIG    1       31.285 -18.230   8.832  0.00  0.00    +0.249 A 
ATOM     18  C   LIG    1       31.259 -17.611  10.068  0.00  0.00    +0.036 A 
ATOM     19  C   LIG    1       30.477 -17.978  11.272  0.00  0.00    +0.051 C 
ATOM     20  C   LIG    1       32.206 -16.556   9.934  0.00  0.00    +0.085 A 
ATOM     21  C   LIG    1       32.652 -15.578  10.955  0.00  0.00    +0.069 C 
ATOM     22  N   LIG    1       32.732 -16.521   8.705  0.00  0.00    -0.081 NA
ATOM     23  O   LIG    1       32.178 -17.587   8.029  0.00  0.00    -0.337 OA
ENDBRANCH  15  17
ENDBRANCH   1  15
TORSDOF 4
ENDMDL
MODEL 3
REMARK VINA RESULT:      -6.7      1.561      3.676
REMARK  Name = *****
REMARK                            x       y       z     vdW  Elec       q    Type
REMARK                         _______ _______ _______ _____ _____    ______ ____
ROOT
ATOM      1  S   LIG    1       25.400 -21.355   8.047  0.00  0.00    +0.084 S 
ATOM      2  O   LIG    1       25.542 -22.340   9.099  0.00  0.00    -0.149 OA
ATOM      3  O   LIG    1       24.739 -20.097   8.346  0.00  0.00    -0.149 OA
ENDROOT
BRANCH   1   4
ATOM      4  C   LIG    1       27.042 -20.950   7.468  0.00  0.00    +0.109 A 
ATOM      5  C   LIG    1       28.157 -21.438   8.156  0.00  0.00    +0.030 A 
ATOM      6  C   LIG    1       29.438 -21.021   7.780  0.00  0.00    +0.024 A 
ATOM      7  C   LIG    1       29.623 -20.134   6.715  0.00  0.00    +0.025 A 
ATOM      8  C   LIG    1       28.495 -19.613   6.075  0.00  0.00    +0.024 A 
ATOM      9  C   LIG    1       27.209 -20.028   6.433  0.00  0.00    +0.030 A 
BRANCH   7  10
ATOM     10  N   LIG    1       30.885 -19.586   6.466  0.00  0.00    -0.358 N 
ATOM     11  H   LIG    1       30.933 -19.030   5.616  0.00  0.00    +0.142 HD
ATOM     12  H   LIG    1       31.299 -19.108   7.260  0.00  0.00    +0.142 HD
ENDBRANCH   7  10
ENDBRANCH   1   4
BRANCH   1  15
ATOM     13  C   LIG    1       24.069 -19.966   5.448  0.00  0.00    +0.111 C 
ATOM     14  C   LIG    1       24.549 -21.396   5.444  0.00  0.00    +0.238 C 
ATOM     15  N   LIG    1       24.639 -22.066   6.703  0.00  0.00    -0.104 N 
ATOM     16  O   LIG    1       24.718 -21.965   4.366  0.00  0.00    -0.274 OA
BRANCH  15  17
ATOM     17  C   LIG    1       24.979 -23.452   6.586  0.00  0.00    +0.249 A 
ATOM     18  C   LIG    1       24.092 -24.512   6.548  0.00  0.00    +0.036 A 
ATOM     19  C   LIG    1       22.612 -24.485   6.610  0.00  0.00    +0.051 C 
ATOM     20  C   LIG    1       24.935 -25.648   6.381  0.00  0.00    +0.085 A 
ATOM     21  C   LIG    1       24.549 -27.070   6.219  0.00  0.00    +0.069 C 
ATOM     22  N   LIG    1       26.227 -25.302   6.359  0.00  0.00    -0.081 NA
ATOM     23  O   LIG    1       26.249 -23.927   6.455  0.00  0.00    -0.337 OA
ENDBRANCH  15  17
ENDBRANCH   1  15
TORSDOF 4
ENDMDL
MODEL 4
REMARK VINA RESULT:      -6.7      2.040      5.895
REMARK  Name = *****
REMARK                            x       y       z     vdW  Elec       q    Type
REMARK                         _______ _______ _______ _____ _____    ______ ____
ROOT
ATOM      1  S   LIG    1       25.522 -21.294   7.891  0.00  0.00    +0.084 S 
ATOM      2  O   LIG    1       24.395 -20.413   7.663  0.00  0.00    -0.149 OA
ATOM      3  O   LIG    1       26.048 -21.430   9.238  0.00  0.00    -0.149 OA
ENDROOT
BRANCH   1   4
ATOM      4  C   LIG    1       25.039 -22.931   7.360  0.00  0.00    +0.109 A 
ATOM      5  C   LIG    1       26.021 -23.885   7.082  0.00  0.00    +0.030 A 
ATOM      6  C   LIG    1       25.651 -25.124   6.547  0.00  0.00    +0.024 A 
ATOM      7  C   LIG    1       24.309 -25.428   6.299  0.00  0.00    +0.025 A 
ATOM      8  C   LIG    1       23.345 -24.442   6.530  0.00  0.00    +0.024 A 
ATOM      9  C   LIG    1       23.699 -23.204   7.074  0.00  0.00    +0.030 A 
BRANCH   7  10
ATOM     10  N   LIG    1       23.967 -26.590   5.600  0.00  0.00    -0.358 N 
ATOM     11  H   LIG    1       24.114 -26.526   4.597  0.00  0.00    +0.142 HD
ATOM     12  H   LIG    1       24.354 -27.443   5.990  0.00  0.00    +0.142 HD
ENDBRANCH   7  10
ENDBRANCH   1   4
BRANCH   1  15
ATOM     13  C   LIG    1       25.467 -20.604   4.734  0.00  0.00    +0.111 C 
ATOM     14  C   LIG    1       26.571 -20.131   5.644  0.00  0.00    +0.238 C 
ATOM     15  N   LIG    1       26.795 -20.868   6.848  0.00  0.00    -0.104 N 
ATOM     16  O   LIG    1       27.311 -19.224   5.264  0.00  0.00    -0.274 OA
BRANCH  15  17
ATOM     17  C   LIG    1       27.942 -20.423   7.581  0.00  0.00    +0.249 A 
ATOM     18  C   LIG    1       29.157 -21.076   7.676  0.00  0.00    +0.036 A 
ATOM     19  C   LIG    1       29.572 -22.358   7.057  0.00  0.00    +0.051 C 
ATOM     20  C   LIG    1       29.948 -20.199   8.472  0.00  0.00    +0.085 A 
ATOM     21  C   LIG    1       31.370 -20.339   8.869  0.00  0.00    +0.069 C 
ATOM     22  N   LIG    1       29.252 -19.124   8.857  0.00  0.00    -0.081 NA
ATOM     23  O   LIG    1       28.010 -19.252   8.272  0.00  0.00    -0.337 OA
ENDBRANCH  15  17
ENDBRANCH   1  15
TORSDOF 4
ENDMDL
MODEL 5
REMARK VINA RESULT:      -6.6      2.093      4.734
REMARK  Name = *****
REMARK                            x       y       z     vdW  Elec       q    Type
REMARK                         _______ _______ _______ _____ _____    ______ ____
ROOT
ATOM      1  S   LIG    1       26.182 -21.890   8.128  0.00  0.00    +0.084 S 
ATOM      2  O   LIG    1       25.232 -21.578   9.177  0.00  0.00    -0.149 OA
ATOM      3  O   LIG    1       27.544 -22.233   8.493  0.00  0.00    -0.149 OA
ENDROOT
BRANCH   1   4
ATOM      4  C   LIG    1       25.529 -23.278   7.211  0.00  0.00    +0.109 A 
ATOM      5  C   LIG    1       24.148 -23.495   7.176  0.00  0.00    +0.030 A 
ATOM      6  C   LIG    1       23.644 -24.648   6.565  0.00  0.00    +0.024 A 
ATOM      7  C   LIG    1       24.500 -25.582   5.974  0.00  0.00    +0.025 A 
ATOM      8  C   LIG    1       25.880 -25.377   6.067  0.00  0.00    +0.024 A 
ATOM      9  C   LIG    1       26.398 -24.225   6.665  0.00  0.00    +0.030 A 
BRANCH   7  10
ATOM     10  N   LIG    1       24.004 -26.812   5.529  0.00  0.00    -0.358 N 
ATOM     11  H   LIG    1       24.582 -27.607   5.786  0.00  0.00    +0.142 HD
ATOM     12  H   LIG    1       23.023 -26.967   5.737  0.00  0.00    +0.142 HD
ENDBRANCH   7  10
ENDBRANCH   1   4
BRANCH   1  15
ATOM     13  C   LIG    1       28.555 -19.804   7.446  0.00  0.00    +0.111 C 
ATOM     14  C   LIG    1       27.450 -20.117   6.470  0.00  0.00    +0.238 C 
ATOM     15  N   LIG    1       26.221 -20.618   7.002  0.00  0.00    -0.104 N 
ATOM     16  O   LIG    1       27.595 -19.814   5.286  0.00  0.00    -0.274 OA
BRANCH  15  17
ATOM     17  C   LIG    1       25.193 -20.763   6.016  0.00  0.00    +0.249 A 
ATOM     18  C   LIG    1       23.845 -20.512   6.196  0.00  0.00    +0.036 A 
ATOM     19  C   LIG    1       23.144 -20.037   7.412  0.00  0.00    +0.051 C 
ATOM     20  C   LIG    1       23.283 -20.768   4.912  0.00  0.00    +0.085 A 
ATOM     21  C   LIG    1       21.875 -20.616   4.472  0.00  0.00    +0.069 C 
ATOM     22  N   LIG    1       24.212 -21.176   4.041  0.00  0.00    -0.081 NA
ATOM     23  O   LIG    1       25.409 -21.142   4.726  0.00  0.00    -0.337 OA
ENDBRANCH  15  17
ENDBRANCH   1  15
TORSDOF 4
ENDMDL
MODEL 6
REMARK VINA RESULT:      -6.3      2.160      3.106
REMARK  Name = *****
REMARK                            x       y       z     vdW  Elec       q    Type
REMARK                         _______ _______ _______ _____ _____    ______ ____
ROOT
ATOM      1  S   LIG    1       27.777 -21.231   7.606  0.00  0.00    +0.084 S 
ATOM      2  O   LIG    1       28.317 -22.285   6.772  0.00  0.00    -0.149 OA
ATOM      3  O   LIG    1       27.284 -21.564   8.930  0.00  0.00    -0.149 OA
ENDROOT
BRANCH   1   4
ATOM      4  C   LIG    1       29.065 -20.012   7.827  0.00  0.00    +0.109 A 
ATOM      5  C   LIG    1       30.286 -20.169   7.166  0.00  0.00    +0.030 A 
ATOM      6  C   LIG    1       31.338 -19.285   7.435  0.00  0.00    +0.024 A 
ATOM      7  C   LIG    1       31.180 -18.236   8.344  0.00  0.00    +0.025 A 
ATOM      8  C   LIG    1       29.971 -18.127   9.038  0.00  0.00    +0.024 A 
ATOM      9  C   LIG    1       28.909 -18.996   8.773  0.00  0.00    +0.030 A 
BRANCH   7  10
ATOM     10  N   LIG    1       32.285 -17.474   8.740  0.00  0.00    -0.358 N 
ATOM     11  H   LIG    1       33.010 -17.401   8.032  0.00  0.00    +0.142 HD
ATOM     12  H   LIG    1       32.050 -16.573   9.141  0.00  0.00    +0.142 HD
ENDBRANCH   7  10
ENDBRANCH   1   4
BRANCH   1  15
ATOM     13  C   LIG    1       28.000 -19.232   5.075  0.00  0.00    +0.111 C 
ATOM     14  C   LIG    1       26.731 -19.975   5.408  0.00  0.00    +0.238 C 
ATOM     15  N   LIG    1       26.554 -20.408   6.758  0.00  0.00    -0.104 N 
ATOM     16  O   LIG    1       25.852 -20.067   4.552  0.00  0.00    -0.274 OA
BRANCH  15  17
ATOM     17  C   LIG    1       25.269 -20.988   7.006  0.00  0.00    +0.249 A 
ATOM     18  C   LIG    1       24.804 -22.191   6.508  0.00  0.00    +0.036 A 
ATOM     19  C   LIG    1       25.497 -23.159   5.625  0.00  0.00    +0.051 C 
ATOM     20  C   LIG    1       23.508 -22.314   7.086  0.00  0.00    +0.085 A 
ATOM     21  C   LIG    1       22.542 -23.432   6.961  0.00  0.00    +0.069 C 
ATOM     22  N   LIG    1       23.203 -21.253   7.840  0.00  0.00    -0.081 NA
ATOM     23  O   LIG    1       24.318 -20.441   7.813  0.00  0.00    -0.337 OA
ENDBRANCH  15  17
ENDBRANCH   1  15
TORSDOF 4
ENDMDL
MODEL 7
REMARK VINA RESULT:      -6.0      2.208      5.393
REMARK  Name = *****
REMARK                            x       y       z     vdW  Elec       q    Type
REMARK                         _______ _______ _______ _____ _____    ______ ____
ROOT
ATOM      1  S   LIG    1       24.046 -22.205   6.725  0.00  0.00    +0.084 S 
ATOM      2  O   LIG    1       22.807 -22.071   5.986  0.00  0.00    -0.149 OA
ATOM      3  O   LIG    1       24.061 -21.873   8.138  0.00  0.00    -0.149 OA
ENDROOT
BRANCH   1   4
ATOM      4  C   LIG    1       24.567 -23.909   6.590  0.00  0.00    +0.109 A 
ATOM      5  C   LIG    1       25.927 -24.224   6.665  0.00  0.00    +0.030 A 
ATOM      6  C   LIG    1       26.348 -25.538   6.435  0.00  0.00    +0.024 A 
ATOM      7  C   LIG    1       25.425 -26.548   6.146  0.00  0.00    +0.025 A 
ATOM      8  C   LIG    1       24.076 -26.206   6.020  0.00  0.00    +0.024 A 
ATOM      9  C   LIG    1       23.640 -24.899   6.257  0.00  0.00    +0.030 A 
BRANCH   7  10
ATOM     10  N   LIG    1       25.867 -27.812   5.741  0.00  0.00    -0.358 N 
ATOM     11  H   LIG    1       26.219 -28.388   6.500  0.00  0.00    +0.142 HD
ATOM     12  H   LIG    1       25.214 -28.314   5.150  0.00  0.00    +0.142 HD
ENDBRANCH   7  10
ENDBRANCH   1   4
BRANCH   1  15
ATOM     13  C   LIG    1       24.123 -20.973   3.737  0.00  0.00    +0.111 C 
ATOM     14  C   LIG    1       24.990 -20.445   4.851  0.00  0.00    +0.238 C 
ATOM     15  N   LIG    1       25.271 -21.323   5.943  0.00  0.00    -0.104 N 
ATOM     16  O   LIG    1       25.521 -19.342   4.722  0.00  0.00    -0.274 OA
BRANCH  15  17
ATOM     17  C   LIG    1       26.202 -20.779   6.884  0.00  0.00    +0.249 A 
ATOM     18  C   LIG    1       27.523 -20.453   6.635  0.00  0.00    +0.036 A 
ATOM     19  C   LIG    1       28.284 -20.573   5.369  0.00  0.00    +0.051 C 
ATOM     20  C   LIG    1       27.976 -19.920   7.875  0.00  0.00    +0.085 A 
ATOM     21  C   LIG    1       29.304 -19.348   8.206  0.00  0.00    +0.069 C 
ATOM     22  N   LIG    1       27.017 -19.958   8.806  0.00  0.00    -0.081 NA
ATOM     23  O   LIG    1       25.901 -20.466   8.175  0.00  0.00    -0.337 OA
ENDBRANCH  15  17
ENDBRANCH   1  15
TORSDOF 4
ENDMDL
MODEL 8
REMARK VINA RESULT:      -5.9      2.355      4.235
REMARK  Name = *****
REMARK                            x       y       z     vdW  Elec       q    Type
REMARK                         _______ _______ _______ _____ _____    ______ ____
ROOT
ATOM      1  S   LIG    1       24.828 -21.333   5.514  0.00  0.00    +0.084 S 
ATOM      2  O   LIG    1       23.918 -20.279   5.912  0.00  0.00    -0.149 OA
ATOM      3  O   LIG    1       25.007 -21.611   4.100  0.00  0.00    -0.149 OA
ENDROOT
BRANCH   1   4
ATOM      4  C   LIG    1       26.440 -20.923   6.166  0.00  0.00    +0.109 A 
ATOM      5  C   LIG    1       27.239 -19.990   5.499  0.00  0.00    +0.030 A 
ATOM      6  C   LIG    1       28.548 -19.760   5.936  0.00  0.00    +0.024 A 
ATOM      7  C   LIG    1       29.066 -20.440   7.043  0.00  0.00    +0.025 A 
ATOM      8  C   LIG    1       28.273 -21.409   7.664  0.00  0.00    +0.024 A 
ATOM      9  C   LIG    1       26.960 -21.642   7.244  0.00  0.00    +0.030 A 
BRANCH   7  10
ATOM     10  N   LIG    1       30.425 -20.339   7.359  0.00  0.00    -0.358 N 
ATOM     11  H   LIG    1       30.887 -19.536   6.942  0.00  0.00    +0.142 HD
ATOM     12  H   LIG    1       30.632 -20.429   8.348  0.00  0.00    +0.142 HD
ENDBRANCH   7  10
ENDBRANCH   1   4
BRANCH   1  15
ATOM     13  C   LIG    1       22.613 -21.861   7.809  0.00  0.00    +0.111 C 
ATOM     14  C   LIG    1       23.122 -22.959   6.910  0.00  0.00    +0.238 C 
ATOM     15  N   LIG    1       24.404 -22.777   6.305  0.00  0.00    -0.104 N 
ATOM     16  O   LIG    1       22.486 -24.009   6.832  0.00  0.00    -0.274 OA
BRANCH  15  17
ATOM     17  C   LIG    1       24.856 -23.922   5.575  0.00  0.00    +0.249 A 
ATOM     18  C   LIG    1       25.513 -25.021   6.099  0.00  0.00    +0.036 A 
ATOM     19  C   LIG    1       25.897 -25.287   7.506  0.00  0.00    +0.051 C 
ATOM     20  C   LIG    1       25.691 -25.873   4.973  0.00  0.00    +0.085 A 
ATOM     21  C   LIG    1       26.290 -27.229   4.924  0.00  0.00    +0.069 C 
ATOM     22  N   LIG    1       25.215 -25.316   3.854  0.00  0.00    -0.081 NA
ATOM     23  O   LIG    1       24.665 -24.111   4.240  0.00  0.00    -0.337 OA
ENDBRANCH  15  17
ENDBRANCH   1  15
TORSDOF 4
ENDMDL
MODEL 9
REMARK VINA RESULT:      -5.9      7.585      9.235
REMARK  Name = *****
REMARK                            x       y       z     vdW  Elec       q    Type
REMARK                         _______ _______ _______ _____ _____    ______ ____
ROOT
ATOM      1  S   LIG    1       24.622 -30.778   9.379  0.00  0.00    +0.084 S 
ATOM      2  O   LIG    1       24.644 -32.175   9.762  0.00  0.00    -0.149 OA
ATOM      3  O   LIG    1       23.342 -30.114   9.212  0.00  0.00    -0.149 OA
ENDROOT
BRANCH   1   4
ATOM      4  C   LIG    1       25.517 -29.866  10.629  0.00  0.00    +0.109 A 
ATOM      5  C   LIG    1       24.812 -29.202  11.636  0.00  0.00    +0.030 A 
ATOM      6  C   LIG    1       25.501 -28.386  12.540  0.00  0.00    +0.024 A 
ATOM      7  C   LIG    1       26.888 -28.237  12.461  0.00  0.00    +0.025 A 
ATOM      8  C   LIG    1       27.570 -28.864  11.414  0.00  0.00    +0.024 A 
ATOM      9  C   LIG    1       26.897 -29.690  10.510  0.00  0.00    +0.030 A 
BRANCH   7  10
ATOM     10  N   LIG    1       27.541 -27.284  13.250  0.00  0.00    -0.358 N 
ATOM     11  H   LIG    1       27.297 -26.324  13.024  0.00  0.00    +0.142 HD
ATOM     12  H   LIG    1       27.499 -27.466  14.247  0.00  0.00    +0.142 HD
ENDBRANCH   7  10
ENDBRANCH   1   4
BRANCH   1  15
ATOM     13  C   LIG    1       26.932 -32.648   8.106  0.00  0.00    +0.111 C 
ATOM     14  C   LIG    1       26.142 -31.666   7.279  0.00  0.00    +0.238 C 
ATOM     15  N   LIG    1       25.537 -30.565   7.961  0.00  0.00    -0.104 N 
ATOM     16  O   LIG    1       26.153 -31.772   6.054  0.00  0.00    -0.274 OA
BRANCH  15  17
ATOM     17  C   LIG    1       24.918 -29.621   7.080  0.00  0.00    +0.249 A 
ATOM     18  C   LIG    1       25.227 -28.278   6.971  0.00  0.00    +0.036 A 
ATOM     19  C   LIG    1       26.249 -27.499   7.711  0.00  0.00    +0.051 C 
ATOM     20  C   LIG    1       24.364 -27.818   5.937  0.00  0.00    +0.085 A 
ATOM     21  C   LIG    1       24.277 -26.464   5.337  0.00  0.00    +0.069 C 
ATOM     22  N   LIG    1       23.573 -28.797   5.485  0.00  0.00    -0.081 NA
ATOM     23  O   LIG    1       23.944 -29.929   6.180  0.00  0.00    -0.337 OA
ENDBRANCH  15  17
ENDBRANCH   1  15
TORSDOF 4
ENDMDL
