MODEL 1
REMARK VINA RESULT:      -5.5      0.000      0.000
REMARK  Name = *****
REMARK                            x       y       z     vdW  Elec       q    Type
REMARK                         _______ _______ _______ _____ _____    ______ ____
ROOT
ATOM      1  C   LIG    1       21.305 -32.080  10.457  0.00  0.00    +0.134 C 
ATOM      2  C   LIG    1       22.274 -31.558   9.402  0.00  0.00    +0.079 C 
ATOM      3  C   LIG    1       23.646 -31.167   9.959  0.00  0.00    +0.158 C 
ATOM      4  C   LIG    1       23.421 -30.158  11.081  0.00  0.00    +0.030 A 
ATOM      5  C   LIG    1       22.222 -30.124  11.836  0.00  0.00    +0.007 A 
ATOM      6  C   LIG    1       22.074 -29.163  12.849  0.00  0.00    +0.132 A 
ATOM      7  C   LIG    1       23.099 -28.252  13.128  0.00  0.00    +0.078 A 
ATOM      8  C   LIG    1       22.926 -27.232  14.172  0.00  0.00    +0.198 C 
ATOM      9  O   LIG    1       21.903 -27.229  14.851  0.00  0.00    -0.286 OA
ATOM     10  C   LIG    1       23.962 -26.206  14.368  0.00  0.00    +0.037 A 
ATOM     11  C   LIG    1       25.153 -26.230  13.635  0.00  0.00    +0.075 A 
ATOM     12  C   LIG    1       26.114 -25.222  13.835  0.00  0.00    +0.132 A 
ATOM     13  C   LIG    1       25.853 -24.214  14.771  0.00  0.00    +0.046 A 
ATOM     14  C   LIG    1       24.666 -24.202  15.500  0.00  0.00    +0.004 A 
ATOM     15  C   LIG    1       25.371 -27.338  12.680  0.00  0.00    +0.202 C 
ATOM     16  O   LIG    1       26.451 -27.531  12.129  0.00  0.00    -0.286 OA
ATOM     17  C   LIG    1       23.717 -25.193  15.298  0.00  0.00    +0.012 A 
ATOM     18  C   LIG    1       24.274 -28.277  12.382  0.00  0.00    +0.078 A 
ATOM     19  C   LIG    1       24.415 -29.207  11.343  0.00  0.00    +0.135 A 
ATOM     20  C   LIG    1       21.029 -31.003  11.509  0.00  0.00    +0.082 C 
ENDROOT
BRANCH   1  21
ATOM     21  O   LIG    1       21.888 -33.231  11.093  0.00  0.00    -0.381 OA
ATOM     22  H   LIG    1       22.035 -32.989  12.030  0.00  0.00    +0.211 HD
ENDBRANCH   1  21
BRANCH  19  23
ATOM     23  O   LIG    1       25.494 -29.177  10.496  0.00  0.00    -0.506 OA
ATOM     24  H   LIG    1       25.984 -28.334  10.636  0.00  0.00    +0.292 HD
ENDBRANCH  19  23
BRANCH   6  25
ATOM     25  O   LIG    1       20.875 -29.140  13.521  0.00  0.00    -0.506 OA
ATOM     26  H   LIG    1       20.976 -28.592  14.333  0.00  0.00    +0.292 HD
ENDBRANCH   6  25
BRANCH  12  27
ATOM     27  O   LIG    1       27.222 -25.201  13.032  0.00  0.00    -0.494 OA
ATOM     28  C   LIG    1       28.475 -24.959  13.660  0.00  0.00    +0.277 C 
ENDBRANCH  12  27
BRANCH   1  29
ATOM     29  C   LIG    1       19.956 -32.561   9.879  0.00  0.00    +0.202 C 
ATOM     30  O   LIG    1       19.929 -33.537   9.116  0.00  0.00    -0.291 OA
BRANCH  29  31
ATOM     31  C   LIG    1       18.663 -31.847  10.252  0.00  0.00    +0.309 C 
BRANCH  31  32
ATOM     32  O   LIG    1       17.602 -32.704  10.643  0.00  0.00    -0.457 OA
BRANCH  32  33
ATOM     33  C   LIG    1       17.134 -32.497  11.922  0.00  0.00    +0.307 C 
ATOM     34  O   LIG    1       17.003 -33.333  12.768  0.00  0.00    -0.251 OA
BRANCH  33  35
ATOM     35  C   LIG    1       16.908 -31.023  12.144  0.00  0.00    +0.120 C 
BRANCH  35  36
ATOM     36  C   LIG    1       16.880 -30.729  13.646  0.00  0.00    +0.011 C 
BRANCH  36  38
ATOM     37  C   LIG    1       16.206 -28.388  14.404  0.00  0.00    +0.004 C 
ATOM     38  C   LIG    1       17.349 -29.311  14.007  0.00  0.00    -0.003 C 
ENDBRANCH  36  38
ENDBRANCH  35  36
ENDBRANCH  33  35
ENDBRANCH  32  33
ENDBRANCH  31  32
ENDBRANCH  29  31
ENDBRANCH   1  29
BRANCH   3  39
ATOM     39  O   LIG    1       24.499 -32.225  10.424  0.00  0.00    -0.343 OA
BRANCH  39  40
ATOM     40  C   LIG    1       25.600 -32.514   9.566  0.00  0.00    +0.253 C 
ATOM     41  O   LIG    1       25.365 -33.564   8.638  0.00  0.00    -0.346 OA
ATOM     42  C   LIG    1       24.672 -33.291   7.418  0.00  0.00    +0.148 C 
ATOM     43  C   LIG    1       23.238 -33.813   7.456  0.00  0.00    +0.040 C 
ATOM     44  C   LIG    1       24.820 -31.878   6.805  0.00  0.00    +0.163 C 
ATOM     45  C   LIG    1       25.123 -30.774   7.832  0.00  0.00    +0.109 C 
ATOM     46  C   LIG    1       26.117 -31.257   8.871  0.00  0.00    +0.086 C 
BRANCH  45  47
ATOM     47  N   LIG    1       25.604 -29.547   7.167  0.00  0.00    -0.302 N 
ATOM     48  H   LIG    1       26.528 -29.536   6.739  0.00  0.00    +0.149 HD
ATOM     49  C   LIG    1       24.722 -28.521   6.826  0.00  0.00    +0.318 C 
ATOM     50  O   LIG    1       23.521 -28.603   7.100  0.00  0.00    -0.266 OA
BRANCH  49  51
ATOM     51  C   LIG    1       25.350 -27.285   6.135  0.00  0.00    +0.469 C 
ATOM     52  F   LIG    1       24.676 -26.137   6.422  0.00  0.00    -0.162 F 
ATOM     53  F   LIG    1       25.377 -27.393   4.778  0.00  0.00    -0.162 F 
ATOM     54  F   LIG    1       26.643 -27.077   6.527  0.00  0.00    -0.162 F 
ENDBRANCH  49  51
ENDBRANCH  45  47
BRANCH  44  55
ATOM     55  O   LIG    1       23.686 -31.538   5.996  0.00  0.00    -0.387 OA
ATOM     56  H   LIG    1       24.009 -31.064   5.200  0.00  0.00    +0.210 HD
ENDBRANCH  44  55
ENDBRANCH  39  40
ENDBRANCH   3  39
TORSDOF 16
ENDMDL
MODEL 2
REMARK VINA RESULT:      -4.2      3.698      8.885
REMARK  Name = *****
REMARK                            x       y       z     vdW  Elec       q    Type
REMARK                         _______ _______ _______ _____ _____    ______ ____
ROOT
ATOM      1  C   LIG    1       23.387 -30.819  13.451  0.00  0.00    +0.134 C 
ATOM      2  C   LIG    1       22.585 -30.019  12.430  0.00  0.00    +0.079 C 
ATOM      3  C   LIG    1       22.173 -30.825  11.194  0.00  0.00    +0.158 C 
ATOM      4  C   LIG    1       23.438 -31.425  10.589  0.00  0.00    +0.030 A 
ATOM      5  C   LIG    1       24.589 -31.704  11.367  0.00  0.00    +0.007 A 
ATOM      6  C   LIG    1       25.725 -32.248  10.746  0.00  0.00    +0.132 A 
ATOM      7  C   LIG    1       25.727 -32.527   9.374  0.00  0.00    +0.078 A 
ATOM      8  C   LIG    1       26.929 -33.071   8.727  0.00  0.00    +0.198 C 
ATOM      9  O   LIG    1       27.910 -33.349   9.410  0.00  0.00    -0.286 OA
ATOM     10  C   LIG    1       26.955 -33.243   7.266  0.00  0.00    +0.037 A 
ATOM     11  C   LIG    1       25.826 -32.977   6.485  0.00  0.00    +0.075 A 
ATOM     12  C   LIG    1       25.893 -33.133   5.088  0.00  0.00    +0.132 A 
ATOM     13  C   LIG    1       27.096 -33.557   4.511  0.00  0.00    +0.046 A 
ATOM     14  C   LIG    1       28.215 -33.825   5.299  0.00  0.00    +0.004 A 
ATOM     15  C   LIG    1       24.582 -32.555   7.164  0.00  0.00    +0.202 C 
ATOM     16  O   LIG    1       23.507 -32.471   6.579  0.00  0.00    -0.286 OA
ATOM     17  C   LIG    1       28.149 -33.664   6.676  0.00  0.00    +0.012 A 
ATOM     18  C   LIG    1       24.602 -32.245   8.606  0.00  0.00    +0.078 A 
ATOM     19  C   LIG    1       23.478 -31.666   9.210  0.00  0.00    +0.135 A 
ATOM     20  C   LIG    1       24.694 -31.318  12.831  0.00  0.00    +0.082 C 
ENDROOT
BRANCH   1  21
ATOM     21  O   LIG    1       22.599 -31.945  13.878  0.00  0.00    -0.381 OA
ATOM     22  H   LIG    1       22.126 -31.663  14.688  0.00  0.00    +0.211 HD
ENDBRANCH   1  21
BRANCH  19  23
ATOM     23  O   LIG    1       22.402 -31.246   8.468  0.00  0.00    -0.506 OA
ATOM     24  H   LIG    1       22.629 -31.315   7.513  0.00  0.00    +0.292 HD
ENDBRANCH  19  23
BRANCH   6  25
ATOM     25  O   LIG    1       26.831 -32.457  11.535  0.00  0.00    -0.506 OA
ATOM     26  H   LIG    1       27.162 -31.587  11.855  0.00  0.00    +0.292 HD
ENDBRANCH   6  25
BRANCH  12  27
ATOM     27  O   LIG    1       24.814 -32.765   4.333  0.00  0.00    -0.494 OA
ATOM     28  C   LIG    1       24.272 -33.742   3.453  0.00  0.00    +0.277 C 
ENDBRANCH  12  27
BRANCH   1  29
ATOM     29  C   LIG    1       23.720 -30.031  14.736  0.00  0.00    +0.202 C 
ATOM     30  O   LIG    1       22.837 -29.364  15.293  0.00  0.00    -0.291 OA
BRANCH  29  31
ATOM     31  C   LIG    1       25.125 -30.080  15.324  0.00  0.00    +0.309 C 
BRANCH  31  32
ATOM     32  O   LIG    1       25.842 -28.859  15.249  0.00  0.00    -0.457 OA
BRANCH  32  33
ATOM     33  C   LIG    1       26.900 -28.863  14.365  0.00  0.00    +0.307 C 
ATOM     34  O   LIG    1       27.483 -29.830  13.969  0.00  0.00    -0.251 OA
BRANCH  33  35
ATOM     35  C   LIG    1       27.152 -27.460  13.873  0.00  0.00    +0.120 C 
BRANCH  35  36
ATOM     36  C   LIG    1       25.917 -26.596  14.137  0.00  0.00    +0.011 C 
BRANCH  36  38
ATOM     37  C   LIG    1       23.462 -26.164  13.595  0.00  0.00    +0.004 C 
ATOM     38  C   LIG    1       24.728 -26.920  13.220  0.00  0.00    -0.003 C 
ENDBRANCH  36  38
ENDBRANCH  35  36
ENDBRANCH  33  35
ENDBRANCH  32  33
ENDBRANCH  31  32
ENDBRANCH  29  31
ENDBRANCH   1  29
BRANCH   3  39
ATOM     39  O   LIG    1       21.187 -31.854  11.374  0.00  0.00    -0.343 OA
BRANCH  39  40
ATOM     40  C   LIG    1       19.848 -31.437  11.118  0.00  0.00    +0.253 C 
ATOM     41  O   LIG    1       18.853 -32.366  11.526  0.00  0.00    -0.346 OA
ATOM     42  C   LIG    1       18.430 -32.398  12.891  0.00  0.00    +0.148 C 
ATOM     43  C   LIG    1       19.005 -33.602  13.631  0.00  0.00    +0.040 C 
ATOM     44  C   LIG    1       18.479 -31.075  13.693  0.00  0.00    +0.163 C 
ATOM     45  C   LIG    1       19.533 -30.073  13.192  0.00  0.00    +0.109 C 
ATOM     46  C   LIG    1       19.576 -30.042  11.676  0.00  0.00    +0.086 C 
BRANCH  45  47
ATOM     47  N   LIG    1       19.290 -28.725  13.744  0.00  0.00    -0.302 N 
ATOM     48  H   LIG    1       20.014 -28.014  13.672  0.00  0.00    +0.149 HD
ATOM     49  C   LIG    1       17.999 -28.303  14.065  0.00  0.00    +0.318 C 
ATOM     50  O   LIG    1       17.033 -29.059  13.924  0.00  0.00    -0.266 OA
BRANCH  49  51
ATOM     51  C   LIG    1       17.876 -26.870  14.640  0.00  0.00    +0.469 C 
ATOM     52  F   LIG    1       17.888 -25.921  13.663  0.00  0.00    -0.162 F 
ATOM     53  F   LIG    1       18.884 -26.556  15.499  0.00  0.00    -0.162 F 
ATOM     54  F   LIG    1       16.713 -26.690  15.334  0.00  0.00    -0.162 F 
ENDBRANCH  49  51
ENDBRANCH  45  47
BRANCH  44  55
ATOM     55  O   LIG    1       18.622 -31.320  15.098  0.00  0.00    -0.387 OA
ATOM     56  H   LIG    1       18.752 -32.283  15.230  0.00  0.00    +0.210 HD
ENDBRANCH  44  55
ENDBRANCH  39  40
ENDBRANCH   3  39
TORSDOF 16
ENDMDL
MODEL 3
REMARK VINA RESULT:      -3.6      7.953     12.983
REMARK  Name = *****
REMARK                            x       y       z     vdW  Elec       q    Type
REMARK                         _______ _______ _______ _____ _____    ______ ____
ROOT
ATOM      1  C   LIG    1       24.918 -19.977   4.745  0.00  0.00    +0.134 C 
ATOM      2  C   LIG    1       24.635 -19.999   6.244  0.00  0.00    +0.079 C 
ATOM      3  C   LIG    1       25.547 -20.941   7.034  0.00  0.00    +0.158 C 
ATOM      4  C   LIG    1       25.438 -22.327   6.408  0.00  0.00    +0.030 A 
ATOM      5  C   LIG    1       25.098 -22.516   5.045  0.00  0.00    +0.007 A 
ATOM      6  C   LIG    1       25.004 -23.820   4.533  0.00  0.00    +0.132 A 
ATOM      7  C   LIG    1       25.255 -24.930   5.348  0.00  0.00    +0.078 A 
ATOM      8  C   LIG    1       25.128 -26.292   4.812  0.00  0.00    +0.198 C 
ATOM      9  O   LIG    1       24.872 -26.452   3.622  0.00  0.00    -0.286 OA
ATOM     10  C   LIG    1       25.274 -27.447   5.712  0.00  0.00    +0.037 A 
ATOM     11  C   LIG    1       25.616 -27.277   7.058  0.00  0.00    +0.075 A 
ATOM     12  C   LIG    1       25.727 -28.403   7.895  0.00  0.00    +0.132 A 
ATOM     13  C   LIG    1       25.496 -29.674   7.355  0.00  0.00    +0.046 A 
ATOM     14  C   LIG    1       25.162 -29.832   6.011  0.00  0.00    +0.004 A 
ATOM     15  C   LIG    1       25.868 -25.907   7.554  0.00  0.00    +0.202 C 
ATOM     16  O   LIG    1       26.339 -25.685   8.666  0.00  0.00    -0.286 OA
ATOM     17  C   LIG    1       25.046 -28.721   5.189  0.00  0.00    +0.012 A 
ATOM     18  C   LIG    1       25.580 -24.748   6.689  0.00  0.00    +0.078 A 
ATOM     19  C   LIG    1       25.637 -23.452   7.219  0.00  0.00    +0.135 A 
ATOM     20  C   LIG    1       24.701 -21.365   4.139  0.00  0.00    +0.082 C 
ENDROOT
BRANCH   1  21
ATOM     21  O   LIG    1       26.284 -19.574   4.539  0.00  0.00    -0.381 OA
ATOM     22  H   LIG    1       26.788 -19.885   5.318  0.00  0.00    +0.211 HD
ENDBRANCH   1  21
BRANCH  19  23
ATOM     23  O   LIG    1       25.818 -23.234   8.562  0.00  0.00    -0.506 OA
ATOM     24  H   LIG    1       26.720 -23.538   8.814  0.00  0.00    +0.292 HD
ENDBRANCH  19  23
BRANCH   6  25
ATOM     25  O   LIG    1       24.626 -23.951   3.218  0.00  0.00    -0.506 OA
ATOM     26  H   LIG    1       23.959 -24.673   3.150  0.00  0.00    +0.292 HD
ENDBRANCH   6  25
BRANCH  12  27
ATOM     27  O   LIG    1       25.954 -28.209   9.230  0.00  0.00    -0.494 OA
ATOM     28  C   LIG    1       26.914 -29.053   9.855  0.00  0.00    +0.277 C 
ENDBRANCH  12  27
BRANCH   1  29
ATOM     29  C   LIG    1       24.060 -18.958   3.964  0.00  0.00    +0.202 C 
ATOM     30  O   LIG    1       22.955 -19.301   3.519  0.00  0.00    -0.291 OA
BRANCH  29  31
ATOM     31  C   LIG    1       24.561 -17.536   3.749  0.00  0.00    +0.309 C 
BRANCH  31  32
ATOM     32  O   LIG    1       25.733 -17.433   2.956  0.00  0.00    -0.457 OA
BRANCH  32  33
ATOM     33  C   LIG    1       26.682 -16.558   3.440  0.00  0.00    +0.307 C 
ATOM     34  O   LIG    1       27.636 -16.850   4.101  0.00  0.00    -0.251 OA
BRANCH  33  35
ATOM     35  C   LIG    1       26.405 -15.172   2.915  0.00  0.00    +0.120 C 
BRANCH  35  36
ATOM     36  C   LIG    1       26.503 -14.162   4.060  0.00  0.00    +0.011 C 
BRANCH  36  38
ATOM     37  C   LIG    1       24.011 -13.759   3.688  0.00  0.00    +0.004 C 
ATOM     38  C   LIG    1       25.148 -13.817   4.697  0.00  0.00    -0.003 C 
ENDBRANCH  36  38
ENDBRANCH  35  36
ENDBRANCH  33  35
ENDBRANCH  32  33
ENDBRANCH  31  32
ENDBRANCH  29  31
ENDBRANCH   1  29
BRANCH   3  39
ATOM     39  O   LIG    1       26.930 -20.573   7.157  0.00  0.00    -0.343 OA
BRANCH  39  40
ATOM     40  C   LIG    1       27.453 -20.683   8.480  0.00  0.00    +0.253 C 
ATOM     41  O   LIG    1       28.244 -21.841   8.707  0.00  0.00    -0.346 OA
ATOM     42  C   LIG    1       29.619 -21.849   8.318  0.00  0.00    +0.148 C 
ATOM     43  C   LIG    1       29.843 -22.677   7.055  0.00  0.00    +0.040 C 
ATOM     44  C   LIG    1       30.383 -20.503   8.340  0.00  0.00    +0.163 C 
ATOM     45  C   LIG    1       29.488 -19.267   8.140  0.00  0.00    +0.109 C 
ATOM     46  C   LIG    1       28.185 -19.412   8.903  0.00  0.00    +0.086 C 
BRANCH  45  47
ATOM     47  N   LIG    1       30.196 -18.031   8.528  0.00  0.00    -0.302 N 
ATOM     48  H   LIG    1       30.026 -17.171   8.010  0.00  0.00    +0.149 HD
ATOM     49  C   LIG    1       30.834 -17.926   9.765  0.00  0.00    +0.318 C 
ATOM     50  O   LIG    1       30.847 -18.876  10.552  0.00  0.00    -0.266 OA
BRANCH  49  51
ATOM     51  C   LIG    1       31.544 -16.579  10.051  0.00  0.00    +0.469 C 
ATOM     52  F   LIG    1       31.548 -15.759   8.964  0.00  0.00    -0.162 F 
ATOM     53  F   LIG    1       32.843 -16.736  10.426  0.00  0.00    -0.162 F 
ATOM     54  F   LIG    1       30.938 -15.880  11.057  0.00  0.00    -0.162 F 
ENDBRANCH  49  51
ENDBRANCH  45  47
BRANCH  44  55
ATOM     55  O   LIG    1       31.477 -20.507   7.413  0.00  0.00    -0.387 OA
ATOM     56  H   LIG    1       32.078 -21.244   7.652  0.00  0.00    +0.210 HD
ENDBRANCH  44  55
ENDBRANCH  39  40
ENDBRANCH   3  39
TORSDOF 16
ENDMDL
MODEL 4
REMARK VINA RESULT:      -3.2      3.903      7.373
REMARK  Name = *****
REMARK                            x       y       z     vdW  Elec       q    Type
REMARK                         _______ _______ _______ _____ _____    ______ ____
ROOT
ATOM      1  C   LIG    1       24.820 -30.594   6.580  0.00  0.00    +0.134 C 
ATOM      2  C   LIG    1       26.028 -30.301   7.464  0.00  0.00    +0.079 C 
ATOM      3  C   LIG    1       25.858 -29.071   8.359  0.00  0.00    +0.158 C 
ATOM      4  C   LIG    1       25.503 -27.889   7.462  0.00  0.00    +0.030 A 
ATOM      5  C   LIG    1       24.849 -28.057   6.216  0.00  0.00    +0.007 A 
ATOM      6  C   LIG    1       24.559 -26.928   5.433  0.00  0.00    +0.132 A 
ATOM      7  C   LIG    1       24.898 -25.643   5.874  0.00  0.00    +0.078 A 
ATOM      8  C   LIG    1       24.616 -24.470   5.037  0.00  0.00    +0.198 C 
ATOM      9  O   LIG    1       24.013 -24.614   3.977  0.00  0.00    -0.286 OA
ATOM     10  C   LIG    1       25.088 -23.142   5.460  0.00  0.00    +0.037 A 
ATOM     11  C   LIG    1       25.730 -22.960   6.689  0.00  0.00    +0.075 A 
ATOM     12  C   LIG    1       26.186 -21.679   7.052  0.00  0.00    +0.132 A 
ATOM     13  C   LIG    1       25.982 -20.611   6.170  0.00  0.00    +0.046 A 
ATOM     14  C   LIG    1       25.336 -20.803   4.949  0.00  0.00    +0.004 A 
ATOM     15  C   LIG    1       25.892 -24.128   7.581  0.00  0.00    +0.202 C 
ATOM     16  O   LIG    1       26.283 -24.024   8.739  0.00  0.00    -0.286 OA
ATOM     17  C   LIG    1       24.892 -22.067   4.590  0.00  0.00    +0.012 A 
ATOM     18  C   LIG    1       25.549 -25.477   7.093  0.00  0.00    +0.078 A 
ATOM     19  C   LIG    1       25.877 -26.601   7.863  0.00  0.00    +0.135 A 
ATOM     20  C   LIG    1       24.560 -29.426   5.627  0.00  0.00    +0.082 C 
ENDROOT
BRANCH   1  21
ATOM     21  O   LIG    1       23.670 -30.792   7.420  0.00  0.00    -0.381 OA
ATOM     22  H   LIG    1       23.331 -29.901   7.645  0.00  0.00    +0.211 HD
ENDBRANCH   1  21
BRANCH  19  23
ATOM     23  O   LIG    1       26.638 -26.493   9.000  0.00  0.00    -0.506 OA
ATOM     24  H   LIG    1       27.412 -27.097   8.922  0.00  0.00    +0.292 HD
ENDBRANCH  19  23
BRANCH   6  25
ATOM     25  O   LIG    1       23.966 -27.148   4.213  0.00  0.00    -0.506 OA
ATOM     26  H   LIG    1       23.016 -26.893   4.271  0.00  0.00    +0.292 HD
ENDBRANCH   6  25
BRANCH  12  27
ATOM     27  O   LIG    1       26.908 -21.541   8.206  0.00  0.00    -0.494 OA
ATOM     28  C   LIG    1       28.290 -21.231   8.076  0.00  0.00    +0.277 C 
ENDBRANCH  12  27
BRANCH   1  29
ATOM     29  C   LIG    1       24.957 -31.887   5.748  0.00  0.00    +0.202 C 
ATOM     30  O   LIG    1       25.189 -31.813   4.532  0.00  0.00    -0.291 OA
BRANCH  29  31
ATOM     31  C   LIG    1       24.819 -33.249   6.416  0.00  0.00    +0.309 C 
BRANCH  31  32
ATOM     32  O   LIG    1       23.520 -33.542   6.905  0.00  0.00    -0.457 OA
BRANCH  32  33
ATOM     33  C   LIG    1       23.451 -33.768   8.263  0.00  0.00    +0.307 C 
ATOM     34  O   LIG    1       24.379 -33.825   9.015  0.00  0.00    -0.251 OA
BRANCH  33  35
ATOM     35  C   LIG    1       22.006 -33.825   8.691  0.00  0.00    +0.120 C 
BRANCH  35  36
ATOM     36  C   LIG    1       21.712 -32.673   9.655  0.00  0.00    +0.011 C 
BRANCH  36  38
ATOM     37  C   LIG    1       20.223 -32.527  11.722  0.00  0.00    +0.004 C 
ATOM     38  C   LIG    1       20.279 -32.682  10.209  0.00  0.00    -0.003 C 
ENDBRANCH  36  38
ENDBRANCH  35  36
ENDBRANCH  33  35
ENDBRANCH  32  33
ENDBRANCH  31  32
ENDBRANCH  29  31
ENDBRANCH   1  29
BRANCH   3  39
ATOM     39  O   LIG    1       24.912 -29.161   9.437  0.00  0.00    -0.343 OA
BRANCH  39  40
ATOM     40  C   LIG    1       25.231 -30.145  10.419  0.00  0.00    +0.253 C 
ATOM     41  O   LIG    1       26.323 -29.805  11.261  0.00  0.00    -0.346 OA
ATOM     42  C   LIG    1       26.110 -28.955  12.390  0.00  0.00    +0.148 C 
ATOM     43  C   LIG    1       26.641 -27.545  12.142  0.00  0.00    +0.040 C 
ATOM     44  C   LIG    1       24.725 -29.002  13.078  0.00  0.00    +0.163 C 
ATOM     45  C   LIG    1       23.574 -29.422  12.148  0.00  0.00    +0.109 C 
ATOM     46  C   LIG    1       24.002 -30.550  11.228  0.00  0.00    +0.086 C 
BRANCH  45  47
ATOM     47  N   LIG    1       22.374 -29.796  12.924  0.00  0.00    -0.302 N 
ATOM     48  H   LIG    1       22.379 -30.650  13.477  0.00  0.00    +0.149 HD
ATOM     49  C   LIG    1       21.365 -28.866  13.178  0.00  0.00    +0.318 C 
ATOM     50  O   LIG    1       21.437 -27.717  12.734  0.00  0.00    -0.266 OA
BRANCH  49  51
ATOM     51  C   LIG    1       20.157 -29.382  13.999  0.00  0.00    +0.469 C 
ATOM     52  F   LIG    1       20.478 -30.461  14.764  0.00  0.00    -0.162 F 
ATOM     53  F   LIG    1       19.107 -29.757  13.217  0.00  0.00    -0.162 F 
ATOM     54  F   LIG    1       19.673 -28.435  14.857  0.00  0.00    -0.162 F 
ENDBRANCH  49  51
ENDBRANCH  45  47
BRANCH  44  55
ATOM     55  O   LIG    1       24.430 -27.768  13.746  0.00  0.00    -0.387 OA
ATOM     56  H   LIG    1       23.790 -27.268  13.196  0.00  0.00    +0.210 HD
ENDBRANCH  44  55
ENDBRANCH  39  40
ENDBRANCH   3  39
TORSDOF 16
ENDMDL
MODEL 5
REMARK VINA RESULT:      -3.1      4.076      8.402
REMARK  Name = *****
REMARK                            x       y       z     vdW  Elec       q    Type
REMARK                         _______ _______ _______ _____ _____    ______ ____
ROOT
ATOM      1  C   LIG    1       24.669 -31.229   6.720  0.00  0.00    +0.134 C 
ATOM      2  C   LIG    1       25.926 -30.925   7.529  0.00  0.00    +0.079 C 
ATOM      3  C   LIG    1       25.812 -29.677   8.408  0.00  0.00    +0.158 C 
ATOM      4  C   LIG    1       25.412 -28.511   7.509  0.00  0.00    +0.030 A 
ATOM      5  C   LIG    1       24.688 -28.699   6.305  0.00  0.00    +0.007 A 
ATOM      6  C   LIG    1       24.360 -27.584   5.517  0.00  0.00    +0.132 A 
ATOM      7  C   LIG    1       24.729 -26.293   5.914  0.00  0.00    +0.078 A 
ATOM      8  C   LIG    1       24.405 -25.135   5.071  0.00  0.00    +0.198 C 
ATOM      9  O   LIG    1       23.744 -25.296   4.049  0.00  0.00    -0.286 OA
ATOM     10  C   LIG    1       24.907 -23.801   5.440  0.00  0.00    +0.037 A 
ATOM     11  C   LIG    1       25.617 -23.599   6.627  0.00  0.00    +0.075 A 
ATOM     12  C   LIG    1       26.099 -22.313   6.939  0.00  0.00    +0.132 A 
ATOM     13  C   LIG    1       25.850 -21.262   6.049  0.00  0.00    +0.046 A 
ATOM     14  C   LIG    1       25.136 -21.474   4.871  0.00  0.00    +0.004 A 
ATOM     15  C   LIG    1       25.823 -24.750   7.532  0.00  0.00    +0.202 C 
ATOM     16  O   LIG    1       26.279 -24.626   8.665  0.00  0.00    -0.286 OA
ATOM     17  C   LIG    1       24.667 -22.742   4.561  0.00  0.00    +0.012 A 
ATOM     18  C   LIG    1       25.448 -26.107   7.090  0.00  0.00    +0.078 A 
ATOM     19  C   LIG    1       25.814 -27.217   7.863  0.00  0.00    +0.135 A 
ATOM     20  C   LIG    1       24.361 -30.077   5.760  0.00  0.00    +0.082 C 
ENDROOT
BRANCH   1  21
ATOM     21  O   LIG    1       23.566 -31.404   7.626  0.00  0.00    -0.381 OA
ATOM     22  H   LIG    1       23.687 -30.749   8.344  0.00  0.00    +0.211 HD
ENDBRANCH   1  21
BRANCH  19  23
ATOM     23  O   LIG    1       26.637 -27.091   8.953  0.00  0.00    -0.506 OA
ATOM     24  H   LIG    1       27.079 -26.212   8.918  0.00  0.00    +0.292 HD
ENDBRANCH  19  23
BRANCH   6  25
ATOM     25  O   LIG    1       23.699 -27.824   4.336  0.00  0.00    -0.506 OA
ATOM     26  H   LIG    1       24.355 -28.092   3.653  0.00  0.00    +0.292 HD
ENDBRANCH   6  25
BRANCH  12  27
ATOM     27  O   LIG    1       26.884 -22.157   8.049  0.00  0.00    -0.494 OA
ATOM     28  C   LIG    1       28.074 -21.392   7.901  0.00  0.00    +0.277 C 
ENDBRANCH  12  27
BRANCH   1  29
ATOM     29  C   LIG    1       24.754 -32.538   5.907  0.00  0.00    +0.202 C 
ATOM     30  O   LIG    1       24.698 -33.629   6.493  0.00  0.00    -0.291 OA
BRANCH  29  31
ATOM     31  C   LIG    1       24.895 -32.494   4.391  0.00  0.00    +0.309 C 
BRANCH  31  32
ATOM     32  O   LIG    1       25.584 -33.597   3.825  0.00  0.00    -0.457 OA
BRANCH  32  33
ATOM     33  C   LIG    1       26.760 -33.276   3.181  0.00  0.00    +0.307 C 
ATOM     34  O   LIG    1       26.862 -32.599   2.200  0.00  0.00    -0.251 OA
BRANCH  33  35
ATOM     35  C   LIG    1       27.928 -33.819   3.964  0.00  0.00    +0.120 C 
BRANCH  35  36
ATOM     36  C   LIG    1       27.971 -33.159   5.344  0.00  0.00    +0.011 C 
BRANCH  36  38
ATOM     37  C   LIG    1       28.490 -33.775   7.765  0.00  0.00    +0.004 C 
ATOM     38  C   LIG    1       28.955 -33.825   6.317  0.00  0.00    -0.003 C 
ENDBRANCH  36  38
ENDBRANCH  35  36
ENDBRANCH  33  35
ENDBRANCH  32  33
ENDBRANCH  31  32
ENDBRANCH  29  31
ENDBRANCH   1  29
BRANCH   3  39
ATOM     39  O   LIG    1       24.927 -29.741   9.538  0.00  0.00    -0.343 OA
BRANCH  39  40
ATOM     40  C   LIG    1       25.256 -30.753  10.487  0.00  0.00    +0.253 C 
ATOM     41  O   LIG    1       25.964 -30.286  11.626  0.00  0.00    -0.346 OA
ATOM     42  C   LIG    1       25.247 -29.701  12.716  0.00  0.00    +0.148 C 
ATOM     43  C   LIG    1       25.401 -28.182  12.741  0.00  0.00    +0.040 C 
ATOM     44  C   LIG    1       23.806 -30.198  12.981  0.00  0.00    +0.163 C 
ATOM     45  C   LIG    1       23.088 -30.744  11.734  0.00  0.00    +0.109 C 
ATOM     46  C   LIG    1       24.031 -31.572  10.884  0.00  0.00    +0.086 C 
BRANCH  45  47
ATOM     47  N   LIG    1       21.889 -31.520  12.109  0.00  0.00    -0.302 N 
ATOM     48  H   LIG    1       21.741 -31.778  13.082  0.00  0.00    +0.149 HD
ATOM     49  C   LIG    1       20.805 -31.633  11.238  0.00  0.00    +0.318 C 
ATOM     50  O   LIG    1       20.835 -31.111  10.120  0.00  0.00    -0.266 OA
BRANCH  49  51
ATOM     51  C   LIG    1       19.610 -32.478  11.745  0.00  0.00    +0.469 C 
ATOM     52  F   LIG    1       19.422 -32.349  13.088  0.00  0.00    -0.162 F 
ATOM     53  F   LIG    1       19.760 -33.808  11.499  0.00  0.00    -0.162 F 
ATOM     54  F   LIG    1       18.432 -32.112  11.157  0.00  0.00    -0.162 F 
ENDBRANCH  49  51
ENDBRANCH  45  47
BRANCH  44  55
ATOM     55  O   LIG    1       23.018 -29.195  13.636  0.00  0.00    -0.387 OA
ATOM     56  H   LIG    1       22.363 -29.647  14.210  0.00  0.00    +0.210 HD
ENDBRANCH  44  55
ENDBRANCH  39  40
ENDBRANCH   3  39
TORSDOF 16
ENDMDL
MODEL 6
REMARK VINA RESULT:      -3.0      8.186     12.956
REMARK  Name = *****
REMARK                            x       y       z     vdW  Elec       q    Type
REMARK                         _______ _______ _______ _____ _____    ______ ____
ROOT
ATOM      1  C   LIG    1       23.875 -19.756   4.847  0.00  0.00    +0.134 C 
ATOM      2  C   LIG    1       23.555 -19.877   6.333  0.00  0.00    +0.079 C 
ATOM      3  C   LIG    1       24.604 -20.656   7.132  0.00  0.00    +0.158 C 
ATOM      4  C   LIG    1       24.774 -22.019   6.469  0.00  0.00    +0.030 A 
ATOM      5  C   LIG    1       24.516 -22.226   5.091  0.00  0.00    +0.007 A 
ATOM      6  C   LIG    1       24.683 -23.509   4.543  0.00  0.00    +0.132 A 
ATOM      7  C   LIG    1       25.112 -24.577   5.340  0.00  0.00    +0.078 A 
ATOM      8  C   LIG    1       25.257 -25.922   4.767  0.00  0.00    +0.198 C 
ATOM      9  O   LIG    1       25.072 -26.090   3.565  0.00  0.00    -0.286 OA
ATOM     10  C   LIG    1       25.589 -27.056   5.643  0.00  0.00    +0.037 A 
ATOM     11  C   LIG    1       25.852 -26.867   7.004  0.00  0.00    +0.075 A 
ATOM     12  C   LIG    1       26.147 -27.978   7.816  0.00  0.00    +0.132 A 
ATOM     13  C   LIG    1       26.174 -29.252   7.238  0.00  0.00    +0.046 A 
ATOM     14  C   LIG    1       25.915 -29.429   5.880  0.00  0.00    +0.004 A 
ATOM     15  C   LIG    1       25.830 -25.490   7.542  0.00  0.00    +0.202 C 
ATOM     16  O   LIG    1       26.217 -25.218   8.674  0.00  0.00    -0.286 OA
ATOM     17  C   LIG    1       25.619 -28.334   5.081  0.00  0.00    +0.012 A 
ATOM     18  C   LIG    1       25.356 -24.379   6.695  0.00  0.00    +0.078 A 
ATOM     19  C   LIG    1       25.155 -23.111   7.258  0.00  0.00    +0.135 A 
ATOM     20  C   LIG    1       23.938 -21.142   4.200  0.00  0.00    +0.082 C 
ENDROOT
BRANCH   1  21
ATOM     21  O   LIG    1       25.147 -19.101   4.698  0.00  0.00    -0.381 OA
ATOM     22  H   LIG    1       25.026 -18.182   5.015  0.00  0.00    +0.211 HD
ENDBRANCH   1  21
BRANCH  19  23
ATOM     23  O   LIG    1       25.251 -22.904   8.611  0.00  0.00    -0.506 OA
ATOM     24  H   LIG    1       24.378 -22.599   8.949  0.00  0.00    +0.292 HD
ENDBRANCH  19  23
BRANCH   6  25
ATOM     25  O   LIG    1       24.375 -23.668   3.214  0.00  0.00    -0.506 OA
ATOM     26  H   LIG    1       23.458 -23.344   3.059  0.00  0.00    +0.292 HD
ENDBRANCH   6  25
BRANCH  12  27
ATOM     27  O   LIG    1       26.294 -27.786   9.163  0.00  0.00    -0.494 OA
ATOM     28  C   LIG    1       26.629 -28.924   9.948  0.00  0.00    +0.277 C 
ENDBRANCH  12  27
BRANCH   1  29
ATOM     29  C   LIG    1       22.865 -18.892   4.061  0.00  0.00    +0.202 C 
ATOM     30  O   LIG    1       22.301 -19.362   3.062  0.00  0.00    -0.291 OA
BRANCH  29  31
ATOM     31  C   LIG    1       22.554 -17.471   4.514  0.00  0.00    +0.309 C 
BRANCH  31  32
ATOM     32  O   LIG    1       23.529 -16.506   4.155  0.00  0.00    -0.457 OA
BRANCH  32  33
ATOM     33  C   LIG    1       23.262 -15.225   4.588  0.00  0.00    +0.307 C 
ATOM     34  O   LIG    1       22.566 -14.926   5.514  0.00  0.00    -0.251 OA
BRANCH  33  35
ATOM     35  C   LIG    1       24.073 -14.241   3.784  0.00  0.00    +0.120 C 
BRANCH  35  36
ATOM     36  C   LIG    1       25.149 -13.615   4.674  0.00  0.00    +0.011 C 
BRANCH  36  38
ATOM     37  C   LIG    1       26.731 -15.130   3.366  0.00  0.00    +0.004 C 
ATOM     38  C   LIG    1       26.581 -13.846   4.169  0.00  0.00    -0.003 C 
ENDBRANCH  36  38
ENDBRANCH  35  36
ENDBRANCH  33  35
ENDBRANCH  32  33
ENDBRANCH  31  32
ENDBRANCH  29  31
ENDBRANCH   1  29
BRANCH   3  39
ATOM     39  O   LIG    1       25.890 -20.042   7.313  0.00  0.00    -0.343 OA
BRANCH  39  40
ATOM     40  C   LIG    1       26.994 -20.932   7.159  0.00  0.00    +0.253 C 
ATOM     41  O   LIG    1       27.572 -20.934   5.861  0.00  0.00    -0.346 OA
ATOM     42  C   LIG    1       28.521 -19.926   5.505  0.00  0.00    +0.148 C 
ATOM     43  C   LIG    1       27.910 -18.880   4.577  0.00  0.00    +0.040 C 
ATOM     44  C   LIG    1       29.406 -19.339   6.631  0.00  0.00    +0.163 C 
ATOM     45  C   LIG    1       28.768 -19.398   8.030  0.00  0.00    +0.109 C 
ATOM     46  C   LIG    1       28.046 -20.715   8.242  0.00  0.00    +0.086 C 
BRANCH  45  47
ATOM     47  N   LIG    1       29.776 -19.168   9.083  0.00  0.00    -0.302 N 
ATOM     48  H   LIG    1       30.392 -19.929   9.364  0.00  0.00    +0.149 HD
ATOM     49  C   LIG    1       30.127 -17.875   9.473  0.00  0.00    +0.318 C 
ATOM     50  O   LIG    1       29.579 -16.892   8.967  0.00  0.00    -0.266 OA
BRANCH  49  51
ATOM     51  C   LIG    1       31.194 -17.768  10.591  0.00  0.00    +0.469 C 
ATOM     52  F   LIG    1       32.438 -18.101  10.148  0.00  0.00    -0.162 F 
ATOM     53  F   LIG    1       30.930 -18.576  11.654  0.00  0.00    -0.162 F 
ATOM     54  F   LIG    1       31.292 -16.499  11.091  0.00  0.00    -0.162 F 
ENDBRANCH  49  51
ENDBRANCH  45  47
BRANCH  44  55
ATOM     55  O   LIG    1       29.841 -18.010   6.314  0.00  0.00    -0.387 OA
ATOM     56  H   LIG    1       30.035 -17.971   5.354  0.00  0.00    +0.210 HD
ENDBRANCH  44  55
ENDBRANCH  39  40
ENDBRANCH   3  39
TORSDOF 16
ENDMDL
