MODEL 1
REMARK VINA RESULT:      -4.1      0.000      0.000
REMARK  Name = *****
REMARK                            x       y       z     vdW  Elec       q    Type
REMARK                         _______ _______ _______ _____ _____    ______ ____
ROOT
ATOM      1  C   LIG    1       26.500 -16.175   3.309  0.00  0.00    +0.291 A 
ATOM      2  O   LIG    1       25.341 -16.886   3.161  0.00  0.00    -0.424 OA
ATOM      3  C   LIG    1       25.533 -18.057   3.866  0.00  0.00    +0.165 A 
ATOM      4  C   LIG    1       26.824 -18.006   4.370  0.00  0.00    +0.119 A 
ATOM      5  N   LIG    1       27.426 -16.827   3.987  0.00  0.00    -0.195 NA
ENDROOT
BRANCH   3   6
ATOM      6  C   LIG    1       24.371 -18.937   3.933  0.00  0.00    +0.019 A 
ATOM      7  C   LIG    1       24.487 -20.296   3.598  0.00  0.00    +0.012 A 
ATOM      8  C   LIG    1       23.381 -21.150   3.662  0.00  0.00    +0.001 A 
ATOM      9  C   LIG    1       22.143 -20.661   4.072  0.00  0.00    +0.000 A 
ATOM     10  C   LIG    1       22.008 -19.316   4.402  0.00  0.00    +0.001 A 
ATOM     11  C   LIG    1       23.110 -18.459   4.318  0.00  0.00    +0.012 A 
ENDBRANCH   3   6
BRANCH   4  12
ATOM     12  C   LIG    1       27.515 -18.954   5.231  0.00  0.00    +0.004 A 
ATOM     13  C   LIG    1       26.818 -20.090   5.673  0.00  0.00    +0.010 A 
ATOM     14  C   LIG    1       27.444 -21.052   6.470  0.00  0.00    +0.001 A 
ATOM     15  C   LIG    1       28.777 -20.890   6.835  0.00  0.00    +0.000 A 
ATOM     16  C   LIG    1       29.475 -19.754   6.426  0.00  0.00    +0.001 A 
ATOM     17  C   LIG    1       28.841 -18.782   5.644  0.00  0.00    +0.010 A 
ENDBRANCH   4  12
BRANCH   1  18
ATOM     18  N   LIG    1       26.553 -14.918   2.801  0.00  0.00    -0.281 N 
BRANCH  18  19
ATOM     19  C   LIG    1       25.329 -14.096   2.902  0.00  0.00    +0.137 C 
BRANCH  19  20
ATOM     20  C   LIG    1       24.667 -14.129   4.294  0.00  0.00    +0.175 C 
BRANCH  20  21
ATOM     21  O   LIG    1       23.434 -14.845   4.278  0.00  0.00    -0.394 OA
ATOM     22  H   LIG    1       23.477 -15.461   3.526  0.00  0.00    +0.209 HD
ENDBRANCH  20  21
ENDBRANCH  19  20
ENDBRANCH  18  19
BRANCH  18  23
ATOM     23  C   LIG    1       27.832 -14.196   2.965  0.00  0.00    +0.137 C 
BRANCH  23  24
ATOM     24  C   LIG    1       27.849 -13.357   4.253  0.00  0.00    +0.175 C 
BRANCH  24  25
ATOM     25  O   LIG    1       29.001 -12.520   4.342  0.00  0.00    -0.394 OA
ATOM     26  H   LIG    1       29.081 -12.292   5.285  0.00  0.00    +0.209 HD
ENDBRANCH  24  25
ENDBRANCH  23  24
ENDBRANCH  18  23
ENDBRANCH   1  18
TORSDOF 9
ENDMDL
MODEL 2
REMARK VINA RESULT:      -4.0      0.771      1.633
REMARK  Name = *****
REMARK                            x       y       z     vdW  Elec       q    Type
REMARK                         _______ _______ _______ _____ _____    ______ ____
ROOT
ATOM      1  C   LIG    1       26.256 -16.375   3.406  0.00  0.00    +0.291 A 
ATOM      2  O   LIG    1       25.084 -17.073   3.319  0.00  0.00    -0.424 OA
ATOM      3  C   LIG    1       25.304 -18.253   3.998  0.00  0.00    +0.165 A 
ATOM      4  C   LIG    1       26.623 -18.221   4.426  0.00  0.00    +0.119 A 
ATOM      5  N   LIG    1       27.214 -17.044   4.022  0.00  0.00    -0.195 NA
ENDROOT
BRANCH   3   6
ATOM      6  C   LIG    1       24.140 -19.123   4.123  0.00  0.00    +0.019 A 
ATOM      7  C   LIG    1       22.867 -18.581   4.365  0.00  0.00    +0.012 A 
ATOM      8  C   LIG    1       21.743 -19.405   4.482  0.00  0.00    +0.001 A 
ATOM      9  C   LIG    1       21.872 -20.785   4.350  0.00  0.00    +0.000 A 
ATOM     10  C   LIG    1       23.126 -21.341   4.115  0.00  0.00    +0.001 A 
ATOM     11  C   LIG    1       24.251 -20.518   4.018  0.00  0.00    +0.012 A 
ENDBRANCH   3   6
BRANCH   4  12
ATOM     12  C   LIG    1       27.353 -19.186   5.234  0.00  0.00    +0.004 A 
ATOM     13  C   LIG    1       28.732 -18.998   5.422  0.00  0.00    +0.010 A 
ATOM     14  C   LIG    1       29.475 -19.872   6.219  0.00  0.00    +0.001 A 
ATOM     15  C   LIG    1       28.846 -20.948   6.840  0.00  0.00    +0.000 A 
ATOM     16  C   LIG    1       27.484 -21.164   6.641  0.00  0.00    +0.001 A 
ATOM     17  C   LIG    1       26.745 -20.299   5.827  0.00  0.00    +0.010 A 
ENDBRANCH   4  12
BRANCH   1  18
ATOM     18  N   LIG    1       26.292 -15.113   2.910  0.00  0.00    -0.281 N 
BRANCH  18  19
ATOM     19  C   LIG    1       25.151 -14.229   3.226  0.00  0.00    +0.137 C 
BRANCH  19  20
ATOM     20  C   LIG    1       24.905 -13.126   2.176  0.00  0.00    +0.175 C 
BRANCH  20  21
ATOM     21  O   LIG    1       23.892 -12.214   2.594  0.00  0.00    -0.394 OA
ATOM     22  H   LIG    1       23.335 -12.037   1.816  0.00  0.00    +0.209 HD
ENDBRANCH  20  21
ENDBRANCH  19  20
ENDBRANCH  18  19
BRANCH  18  23
ATOM     23  C   LIG    1       27.619 -14.463   2.863  0.00  0.00    +0.137 C 
BRANCH  23  24
ATOM     24  C   LIG    1       27.926 -13.703   4.164  0.00  0.00    +0.175 C 
BRANCH  24  25
ATOM     25  O   LIG    1       28.794 -12.591   3.953  0.00  0.00    -0.394 OA
ATOM     26  H   LIG    1       28.429 -11.872   4.498  0.00  0.00    +0.209 HD
ENDBRANCH  24  25
ENDBRANCH  23  24
ENDBRANCH  18  23
ENDBRANCH   1  18
TORSDOF 9
ENDMDL
MODEL 3
REMARK VINA RESULT:      -2.9      1.006      4.152
REMARK  Name = *****
REMARK                            x       y       z     vdW  Elec       q    Type
REMARK                         _______ _______ _______ _____ _____    ______ ____
ROOT
ATOM      1  C   LIG    1       26.540 -15.993   3.332  0.00  0.00    +0.291 A 
ATOM      2  O   LIG    1       27.376 -16.744   4.111  0.00  0.00    -0.424 OA
ATOM      3  C   LIG    1       26.666 -17.885   4.425  0.00  0.00    +0.165 A 
ATOM      4  C   LIG    1       25.413 -17.740   3.848  0.00  0.00    +0.119 A 
ATOM      5  N   LIG    1       25.343 -16.532   3.187  0.00  0.00    -0.195 NA
ENDROOT
BRANCH   3   6
ATOM      6  C   LIG    1       27.408 -18.891   5.176  0.00  0.00    +0.019 A 
ATOM      7  C   LIG    1       28.754 -18.677   5.518  0.00  0.00    +0.012 A 
ATOM      8  C   LIG    1       29.474 -19.633   6.242  0.00  0.00    +0.001 A 
ATOM      9  C   LIG    1       28.858 -20.814   6.645  0.00  0.00    +0.000 A 
ATOM     10  C   LIG    1       27.527 -21.046   6.311  0.00  0.00    +0.001 A 
ATOM     11  C   LIG    1       26.814 -20.099   5.570  0.00  0.00    +0.012 A 
ENDBRANCH   3   6
BRANCH   4  12
ATOM     12  C   LIG    1       24.297 -18.673   3.821  0.00  0.00    +0.004 A 
ATOM     13  C   LIG    1       24.518 -19.970   3.331  0.00  0.00    +0.010 A 
ATOM     14  C   LIG    1       23.492 -20.918   3.318  0.00  0.00    +0.001 A 
ATOM     15  C   LIG    1       22.229 -20.580   3.796  0.00  0.00    +0.000 A 
ATOM     16  C   LIG    1       21.986 -19.288   4.259  0.00  0.00    +0.001 A 
ATOM     17  C   LIG    1       23.010 -18.334   4.254  0.00  0.00    +0.010 A 
ENDBRANCH   4  12
BRANCH   1  18
ATOM     18  N   LIG    1       27.024 -14.850   2.786  0.00  0.00    -0.281 N 
BRANCH  18  19
ATOM     19  C   LIG    1       26.104 -14.065   1.937  0.00  0.00    +0.137 C 
BRANCH  19  20
ATOM     20  C   LIG    1       25.325 -12.974   2.701  0.00  0.00    +0.175 C 
BRANCH  20  21
ATOM     21  O   LIG    1       24.117 -13.482   3.263  0.00  0.00    -0.394 OA
ATOM     22  H   LIG    1       23.384 -13.065   2.777  0.00  0.00    +0.209 HD
ENDBRANCH  20  21
ENDBRANCH  19  20
ENDBRANCH  18  19
BRANCH  18  23
ATOM     23  C   LIG    1       27.959 -14.067   3.621  0.00  0.00    +0.137 C 
BRANCH  23  24
ATOM     24  C   LIG    1       27.341 -13.705   4.980  0.00  0.00    +0.175 C 
BRANCH  24  25
ATOM     25  O   LIG    1       27.951 -12.556   5.567  0.00  0.00    -0.394 OA
ATOM     26  H   LIG    1       28.439 -12.889   6.339  0.00  0.00    +0.209 HD
ENDBRANCH  24  25
ENDBRANCH  23  24
ENDBRANCH  18  23
ENDBRANCH   1  18
TORSDOF 9
ENDMDL
