MODEL 1
REMARK VINA RESULT:      -5.0      0.000      0.000
REMARK  Name = *****
REMARK                            x       y       z     vdW  Elec       q    Type
REMARK                         _______ _______ _______ _____ _____    ______ ____
ROOT
ATOM      1  C   LIG    1       27.599 -17.275   3.728  0.00  0.00    +0.267 C 
ENDROOT
BRANCH   1   2
ATOM      2  C   LIG    1       27.937 -18.256   4.823  0.00  0.00    -0.007 A 
ATOM      3  C   LIG    1       27.121 -19.377   5.072  0.00  0.00    +0.053 A 
ATOM      4  C   LIG    1       27.493 -20.321   6.034  0.00  0.00    +0.129 A 
ATOM      5  C   LIG    1       28.702 -20.158   6.723  0.00  0.00    +0.046 A 
ATOM      6  C   LIG    1       29.472 -19.013   6.543  0.00  0.00    +0.004 A 
ATOM      7  C   LIG    1       29.092 -18.065   5.597  0.00  0.00    +0.007 A 
BRANCH   4   8
ATOM      8  O   LIG    1       26.653 -21.403   6.244  0.00  0.00    -0.456 OA
BRANCH   8   9
ATOM      9  C   LIG    1       25.294 -21.227   6.040  0.00  0.00    +0.128 A 
ATOM     10  C   LIG    1       24.767 -21.507   4.776  0.00  0.00    +0.046 A 
ATOM     11  C   LIG    1       23.393 -21.353   4.544  0.00  0.00    +0.004 A 
ATOM     12  C   LIG    1       22.546 -20.945   5.576  0.00  0.00    +0.000 A 
ATOM     13  C   LIG    1       23.069 -20.663   6.832  0.00  0.00    +0.004 A 
ATOM     14  C   LIG    1       24.439 -20.761   7.046  0.00  0.00    +0.046 A 
ENDBRANCH   8   9
ENDBRANCH   4   8
ENDBRANCH   1   2
BRANCH   1  15
ATOM     15  O   LIG    1       27.219 -16.014   4.293  0.00  0.00    -0.460 OA
BRANCH  15  16
ATOM     16  C   LIG    1       26.867 -15.042   3.407  0.00  0.00    +0.312 C 
ATOM     17  O   LIG    1       27.623 -14.330   2.782  0.00  0.00    -0.251 OA
BRANCH  16  20
ATOM     18  C   LIG    1       25.232 -12.676   4.643  0.00  0.00    +0.012 C 
ATOM     19  C   LIG    1       24.586 -13.773   3.830  0.00  0.00    -0.014 C 
ATOM     20  C   LIG    1       25.381 -14.961   3.293  0.00  0.00    +0.111 C 
ATOM     21  C   LIG    1       24.494 -15.135   4.506  0.00  0.00    +0.035 C 
ATOM     22  C   LIG    1       23.486 -13.257   2.930  0.00  0.00    +0.012 C 
BRANCH  21  23
ATOM     23  C   LIG    1       23.235 -15.896   4.411  0.00  0.00    +0.010 C 
ATOM     24  C   LIG    1       23.091 -17.189   4.080  0.00  0.00    +0.103 C 
ATOM     25 CL   LIG    1       21.521 -17.911   4.058  0.00  0.00    -0.071 Cl
ATOM     26 CL   LIG    1       24.435 -18.195   3.677  0.00  0.00    -0.071 Cl
ENDBRANCH  21  23
ENDBRANCH  16  20
ENDBRANCH  15  16
ENDBRANCH   1  15
TORSDOF 7
ENDMDL
MODEL 2
REMARK VINA RESULT:      -4.2      2.485      4.749
REMARK  Name = *****
REMARK                            x       y       z     vdW  Elec       q    Type
REMARK                         _______ _______ _______ _____ _____    ______ ____
ROOT
ATOM      1  C   LIG    1       23.765 -18.123   3.379  0.00  0.00    +0.267 C 
ENDROOT
BRANCH   1   2
ATOM      2  C   LIG    1       23.777 -19.283   4.345  0.00  0.00    -0.007 A 
ATOM      3  C   LIG    1       24.980 -19.736   4.921  0.00  0.00    +0.053 A 
ATOM      4  C   LIG    1       24.964 -20.757   5.876  0.00  0.00    +0.129 A 
ATOM      5  C   LIG    1       23.737 -21.299   6.279  0.00  0.00    +0.046 A 
ATOM      6  C   LIG    1       22.553 -20.916   5.656  0.00  0.00    +0.004 A 
ATOM      7  C   LIG    1       22.571 -19.911   4.693  0.00  0.00    +0.007 A 
BRANCH   4   8
ATOM      8  O   LIG    1       26.175 -21.169   6.409  0.00  0.00    -0.456 OA
BRANCH   8   9
ATOM      9  C   LIG    1       27.277 -20.345   6.249  0.00  0.00    +0.128 A 
ATOM     10  C   LIG    1       27.254 -19.392   5.226  0.00  0.00    +0.046 A 
ATOM     11  C   LIG    1       28.349 -18.533   5.050  0.00  0.00    +0.004 A 
ATOM     12  C   LIG    1       29.448 -18.610   5.906  0.00  0.00    +0.000 A 
ATOM     13  C   LIG    1       29.473 -19.558   6.921  0.00  0.00    +0.004 A 
ATOM     14  C   LIG    1       28.413 -20.446   7.059  0.00  0.00    +0.046 A 
ENDBRANCH   8   9
ENDBRANCH   4   8
ENDBRANCH   1   2
BRANCH   1  15
ATOM     15  O   LIG    1       24.318 -16.956   3.999  0.00  0.00    -0.460 OA
BRANCH  15  16
ATOM     16  C   LIG    1       23.427 -16.002   4.384  0.00  0.00    +0.312 C 
ATOM     17  O   LIG    1       22.223 -16.125   4.445  0.00  0.00    -0.251 OA
BRANCH  16  20
ATOM     18  C   LIG    1       23.791 -13.664   2.334  0.00  0.00    +0.012 C 
ATOM     19  C   LIG    1       24.259 -13.569   3.768  0.00  0.00    -0.014 C 
ATOM     20  C   LIG    1       24.142 -14.741   4.739  0.00  0.00    +0.111 C 
ATOM     21  C   LIG    1       25.482 -14.403   4.124  0.00  0.00    +0.035 C 
ATOM     22  C   LIG    1       24.032 -12.197   4.361  0.00  0.00    +0.012 C 
BRANCH  21  23
ATOM     23  C   LIG    1       26.549 -13.794   4.939  0.00  0.00    +0.010 C 
ATOM     24  C   LIG    1       27.577 -13.048   4.503  0.00  0.00    +0.103 C 
ATOM     25 CL   LIG    1       28.712 -12.392   5.629  0.00  0.00    -0.071 Cl
ATOM     26 CL   LIG    1       27.820 -12.694   2.832  0.00  0.00    -0.071 Cl
ENDBRANCH  21  23
ENDBRANCH  16  20
ENDBRANCH  15  16
ENDBRANCH   1  15
TORSDOF 7
ENDMDL
MODEL 3
REMARK VINA RESULT:      -3.7      2.750      4.990
REMARK  Name = *****
REMARK                            x       y       z     vdW  Elec       q    Type
REMARK                         _______ _______ _______ _____ _____    ______ ____
ROOT
ATOM      1  C   LIG    1       22.098 -16.485   4.961  0.00  0.00    +0.267 C 
ENDROOT
BRANCH   1   2
ATOM      2  C   LIG    1       22.011 -17.975   4.736  0.00  0.00    -0.007 A 
ATOM      3  C   LIG    1       22.849 -18.866   5.434  0.00  0.00    +0.053 A 
ATOM      4  C   LIG    1       22.700 -20.247   5.275  0.00  0.00    +0.129 A 
ATOM      5  C   LIG    1       21.685 -20.735   4.442  0.00  0.00    +0.046 A 
ATOM      6  C   LIG    1       20.908 -19.864   3.686  0.00  0.00    +0.004 A 
ATOM      7  C   LIG    1       21.069 -18.488   3.831  0.00  0.00    +0.007 A 
BRANCH   4   8
ATOM      8  O   LIG    1       23.554 -21.080   5.982  0.00  0.00    -0.456 OA
BRANCH   8   9
ATOM      9  C   LIG    1       24.907 -20.785   5.980  0.00  0.00    +0.128 A 
ATOM     10  C   LIG    1       25.457 -20.181   4.846  0.00  0.00    +0.046 A 
ATOM     11  C   LIG    1       26.821 -19.857   4.822  0.00  0.00    +0.004 A 
ATOM     12  C   LIG    1       27.626 -20.113   5.933  0.00  0.00    +0.000 A 
ATOM     13  C   LIG    1       27.081 -20.717   7.060  0.00  0.00    +0.004 A 
ATOM     14  C   LIG    1       25.742 -21.090   7.061  0.00  0.00    +0.046 A 
ENDBRANCH   8   9
ENDBRANCH   4   8
ENDBRANCH   1   2
BRANCH   1  15
ATOM     15  O   LIG    1       22.774 -15.858   3.865  0.00  0.00    -0.460 OA
BRANCH  15  16
ATOM     16  C   LIG    1       24.133 -15.828   3.937  0.00  0.00    +0.312 C 
ATOM     17  O   LIG    1       24.891 -16.711   3.599  0.00  0.00    -0.251 OA
BRANCH  16  20
ATOM     18  C   LIG    1       23.980 -13.167   2.295  0.00  0.00    +0.012 C 
ATOM     19  C   LIG    1       24.452 -13.212   3.730  0.00  0.00    -0.014 C 
ATOM     20  C   LIG    1       24.592 -14.523   4.498  0.00  0.00    +0.111 C 
ATOM     21  C   LIG    1       25.824 -13.831   3.959  0.00  0.00    +0.035 C 
ATOM     22  C   LIG    1       23.971 -12.026   4.535  0.00  0.00    +0.012 C 
BRANCH  21  23
ATOM     23  C   LIG    1       26.767 -13.160   4.872  0.00  0.00    +0.010 C 
ATOM     24  C   LIG    1       28.050 -12.849   4.628  0.00  0.00    +0.103 C 
ATOM     25 CL   LIG    1       28.987 -12.026   5.825  0.00  0.00    -0.071 Cl
ATOM     26 CL   LIG    1       28.827 -13.230   3.135  0.00  0.00    -0.071 Cl
ENDBRANCH  21  23
ENDBRANCH  16  20
ENDBRANCH  15  16
ENDBRANCH   1  15
TORSDOF 7
ENDMDL
MODEL 4
REMARK VINA RESULT:      -3.1      2.692      7.317
REMARK  Name = *****
REMARK                            x       y       z     vdW  Elec       q    Type
REMARK                         _______ _______ _______ _____ _____    ______ ____
ROOT
ATOM      1  C   LIG    1       22.324 -18.061   3.845  0.00  0.00    +0.267 C 
ENDROOT
BRANCH   1   2
ATOM      2  C   LIG    1       22.575 -16.703   4.454  0.00  0.00    -0.007 A 
ATOM      3  C   LIG    1       23.326 -15.727   3.771  0.00  0.00    +0.053 A 
ATOM      4  C   LIG    1       23.480 -14.448   4.312  0.00  0.00    +0.129 A 
ATOM      5  C   LIG    1       22.850 -14.136   5.524  0.00  0.00    +0.046 A 
ATOM      6  C   LIG    1       22.177 -15.117   6.246  0.00  0.00    +0.004 A 
ATOM      7  C   LIG    1       22.038 -16.396   5.714  0.00  0.00    +0.007 A 
BRANCH   4   8
ATOM      8  O   LIG    1       24.233 -13.526   3.602  0.00  0.00    -0.456 OA
BRANCH   8   9
ATOM      9  C   LIG    1       25.605 -13.513   3.792  0.00  0.00    +0.128 A 
ATOM     10  C   LIG    1       26.434 -13.592   2.670  0.00  0.00    +0.046 A 
ATOM     11  C   LIG    1       27.827 -13.566   2.830  0.00  0.00    +0.004 A 
ATOM     12  C   LIG    1       28.387 -13.439   4.103  0.00  0.00    +0.000 A 
ATOM     13  C   LIG    1       27.563 -13.365   5.219  0.00  0.00    +0.004 A 
ATOM     14  C   LIG    1       26.185 -13.448   5.064  0.00  0.00    +0.046 A 
ENDBRANCH   8   9
ENDBRANCH   4   8
ENDBRANCH   1   2
BRANCH   1  15
ATOM     15  O   LIG    1       21.899 -18.985   4.853  0.00  0.00    -0.460 OA
BRANCH  15  16
ATOM     16  C   LIG    1       22.877 -19.741   5.424  0.00  0.00    +0.312 C 
ATOM     17  O   LIG    1       22.734 -20.546   6.319  0.00  0.00    -0.251 OA
BRANCH  16  20
ATOM     18  C   LIG    1       24.075 -21.572   3.185  0.00  0.00    +0.012 C 
ATOM     19  C   LIG    1       24.748 -20.297   3.641  0.00  0.00    -0.014 C 
ATOM     20  C   LIG    1       24.194 -19.450   4.784  0.00  0.00    +0.111 C 
ATOM     21  C   LIG    1       25.392 -20.343   5.021  0.00  0.00    +0.035 C 
ATOM     22  C   LIG    1       25.374 -19.531   2.498  0.00  0.00    +0.012 C 
BRANCH  21  23
ATOM     23  C   LIG    1       26.734 -19.763   5.202  0.00  0.00    +0.010 C 
ATOM     24  C   LIG    1       27.703 -20.199   6.024  0.00  0.00    +0.103 C 
ATOM     25 CL   LIG    1       29.232 -19.395   6.067  0.00  0.00    -0.071 Cl
ATOM     26 CL   LIG    1       27.493 -21.566   7.056  0.00  0.00    -0.071 Cl
ENDBRANCH  21  23
ENDBRANCH  16  20
ENDBRANCH  15  16
ENDBRANCH   1  15
TORSDOF 7
ENDMDL
MODEL 5
REMARK VINA RESULT:      -3.0      2.216      4.696
REMARK  Name = *****
REMARK                            x       y       z     vdW  Elec       q    Type
REMARK                         _______ _______ _______ _____ _____    ______ ____
ROOT
ATOM      1  C   LIG    1       22.723 -15.818   4.794  0.00  0.00    +0.267 C 
ENDROOT
BRANCH   1   2
ATOM      2  C   LIG    1       22.133 -17.162   4.445  0.00  0.00    -0.007 A 
ATOM      3  C   LIG    1       22.636 -18.347   5.015  0.00  0.00    +0.053 A 
ATOM      4  C   LIG    1       22.025 -19.576   4.745  0.00  0.00    +0.129 A 
ATOM      5  C   LIG    1       20.887 -19.610   3.929  0.00  0.00    +0.046 A 
ATOM      6  C   LIG    1       20.433 -18.457   3.295  0.00  0.00    +0.004 A 
ATOM      7  C   LIG    1       21.053 -17.237   3.551  0.00  0.00    +0.007 A 
BRANCH   4   8
ATOM      8  O   LIG    1       22.562 -20.713   5.328  0.00  0.00    -0.456 OA
BRANCH   8   9
ATOM      9  C   LIG    1       23.927 -20.747   5.564  0.00  0.00    +0.128 A 
ATOM     10  C   LIG    1       24.793 -20.755   4.466  0.00  0.00    +0.046 A 
ATOM     11  C   LIG    1       26.180 -20.774   4.675  0.00  0.00    +0.004 A 
ATOM     12  C   LIG    1       26.698 -20.760   5.971  0.00  0.00    +0.000 A 
ATOM     13  C   LIG    1       25.837 -20.756   7.062  0.00  0.00    +0.004 A 
ATOM     14  C   LIG    1       24.463 -20.795   6.855  0.00  0.00    +0.046 A 
ENDBRANCH   8   9
ENDBRANCH   4   8
ENDBRANCH   1   2
BRANCH   1  15
ATOM     15  O   LIG    1       23.425 -15.278   3.668  0.00  0.00    -0.460 OA
BRANCH  15  16
ATOM     16  C   LIG    1       24.008 -14.061   3.853  0.00  0.00    +0.312 C 
ATOM     17  O   LIG    1       23.489 -12.980   3.674  0.00  0.00    -0.251 OA
BRANCH  16  20
ATOM     18  C   LIG    1       26.389 -12.484   2.572  0.00  0.00    +0.012 C 
ATOM     19  C   LIG    1       26.568 -13.408   3.754  0.00  0.00    -0.014 C 
ATOM     20  C   LIG    1       25.414 -14.229   4.325  0.00  0.00    +0.111 C 
ATOM     21  C   LIG    1       26.455 -14.898   3.456  0.00  0.00    +0.035 C 
ATOM     22  C   LIG    1       27.558 -12.873   4.765  0.00  0.00    +0.012 C 
BRANCH  21  23
ATOM     23  C   LIG    1       27.442 -15.821   4.044  0.00  0.00    +0.010 C 
ATOM     24  C   LIG    1       27.415 -17.163   4.018  0.00  0.00    +0.103 C 
ATOM     25 CL   LIG    1       28.694 -18.072   4.742  0.00  0.00    -0.071 Cl
ATOM     26 CL   LIG    1       26.138 -18.047   3.265  0.00  0.00    -0.071 Cl
ENDBRANCH  21  23
ENDBRANCH  16  20
ENDBRANCH  15  16
ENDBRANCH   1  15
TORSDOF 7
ENDMDL
MODEL 6
REMARK VINA RESULT:      -2.4      2.287      2.943
REMARK  Name = *****
REMARK                            x       y       z     vdW  Elec       q    Type
REMARK                         _______ _______ _______ _____ _____    ______ ____
ROOT
ATOM      1  C   LIG    1       28.559 -17.960   4.673  0.00  0.00    +0.267 C 
ENDROOT
BRANCH   1   2
ATOM      2  C   LIG    1       28.147 -19.184   5.453  0.00  0.00    -0.007 A 
ATOM      3  C   LIG    1       26.902 -19.803   5.231  0.00  0.00    +0.053 A 
ATOM      4  C   LIG    1       26.570 -20.983   5.903  0.00  0.00    +0.129 A 
ATOM      5  C   LIG    1       27.504 -21.562   6.773  0.00  0.00    +0.046 A 
ATOM      6  C   LIG    1       28.701 -20.915   7.062  0.00  0.00    +0.004 A 
ATOM      7  C   LIG    1       29.023 -19.730   6.405  0.00  0.00    +0.007 A 
BRANCH   4   8
ATOM      8  O   LIG    1       25.330 -21.550   5.652  0.00  0.00    -0.456 OA
BRANCH   8   9
ATOM      9  C   LIG    1       24.314 -20.727   5.195  0.00  0.00    +0.128 A 
ATOM     10  C   LIG    1       23.317 -20.337   6.093  0.00  0.00    +0.046 A 
ATOM     11  C   LIG    1       22.284 -19.492   5.663  0.00  0.00    +0.004 A 
ATOM     12  C   LIG    1       22.261 -19.021   4.349  0.00  0.00    +0.000 A 
ATOM     13  C   LIG    1       23.250 -19.411   3.455  0.00  0.00    +0.004 A 
ATOM     14  C   LIG    1       24.241 -20.294   3.866  0.00  0.00    +0.046 A 
ENDBRANCH   8   9
ENDBRANCH   4   8
ENDBRANCH   1   2
BRANCH   1  15
ATOM     15  O   LIG    1       27.412 -17.157   4.370  0.00  0.00    -0.460 OA
BRANCH  15  16
ATOM     16  C   LIG    1       27.620 -15.813   4.312  0.00  0.00    +0.312 C 
ATOM     17  O   LIG    1       28.694 -15.251   4.292  0.00  0.00    -0.251 OA
BRANCH  16  20
ATOM     18  C   LIG    1       26.828 -13.958   1.917  0.00  0.00    +0.012 C 
ATOM     19  C   LIG    1       25.892 -14.243   3.070  0.00  0.00    -0.014 C 
ATOM     20  C   LIG    1       26.315 -15.090   4.268  0.00  0.00    +0.111 C 
ATOM     21  C   LIG    1       26.251 -13.584   4.395  0.00  0.00    +0.035 C 
ATOM     22  C   LIG    1       24.456 -14.403   2.625  0.00  0.00    +0.012 C 
BRANCH  21  23
ATOM     23  C   LIG    1       25.185 -12.943   5.185  0.00  0.00    +0.010 C 
ATOM     24  C   LIG    1       24.266 -12.066   4.748  0.00  0.00    +0.103 C 
ATOM     25 CL   LIG    1       23.069 -11.450   5.832  0.00  0.00    -0.071 Cl
ATOM     26 CL   LIG    1       24.214 -11.521   3.112  0.00  0.00    -0.071 Cl
ENDBRANCH  21  23
ENDBRANCH  16  20
ENDBRANCH  15  16
ENDBRANCH   1  15
TORSDOF 7
ENDMDL
