MODEL 1
REMARK VINA RESULT:      -7.5      0.000      0.000
REMARK  Name = *****
REMARK                            x       y       z     vdW  Elec       q    Type
REMARK                         _______ _______ _______ _____ _____    ______ ____
ROOT
ATOM      1  C   LIG    1       26.201 -20.650   7.404  0.00  0.00    +0.134 C 
ATOM      2  N   LIG    1       25.374 -20.392   6.233  0.00  0.00    -0.279 N 
ATOM      3  C   LIG    1       24.024 -20.999   6.231  0.00  0.00    +0.249 C 
ATOM      4  S   LIG    1       22.858 -20.364   4.992  0.00  0.00    -0.007 S 
ATOM      5  O   LIG    1       21.823 -21.333   4.689  0.00  0.00    -0.172 OA
ATOM      6  O   LIG    1       22.494 -19.005   5.354  0.00  0.00    -0.172 OA
ATOM      7  C   LIG    1       23.940 -20.266   3.598  0.00  0.00    +0.177 C 
ATOM      8  C   LIG    1       25.145 -19.426   3.938  0.00  0.00    +0.118 C 
ATOM      9  C   LIG    1       26.002 -19.929   5.087  0.00  0.00    +0.218 C 
ATOM     10  O   LIG    1       27.226 -19.813   5.016  0.00  0.00    -0.276 OA
ENDROOT
BRANCH   3  11
ATOM     11  C   LIG    1       24.049 -22.525   6.148  0.00  0.00    -0.006 A 
ATOM     12  C   LIG    1       25.039 -23.152   5.366  0.00  0.00    +0.008 A 
ATOM     13  C   LIG    1       25.103 -24.545   5.269  0.00  0.00    +0.020 A 
ATOM     14  C   LIG    1       24.176 -25.329   5.948  0.00  0.00    +0.041 A 
ATOM     15 CL   LIG    1       24.251 -27.043   5.826  0.00  0.00    -0.084 Cl
ATOM     16  C   LIG    1       23.187 -24.732   6.724  0.00  0.00    +0.020 A 
ATOM     17  C   LIG    1       23.123 -23.339   6.825  0.00  0.00    +0.008 A 
ENDBRANCH   3  11
TORSDOF 1
ENDMDL
MODEL 2
REMARK VINA RESULT:      -7.5      1.937      2.316
REMARK  Name = *****
REMARK                            x       y       z     vdW  Elec       q    Type
REMARK                         _______ _______ _______ _____ _____    ______ ____
ROOT
ATOM      1  C   LIG    1       27.422 -21.827   7.220  0.00  0.00    +0.134 C 
ATOM      2  N   LIG    1       26.049 -21.605   6.787  0.00  0.00    -0.279 N 
ATOM      3  C   LIG    1       25.053 -22.618   7.203  0.00  0.00    +0.249 C 
ATOM      4  S   LIG    1       23.308 -22.152   7.020  0.00  0.00    -0.007 S 
ATOM      5  O   LIG    1       22.453 -23.318   6.909  0.00  0.00    -0.172 OA
ATOM      6  O   LIG    1       23.000 -21.120   7.997  0.00  0.00    -0.172 OA
ATOM      7  C   LIG    1       23.378 -21.373   5.436  0.00  0.00    +0.177 C 
ATOM      8  C   LIG    1       24.411 -20.274   5.446  0.00  0.00    +0.118 C 
ATOM      9  C   LIG    1       25.834 -20.705   5.754  0.00  0.00    +0.218 C 
ATOM     10  O   LIG    1       26.766 -20.166   5.156  0.00  0.00    -0.276 OA
ENDROOT
BRANCH   3  11
ATOM     11  C   LIG    1       25.270 -23.981   6.546  0.00  0.00    -0.006 A 
ATOM     12  C   LIG    1       25.752 -25.049   7.326  0.00  0.00    +0.008 A 
ATOM     13  C   LIG    1       25.957 -26.314   6.766  0.00  0.00    +0.020 A 
ATOM     14  C   LIG    1       25.687 -26.525   5.419  0.00  0.00    +0.041 A 
ATOM     15 CL   LIG    1       25.943 -28.079   4.727  0.00  0.00    -0.084 Cl
ATOM     16  C   LIG    1       25.213 -25.484   4.626  0.00  0.00    +0.020 A 
ATOM     17  C   LIG    1       25.005 -24.219   5.185  0.00  0.00    +0.008 A 
ENDBRANCH   3  11
TORSDOF 1
ENDMDL
MODEL 3
REMARK VINA RESULT:      -7.1      3.507      4.732
REMARK  Name = *****
REMARK                            x       y       z     vdW  Elec       q    Type
REMARK                         _______ _______ _______ _____ _____    ______ ____
ROOT
ATOM      1  C   LIG    1       27.738 -19.933   5.751  0.00  0.00    +0.134 C 
ATOM      2  N   LIG    1       26.956 -20.902   6.508  0.00  0.00    -0.279 N 
ATOM      3  C   LIG    1       25.906 -21.631   5.761  0.00  0.00    +0.249 C 
ATOM      4  S   LIG    1       25.214 -23.099   6.575  0.00  0.00    -0.007 S 
ATOM      5  O   LIG    1       23.885 -23.405   6.082  0.00  0.00    -0.172 OA
ATOM      6  O   LIG    1       26.232 -24.136   6.601  0.00  0.00    -0.172 OA
ATOM      7  C   LIG    1       25.056 -22.474   8.220  0.00  0.00    +0.177 C 
ATOM      8  C   LIG    1       26.386 -21.953   8.704  0.00  0.00    +0.118 C 
ATOM      9  C   LIG    1       26.990 -20.820   7.892  0.00  0.00    +0.218 C 
ATOM     10  O   LIG    1       27.587 -19.916   8.476  0.00  0.00    -0.276 OA
ENDROOT
BRANCH   3  11
ATOM     11  C   LIG    1       24.757 -20.732   5.307  0.00  0.00    -0.006 A 
ATOM     12  C   LIG    1       24.799 -20.164   4.019  0.00  0.00    +0.008 A 
ATOM     13  C   LIG    1       23.765 -19.342   3.560  0.00  0.00    +0.020 A 
ATOM     14  C   LIG    1       22.678 -19.074   4.385  0.00  0.00    +0.041 A 
ATOM     15 CL   LIG    1       21.407 -18.060   3.825  0.00  0.00    -0.084 Cl
ATOM     16  C   LIG    1       22.616 -19.621   5.664  0.00  0.00    +0.020 A 
ATOM     17  C   LIG    1       23.648 -20.445   6.123  0.00  0.00    +0.008 A 
ENDBRANCH   3  11
TORSDOF 1
ENDMDL
MODEL 4
REMARK VINA RESULT:      -6.7      3.095      4.771
REMARK  Name = *****
REMARK                            x       y       z     vdW  Elec       q    Type
REMARK                         _______ _______ _______ _____ _____    ______ ____
ROOT
ATOM      1  C   LIG    1       25.241 -23.715   6.085  0.00  0.00    +0.134 C 
ATOM      2  N   LIG    1       24.578 -22.489   5.660  0.00  0.00    -0.279 N 
ATOM      3  C   LIG    1       25.433 -21.464   5.019  0.00  0.00    +0.249 C 
ATOM      4  S   LIG    1       24.569 -20.134   4.136  0.00  0.00    -0.007 S 
ATOM      5  O   LIG    1       25.388 -18.941   4.036  0.00  0.00    -0.172 OA
ATOM      6  O   LIG    1       23.956 -20.694   2.943  0.00  0.00    -0.172 OA
ATOM      7  C   LIG    1       23.273 -19.811   5.293  0.00  0.00    +0.177 C 
ATOM      8  C   LIG    1       22.514 -21.081   5.586  0.00  0.00    +0.118 C 
ATOM      9  C   LIG    1       23.326 -22.215   6.187  0.00  0.00    +0.218 C 
ATOM     10  O   LIG    1       22.811 -22.928   7.049  0.00  0.00    -0.276 OA
ENDROOT
BRANCH   3  11
ATOM     11  C   LIG    1       26.448 -20.842   5.978  0.00  0.00    -0.006 A 
ATOM     12  C   LIG    1       27.644 -20.310   5.460  0.00  0.00    +0.008 A 
ATOM     13  C   LIG    1       28.595 -19.724   6.301  0.00  0.00    +0.020 A 
ATOM     14  C   LIG    1       28.364 -19.667   7.671  0.00  0.00    +0.041 A 
ATOM     15 CL   LIG    1       29.534 -18.951   8.708  0.00  0.00    -0.084 Cl
ATOM     16  C   LIG    1       27.191 -20.190   8.207  0.00  0.00    +0.020 A 
ATOM     17  C   LIG    1       26.237 -20.773   7.368  0.00  0.00    +0.008 A 
ENDBRANCH   3  11
TORSDOF 1
ENDMDL
MODEL 5
REMARK VINA RESULT:      -6.7      1.144      1.667
REMARK  Name = *****
REMARK                            x       y       z     vdW  Elec       q    Type
REMARK                         _______ _______ _______ _____ _____    ______ ____
ROOT
ATOM      1  C   LIG    1       25.835 -20.873   8.667  0.00  0.00    +0.134 C 
ATOM      2  N   LIG    1       25.678 -20.607   7.243  0.00  0.00    -0.279 N 
ATOM      3  C   LIG    1       24.478 -21.180   6.593  0.00  0.00    +0.249 C 
ATOM      4  S   LIG    1       24.067 -20.529   4.948  0.00  0.00    -0.007 S 
ATOM      5  O   LIG    1       23.279 -21.475   4.182  0.00  0.00    -0.172 OA
ATOM      6  O   LIG    1       23.609 -19.158   5.096  0.00  0.00    -0.172 OA
ATOM      7  C   LIG    1       25.687 -20.471   4.244  0.00  0.00    +0.177 C 
ATOM      8  C   LIG    1       26.603 -19.657   5.123  0.00  0.00    +0.118 C 
ATOM      9  C   LIG    1       26.791 -20.170   6.540  0.00  0.00    +0.218 C 
ATOM     10  O   LIG    1       27.901 -20.085   7.066  0.00  0.00    -0.276 OA
ENDROOT
BRANCH   3  11
ATOM     11  C   LIG    1       24.501 -22.707   6.527  0.00  0.00    -0.006 A 
ATOM     12  C   LIG    1       23.291 -23.417   6.651  0.00  0.00    +0.008 A 
ATOM     13  C   LIG    1       23.267 -24.813   6.588  0.00  0.00    +0.020 A 
ATOM     14  C   LIG    1       24.451 -25.518   6.405  0.00  0.00    +0.041 A 
ATOM     15 CL   LIG    1       24.424 -27.236   6.333  0.00  0.00    -0.084 Cl
ATOM     16  C   LIG    1       25.660 -24.838   6.285  0.00  0.00    +0.020 A 
ATOM     17  C   LIG    1       25.687 -23.442   6.344  0.00  0.00    +0.008 A 
ENDBRANCH   3  11
TORSDOF 1
ENDMDL
MODEL 6
REMARK VINA RESULT:      -6.5      2.081      3.289
REMARK  Name = *****
REMARK                            x       y       z     vdW  Elec       q    Type
REMARK                         _______ _______ _______ _____ _____    ______ ____
ROOT
ATOM      1  C   LIG    1       24.410 -21.724   3.837  0.00  0.00    +0.134 C 
ATOM      2  N   LIG    1       24.355 -21.429   5.263  0.00  0.00    -0.279 N 
ATOM      3  C   LIG    1       25.343 -22.124   6.119  0.00  0.00    +0.249 C 
ATOM      4  S   LIG    1       25.548 -21.472   7.801  0.00  0.00    -0.007 S 
ATOM      5  O   LIG    1       26.067 -22.481   8.705  0.00  0.00    -0.172 OA
ATOM      6  O   LIG    1       26.197 -20.174   7.718  0.00  0.00    -0.172 OA
ATOM      7  C   LIG    1       23.853 -21.189   8.213  0.00  0.00    +0.177 C 
ATOM      8  C   LIG    1       23.213 -20.299   7.178  0.00  0.00    +0.118 C 
ATOM      9  C   LIG    1       23.205 -20.834   5.757  0.00  0.00    +0.218 C 
ATOM     10  O   LIG    1       22.220 -20.630   5.045  0.00  0.00    -0.276 OA
ENDROOT
BRANCH   3  11
ATOM     11  C   LIG    1       25.114 -23.633   6.200  0.00  0.00    -0.006 A 
ATOM     12  C   LIG    1       26.227 -24.495   6.247  0.00  0.00    +0.008 A 
ATOM     13  C   LIG    1       26.061 -25.880   6.330  0.00  0.00    +0.020 A 
ATOM     14  C   LIG    1       24.781 -26.423   6.362  0.00  0.00    +0.041 A 
ATOM     15 CL   LIG    1       24.575 -28.127   6.458  0.00  0.00    -0.084 Cl
ATOM     16  C   LIG    1       23.666 -25.592   6.312  0.00  0.00    +0.020 A 
ATOM     17  C   LIG    1       23.829 -24.205   6.233  0.00  0.00    +0.008 A 
ENDBRANCH   3  11
TORSDOF 1
ENDMDL
MODEL 7
REMARK VINA RESULT:      -5.9      3.513      5.238
REMARK  Name = *****
REMARK                            x       y       z     vdW  Elec       q    Type
REMARK                         _______ _______ _______ _____ _____    ______ ____
ROOT
ATOM      1  C   LIG    1       22.461 -23.834   6.730  0.00  0.00    +0.134 C 
ATOM      2  N   LIG    1       23.837 -23.442   7.005  0.00  0.00    -0.279 N 
ATOM      3  C   LIG    1       24.059 -22.024   7.369  0.00  0.00    +0.249 C 
ATOM      4  S   LIG    1       25.674 -21.624   8.096  0.00  0.00    -0.007 S 
ATOM      5  O   LIG    1       26.013 -20.227   7.906  0.00  0.00    -0.172 OA
ATOM      6  O   LIG    1       25.741 -22.210   9.424  0.00  0.00    -0.172 OA
ATOM      7  C   LIG    1       26.715 -22.587   7.042  0.00  0.00    +0.177 C 
ATOM      8  C   LIG    1       26.267 -24.027   7.051  0.00  0.00    +0.118 C 
ATOM      9  C   LIG    1       24.849 -24.284   6.572  0.00  0.00    +0.218 C 
ATOM     10  O   LIG    1       24.615 -25.291   5.902  0.00  0.00    -0.276 OA
ENDROOT
BRANCH   3  11
ATOM     11  C   LIG    1       23.783 -21.057   6.219  0.00  0.00    -0.006 A 
ATOM     12  C   LIG    1       22.749 -20.110   6.351  0.00  0.00    +0.008 A 
ATOM     13  C   LIG    1       22.469 -19.202   5.325  0.00  0.00    +0.020 A 
ATOM     14  C   LIG    1       23.216 -19.232   4.153  0.00  0.00    +0.041 A 
ATOM     15 CL   LIG    1       22.870 -18.119   2.889  0.00  0.00    -0.084 Cl
ATOM     16  C   LIG    1       24.240 -20.161   3.997  0.00  0.00    +0.020 A 
ATOM     17  C   LIG    1       24.524 -21.068   5.023  0.00  0.00    +0.008 A 
ENDBRANCH   3  11
TORSDOF 1
ENDMDL
MODEL 8
REMARK VINA RESULT:      -5.8      3.505      5.273
REMARK  Name = *****
REMARK                            x       y       z     vdW  Elec       q    Type
REMARK                         _______ _______ _______ _____ _____    ______ ____
ROOT
ATOM      1  C   LIG    1       24.595 -19.426   4.589  0.00  0.00    +0.134 C 
ATOM      2  N   LIG    1       24.637 -20.663   5.358  0.00  0.00    -0.279 N 
ATOM      3  C   LIG    1       25.206 -20.574   6.722  0.00  0.00    +0.249 C 
ATOM      4  S   LIG    1       24.896 -21.989   7.816  0.00  0.00    -0.007 S 
ATOM      5  O   LIG    1       25.897 -22.084   8.861  0.00  0.00    -0.172 OA
ATOM      6  O   LIG    1       23.485 -22.005   8.162  0.00  0.00    -0.172 OA
ATOM      7  C   LIG    1       25.174 -23.308   6.673  0.00  0.00    +0.177 C 
ATOM      8  C   LIG    1       24.289 -23.137   5.463  0.00  0.00    +0.118 C 
ATOM      9  C   LIG    1       24.492 -21.858   4.670  0.00  0.00    +0.218 C 
ATOM     10  O   LIG    1       24.414 -21.896   3.441  0.00  0.00    -0.276 OA
ENDROOT
BRANCH   3  11
ATOM     11  C   LIG    1       26.702 -20.263   6.730  0.00  0.00    -0.006 A 
ATOM     12  C   LIG    1       27.377 -20.173   7.963  0.00  0.00    +0.008 A 
ATOM     13  C   LIG    1       28.747 -19.898   8.015  0.00  0.00    +0.020 A 
ATOM     14  C   LIG    1       29.458 -19.705   6.836  0.00  0.00    +0.041 A 
ATOM     15 CL   LIG    1       31.142 -19.363   6.899  0.00  0.00    -0.084 Cl
ATOM     16  C   LIG    1       28.813 -19.785   5.606  0.00  0.00    +0.020 A 
ATOM     17  C   LIG    1       27.443 -20.063   5.551  0.00  0.00    +0.008 A 
ENDBRANCH   3  11
TORSDOF 1
ENDMDL
MODEL 9
REMARK VINA RESULT:      -5.8      7.574      9.706
REMARK  Name = *****
REMARK                            x       y       z     vdW  Elec       q    Type
REMARK                         _______ _______ _______ _____ _____    ______ ____
ROOT
ATOM      1  C   LIG    1       25.875 -31.592   4.886  0.00  0.00    +0.134 C 
ATOM      2  N   LIG    1       25.579 -31.690   6.309  0.00  0.00    -0.279 N 
ATOM      3  C   LIG    1       24.479 -30.838   6.815  0.00  0.00    +0.249 C 
ATOM      4  S   LIG    1       23.844 -31.243   8.467  0.00  0.00    -0.007 S 
ATOM      5  O   LIG    1       23.214 -30.096   9.092  0.00  0.00    -0.172 OA
ATOM      6  O   LIG    1       23.132 -32.507   8.392  0.00  0.00    -0.172 OA
ATOM      7  C   LIG    1       25.372 -31.547   9.301  0.00  0.00    +0.177 C 
ATOM      8  C   LIG    1       26.161 -32.601   8.564  0.00  0.00    +0.118 C 
ATOM      9  C   LIG    1       26.536 -32.267   7.130  0.00  0.00    +0.218 C 
ATOM     10  O   LIG    1       27.638 -32.613   6.703  0.00  0.00    -0.276 OA
ENDROOT
BRANCH   3  11
ATOM     11  C   LIG    1       24.802 -29.345   6.763  0.00  0.00    -0.006 A 
ATOM     12  C   LIG    1       24.132 -28.531   5.830  0.00  0.00    +0.008 A 
ATOM     13  C   LIG    1       24.391 -27.159   5.754  0.00  0.00    +0.020 A 
ATOM     14  C   LIG    1       25.327 -26.585   6.607  0.00  0.00    +0.041 A 
ATOM     15 CL   LIG    1       25.651 -24.899   6.513  0.00  0.00    -0.084 Cl
ATOM     16  C   LIG    1       26.005 -27.370   7.535  0.00  0.00    +0.020 A 
ATOM     17  C   LIG    1       25.745 -28.741   7.615  0.00  0.00    +0.008 A 
ENDBRANCH   3  11
TORSDOF 1
ENDMDL
