MODEL 1
REMARK VINA RESULT:      -8.6      0.000      0.000
REMARK  Name = *****
REMARK                            x       y       z     vdW  Elec       q    Type
REMARK                         _______ _______ _______ _____ _____    ______ ____
ROOT
ATOM      1  C   LIG    1       29.802 -19.130   7.954  0.00  0.00    -0.007 A 
ATOM      2  C   LIG    1       28.780 -19.868   8.557  0.00  0.00    +0.010 A 
ATOM      3  C   LIG    1       27.698 -20.306   7.790  0.00  0.00    +0.010 A 
ATOM      4  C   LIG    1       27.652 -20.019   6.421  0.00  0.00    -0.007 A 
ATOM      5  C   LIG    1       28.689 -19.300   5.815  0.00  0.00    +0.010 A 
ATOM      6  C   LIG    1       29.763 -18.848   6.585  0.00  0.00    +0.010 A 
ENDROOT
BRANCH   1   8
ATOM      7  N   LIG    1       30.737 -17.743   9.693  0.00  0.00    -0.276 NA
ATOM      8  C   LIG    1       30.914 -18.648   8.790  0.00  0.00    +0.113 C 
BRANCH   7  11
ATOM      9  O   LIG    1       32.581 -15.586   8.889  0.00  0.00    -0.271 OA
ATOM     10  C   LIG    1       32.493 -16.035  10.020  0.00  0.00    +0.263 C 
ATOM     11  C   LIG    1       31.964 -17.388  10.423  0.00  0.00    +0.220 C 
ATOM     12  C   LIG    1       31.645 -17.121  11.885  0.00  0.00    +0.226 C 
ATOM     13  O   LIG    1       32.528 -16.082  12.328  0.00  0.00    -0.277 OA
ATOM     14  N   LIG    1       32.933 -15.402  11.157  0.00  0.00    -0.193 N 
ATOM     15  H   LIG    1       33.127 -14.411  11.187  0.00  0.00    +0.182 HD
ENDBRANCH   7  11
ENDBRANCH   1   8
BRANCH   4  16
ATOM     16  C   LIG    1       26.501 -20.506   5.630  0.00  0.00    +0.113 C 
ATOM     17  N   LIG    1       25.703 -21.416   6.077  0.00  0.00    -0.276 NA
BRANCH  17  18
ATOM     18  C   LIG    1       24.566 -21.742   5.192  0.00  0.00    +0.220 C 
ATOM     19  C   LIG    1       23.271 -21.962   5.927  0.00  0.00    +0.263 C 
ATOM     20  O   LIG    1       23.096 -22.656   6.915  0.00  0.00    -0.271 OA
ATOM     21  N   LIG    1       22.276 -21.309   5.245  0.00  0.00    -0.193 N 
ATOM     22  H   LIG    1       21.344 -21.167   5.608  0.00  0.00    +0.182 HD
ATOM     23  O   LIG    1       22.776 -20.478   4.223  0.00  0.00    -0.277 OA
ATOM     24  C   LIG    1       24.204 -20.529   4.339  0.00  0.00    +0.226 C 
ENDBRANCH  17  18
ENDBRANCH   4  16
TORSDOF 4
ENDMDL
MODEL 2
REMARK VINA RESULT:      -8.1      1.663      1.986
REMARK  Name = *****
REMARK                            x       y       z     vdW  Elec       q    Type
REMARK                         _______ _______ _______ _____ _____    ______ ____
ROOT
ATOM      1  C   LIG    1       29.907 -19.552   8.171  0.00  0.00    -0.007 A 
ATOM      2  C   LIG    1       29.353 -20.709   8.724  0.00  0.00    +0.010 A 
ATOM      3  C   LIG    1       28.262 -21.319   8.101  0.00  0.00    +0.010 A 
ATOM      4  C   LIG    1       27.740 -20.779   6.920  0.00  0.00    -0.007 A 
ATOM      5  C   LIG    1       28.312 -19.633   6.356  0.00  0.00    +0.010 A 
ATOM      6  C   LIG    1       29.393 -19.013   6.987  0.00  0.00    +0.010 A 
ENDROOT
BRANCH   1   8
ATOM      7  N   LIG    1       30.843 -18.072   9.831  0.00  0.00    -0.276 NA
ATOM      8  C   LIG    1       31.034 -18.906   8.865  0.00  0.00    +0.113 C 
BRANCH   7  11
ATOM      9  O   LIG    1       32.392 -15.871   8.624  0.00  0.00    -0.271 OA
ATOM     10  C   LIG    1       32.446 -16.191   9.800  0.00  0.00    +0.263 C 
ATOM     11  C   LIG    1       32.088 -17.528  10.396  0.00  0.00    +0.220 C 
ATOM     12  C   LIG    1       31.871 -17.121  11.844  0.00  0.00    +0.226 C 
ATOM     13  O   LIG    1       32.683 -15.964  12.086  0.00  0.00    -0.277 OA
ATOM     14  N   LIG    1       32.918 -15.393  10.814  0.00  0.00    -0.193 N 
ATOM     15  H   LIG    1       33.016 -14.392  10.718  0.00  0.00    +0.182 HD
ENDBRANCH   7  11
ENDBRANCH   1   8
BRANCH   4  16
ATOM     16  C   LIG    1       26.592 -21.452   6.275  0.00  0.00    +0.113 C 
ATOM     17  N   LIG    1       26.126 -22.573   6.711  0.00  0.00    -0.276 NA
BRANCH  17  18
ATOM     18  C   LIG    1       24.937 -23.078   5.997  0.00  0.00    +0.220 C 
ATOM     19  C   LIG    1       24.969 -24.561   5.740  0.00  0.00    +0.263 C 
ATOM     20  O   LIG    1       25.896 -25.207   5.280  0.00  0.00    -0.271 OA
ATOM     21  N   LIG    1       23.731 -25.073   6.033  0.00  0.00    -0.193 N 
ATOM     22  H   LIG    1       23.530 -26.061   6.096  0.00  0.00    +0.182 HD
ATOM     23  O   LIG    1       22.894 -24.135   6.670  0.00  0.00    -0.277 OA
ATOM     24  C   LIG    1       23.706 -22.973   6.892  0.00  0.00    +0.226 C 
ENDBRANCH  17  18
ENDBRANCH   4  16
TORSDOF 4
ENDMDL
MODEL 3
REMARK VINA RESULT:      -7.9      6.480     11.119
REMARK  Name = *****
REMARK                            x       y       z     vdW  Elec       q    Type
REMARK                         _______ _______ _______ _____ _____    ______ ____
ROOT
ATOM      1  C   LIG    1       25.134 -27.639   6.620  0.00  0.00    -0.007 A 
ATOM      2  C   LIG    1       24.165 -27.187   5.720  0.00  0.00    +0.010 A 
ATOM      3  C   LIG    1       24.097 -25.828   5.403  0.00  0.00    +0.010 A 
ATOM      4  C   LIG    1       25.007 -24.931   5.974  0.00  0.00    -0.007 A 
ATOM      5  C   LIG    1       25.991 -25.392   6.857  0.00  0.00    +0.010 A 
ATOM      6  C   LIG    1       26.050 -26.748   7.187  0.00  0.00    +0.010 A 
ENDROOT
BRANCH   1   8
ATOM      7  N   LIG    1       24.162 -29.646   7.544  0.00  0.00    -0.276 NA
ATOM      8  C   LIG    1       25.163 -29.070   6.966  0.00  0.00    +0.113 C 
BRANCH   7  11
ATOM      9  O   LIG    1       23.159 -31.828   5.832  0.00  0.00    -0.271 OA
ATOM     10  C   LIG    1       24.098 -31.930   6.604  0.00  0.00    +0.263 C 
ATOM     11  C   LIG    1       24.379 -31.075   7.813  0.00  0.00    +0.220 C 
ATOM     12  C   LIG    1       25.863 -31.354   7.994  0.00  0.00    +0.226 C 
ATOM     13  O   LIG    1       26.117 -32.659   7.456  0.00  0.00    -0.277 OA
ATOM     14  N   LIG    1       25.061 -32.909   6.549  0.00  0.00    -0.193 N 
ATOM     15  H   LIG    1       25.224 -33.468   5.724  0.00  0.00    +0.182 HD
ENDBRANCH   7  11
ENDBRANCH   1   8
BRANCH   4  16
ATOM     16  C   LIG    1       24.921 -23.500   5.611  0.00  0.00    +0.113 C 
ATOM     17  N   LIG    1       25.065 -22.565   6.488  0.00  0.00    -0.276 NA
BRANCH  17  18
ATOM     18  C   LIG    1       25.017 -21.190   5.952  0.00  0.00    +0.220 C 
ATOM     19  C   LIG    1       26.368 -20.537   5.837  0.00  0.00    +0.263 C 
ATOM     20  O   LIG    1       27.240 -20.500   6.690  0.00  0.00    -0.271 OA
ATOM     21  N   LIG    1       26.435 -19.902   4.624  0.00  0.00    -0.193 N 
ATOM     22  H   LIG    1       27.287 -19.521   4.234  0.00  0.00    +0.182 HD
ATOM     23  O   LIG    1       25.349 -20.220   3.786  0.00  0.00    -0.277 OA
ATOM     24  C   LIG    1       24.592 -21.216   4.486  0.00  0.00    +0.226 C 
ENDBRANCH  17  18
ENDBRANCH   4  16
TORSDOF 4
ENDMDL
MODEL 4
REMARK VINA RESULT:      -7.7      6.774     11.623
REMARK  Name = *****
REMARK                            x       y       z     vdW  Elec       q    Type
REMARK                         _______ _______ _______ _____ _____    ______ ____
ROOT
ATOM      1  C   LIG    1       25.463 -28.034   5.717  0.00  0.00    -0.007 A 
ATOM      2  C   LIG    1       25.787 -27.596   7.004  0.00  0.00    +0.010 A 
ATOM      3  C   LIG    1       25.865 -26.228   7.270  0.00  0.00    +0.010 A 
ATOM      4  C   LIG    1       25.602 -25.303   6.252  0.00  0.00    -0.007 A 
ATOM      5  C   LIG    1       25.254 -25.744   4.970  0.00  0.00    +0.010 A 
ATOM      6  C   LIG    1       25.192 -27.113   4.700  0.00  0.00    +0.010 A 
ENDROOT
BRANCH   1   8
ATOM      7  N   LIG    1       25.420 -30.344   6.413  0.00  0.00    -0.276 NA
ATOM      8  C   LIG    1       25.422 -29.482   5.452  0.00  0.00    +0.113 C 
BRANCH   7  11
ATOM      9  O   LIG    1       23.069 -32.108   6.656  0.00  0.00    -0.271 OA
ATOM     10  C   LIG    1       23.973 -32.267   5.852  0.00  0.00    +0.263 C 
ATOM     11  C   LIG    1       25.382 -31.741   5.952  0.00  0.00    +0.220 C 
ATOM     12  C   LIG    1       25.796 -31.821   4.492  0.00  0.00    +0.226 C 
ATOM     13  O   LIG    1       25.029 -32.873   3.890  0.00  0.00    -0.277 OA
ATOM     14  N   LIG    1       23.890 -33.030   4.712  0.00  0.00    -0.193 N 
ATOM     15  H   LIG    1       23.007 -33.310   4.308  0.00  0.00    +0.182 HD
ENDBRANCH   7  11
ENDBRANCH   1   8
BRANCH   4  16
ATOM     16  C   LIG    1       25.679 -23.859   6.564  0.00  0.00    +0.113 C 
ATOM     17  N   LIG    1       25.101 -22.971   5.829  0.00  0.00    -0.276 NA
BRANCH  17  18
ATOM     18  C   LIG    1       25.218 -21.582   6.315  0.00  0.00    +0.220 C 
ATOM     19  C   LIG    1       24.456 -21.319   7.586  0.00  0.00    +0.263 C 
ATOM     20  O   LIG    1       23.301 -21.628   7.828  0.00  0.00    -0.271 OA
ATOM     21  N   LIG    1       25.258 -20.584   8.422  0.00  0.00    -0.193 N 
ATOM     22  H   LIG    1       25.048 -20.409   9.395  0.00  0.00    +0.182 HD
ATOM     23  O   LIG    1       26.583 -20.484   7.951  0.00  0.00    -0.277 OA
ATOM     24  C   LIG    1       26.646 -21.310   6.780  0.00  0.00    +0.226 C 
ENDBRANCH  17  18
ENDBRANCH   4  16
TORSDOF 4
ENDMDL
MODEL 5
REMARK VINA RESULT:      -7.7      6.956      9.475
REMARK  Name = *****
REMARK                            x       y       z     vdW  Elec       q    Type
REMARK                         _______ _______ _______ _____ _____    ______ ____
ROOT
ATOM      1  C   LIG    1       25.749 -25.607   6.374  0.00  0.00    -0.007 A 
ATOM      2  C   LIG    1       25.908 -26.572   7.372  0.00  0.00    +0.010 A 
ATOM      3  C   LIG    1       25.719 -27.921   7.065  0.00  0.00    +0.010 A 
ATOM      4  C   LIG    1       25.389 -28.300   5.758  0.00  0.00    -0.007 A 
ATOM      5  C   LIG    1       25.253 -27.332   4.756  0.00  0.00    +0.010 A 
ATOM      6  C   LIG    1       25.426 -25.982   5.067  0.00  0.00    +0.010 A 
ENDROOT
BRANCH   1   8
ATOM      7  N   LIG    1       25.263 -23.256   6.122  0.00  0.00    -0.276 NA
ATOM      8  C   LIG    1       25.917 -24.188   6.731  0.00  0.00    +0.113 C 
BRANCH   7  11
ATOM      9  O   LIG    1       23.468 -21.674   7.848  0.00  0.00    -0.271 OA
ATOM     10  C   LIG    1       24.673 -21.501   7.758  0.00  0.00    +0.263 C 
ATOM     11  C   LIG    1       25.567 -21.903   6.614  0.00  0.00    +0.220 C 
ATOM     12  C   LIG    1       26.915 -21.894   7.318  0.00  0.00    +0.226 C 
ATOM     13  O   LIG    1       26.823 -20.952   8.396  0.00  0.00    -0.277 OA
ATOM     14  N   LIG    1       25.443 -20.830   8.677  0.00  0.00    -0.193 N 
ATOM     15  H   LIG    1       25.133 -20.651   9.622  0.00  0.00    +0.182 HD
ENDBRANCH   7  11
ENDBRANCH   1   8
BRANCH   4  16
ATOM     16  C   LIG    1       25.207 -29.737   5.457  0.00  0.00    +0.113 C 
ATOM     17  N   LIG    1       25.690 -30.659   6.219  0.00  0.00    -0.276 NA
BRANCH  17  18
ATOM     18  C   LIG    1       25.363 -32.041   5.815  0.00  0.00    +0.220 C 
ATOM     19  C   LIG    1       23.894 -32.361   5.885  0.00  0.00    +0.263 C 
ATOM     20  O   LIG    1       23.135 -32.128   6.812  0.00  0.00    -0.271 OA
ATOM     21  N   LIG    1       23.551 -33.048   4.749  0.00  0.00    -0.193 N 
ATOM     22  H   LIG    1       22.597 -33.243   4.474  0.00  0.00    +0.182 HD
ATOM     23  O   LIG    1       24.583 -33.059   3.790  0.00  0.00    -0.277 OA
ATOM     24  C   LIG    1       25.620 -32.223   4.322  0.00  0.00    +0.226 C 
ENDBRANCH  17  18
ENDBRANCH   4  16
TORSDOF 4
ENDMDL
MODEL 6
REMARK VINA RESULT:      -7.7      6.841     11.052
REMARK  Name = *****
REMARK                            x       y       z     vdW  Elec       q    Type
REMARK                         _______ _______ _______ _____ _____    ______ ____
ROOT
ATOM      1  C   LIG    1       25.148 -27.333   6.201  0.00  0.00    -0.007 A 
ATOM      2  C   LIG    1       24.100 -26.706   5.522  0.00  0.00    +0.010 A 
ATOM      3  C   LIG    1       23.962 -25.318   5.595  0.00  0.00    +0.010 A 
ATOM      4  C   LIG    1       24.880 -24.563   6.333  0.00  0.00    -0.007 A 
ATOM      5  C   LIG    1       25.942 -25.192   6.993  0.00  0.00    +0.010 A 
ATOM      6  C   LIG    1       26.072 -26.581   6.933  0.00  0.00    +0.010 A 
ENDROOT
BRANCH   1   8
ATOM      7  N   LIG    1       25.312 -29.519   7.209  0.00  0.00    -0.276 NA
ATOM      8  C   LIG    1       25.253 -28.800   6.139  0.00  0.00    +0.113 C 
BRANCH   7  11
ATOM      9  O   LIG    1       23.253 -31.497   7.951  0.00  0.00    -0.271 OA
ATOM     10  C   LIG    1       24.089 -31.663   7.078  0.00  0.00    +0.263 C 
ATOM     11  C   LIG    1       25.417 -30.963   6.945  0.00  0.00    +0.220 C 
ATOM     12  C   LIG    1       25.697 -31.206   5.471  0.00  0.00    +0.226 C 
ATOM     13  O   LIG    1       25.024 -32.419   5.106  0.00  0.00    -0.277 OA
ATOM     14  N   LIG    1       24.000 -32.589   6.066  0.00  0.00    -0.193 N 
ATOM     15  H   LIG    1       23.129 -33.028   5.805  0.00  0.00    +0.182 HD
ENDBRANCH   7  11
ENDBRANCH   1   8
BRANCH   4  16
ATOM     16  C   LIG    1       24.717 -23.093   6.383  0.00  0.00    +0.113 C 
ATOM     17  N   LIG    1       24.766 -22.365   5.319  0.00  0.00    -0.276 NA
BRANCH  17  18
ATOM     18  C   LIG    1       24.518 -20.926   5.533  0.00  0.00    +0.220 C 
ATOM     19  C   LIG    1       24.246 -20.163   4.264  0.00  0.00    +0.263 C 
ATOM     20  O   LIG    1       24.888 -20.210   3.227  0.00  0.00    -0.271 OA
ATOM     21  N   LIG    1       23.186 -19.322   4.489  0.00  0.00    -0.193 N 
ATOM     22  H   LIG    1       22.704 -18.816   3.759  0.00  0.00    +0.182 HD
ATOM     23  O   LIG    1       22.551 -19.569   5.722  0.00  0.00    -0.277 OA
ATOM     24  C   LIG    1       23.197 -20.727   6.270  0.00  0.00    +0.226 C 
ENDBRANCH  17  18
ENDBRANCH   4  16
TORSDOF 4
ENDMDL
MODEL 7
REMARK VINA RESULT:      -7.6      6.719      9.510
REMARK  Name = *****
REMARK                            x       y       z     vdW  Elec       q    Type
REMARK                         _______ _______ _______ _____ _____    ______ ____
ROOT
ATOM      1  C   LIG    1       24.705 -24.300   6.324  0.00  0.00    -0.007 A 
ATOM      2  C   LIG    1       23.788 -25.178   5.742  0.00  0.00    +0.010 A 
ATOM      3  C   LIG    1       24.055 -26.549   5.731  0.00  0.00    +0.010 A 
ATOM      4  C   LIG    1       25.230 -27.036   6.315  0.00  0.00    -0.007 A 
ATOM      5  C   LIG    1       26.136 -26.155   6.918  0.00  0.00    +0.010 A 
ATOM      6  C   LIG    1       25.876 -24.782   6.915  0.00  0.00    +0.010 A 
ENDROOT
BRANCH   1   8
ATOM      7  N   LIG    1       24.999 -22.070   5.447  0.00  0.00    -0.276 NA
ATOM      8  C   LIG    1       24.418 -22.855   6.291  0.00  0.00    +0.113 C 
BRANCH   7  11
ATOM      9  O   LIG    1       24.986 -20.143   3.214  0.00  0.00    -0.271 OA
ATOM     10  C   LIG    1       24.317 -20.031   4.228  0.00  0.00    +0.263 C 
ATOM     11  C   LIG    1       24.587 -20.663   5.570  0.00  0.00    +0.220 C 
ATOM     12  C   LIG    1       23.200 -20.576   6.185  0.00  0.00    +0.226 C 
ATOM     13  O   LIG    1       22.539 -19.454   5.584  0.00  0.00    -0.277 OA
ATOM     14  N   LIG    1       23.205 -19.235   4.356  0.00  0.00    -0.193 N 
ATOM     15  H   LIG    1       22.695 -18.879   3.560  0.00  0.00    +0.182 HD
ENDBRANCH   7  11
ENDBRANCH   1   8
BRANCH   4  16
ATOM     16  C   LIG    1       25.482 -28.493   6.301  0.00  0.00    +0.113 C 
ATOM     17  N   LIG    1       24.942 -29.287   7.162  0.00  0.00    -0.276 NA
BRANCH  17  18
ATOM     18  C   LIG    1       25.243 -30.719   6.969  0.00  0.00    +0.220 C 
ATOM     19  C   LIG    1       24.048 -31.619   7.148  0.00  0.00    +0.263 C 
ATOM     20  O   LIG    1       23.244 -31.598   8.065  0.00  0.00    -0.271 OA
ATOM     21  N   LIG    1       24.053 -32.543   6.134  0.00  0.00    -0.193 N 
ATOM     22  H   LIG    1       23.279 -33.161   5.932  0.00  0.00    +0.182 HD
ATOM     23  O   LIG    1       25.010 -32.253   5.142  0.00  0.00    -0.277 OA
ATOM     24  C   LIG    1       25.582 -30.989   5.506  0.00  0.00    +0.226 C 
ENDBRANCH  17  18
ENDBRANCH   4  16
TORSDOF 4
ENDMDL
MODEL 8
REMARK VINA RESULT:      -7.6      6.441      9.483
REMARK  Name = *****
REMARK                            x       y       z     vdW  Elec       q    Type
REMARK                         _______ _______ _______ _____ _____    ______ ____
ROOT
ATOM      1  C   LIG    1       25.018 -24.839   5.985  0.00  0.00    -0.007 A 
ATOM      2  C   LIG    1       24.052 -25.641   5.371  0.00  0.00    +0.010 A 
ATOM      3  C   LIG    1       24.025 -27.012   5.631  0.00  0.00    +0.010 A 
ATOM      4  C   LIG    1       24.953 -27.574   6.516  0.00  0.00    -0.007 A 
ATOM      5  C   LIG    1       25.905 -26.764   7.147  0.00  0.00    +0.010 A 
ATOM      6  C   LIG    1       25.942 -25.395   6.875  0.00  0.00    +0.010 A 
ENDROOT
BRANCH   1   8
ATOM      7  N   LIG    1       24.916 -22.504   6.585  0.00  0.00    -0.276 NA
ATOM      8  C   LIG    1       25.050 -23.402   5.667  0.00  0.00    +0.113 C 
BRANCH   7  11
ATOM      9  O   LIG    1       27.359 -20.854   6.516  0.00  0.00    -0.271 OA
ATOM     10  C   LIG    1       26.383 -20.674   5.808  0.00  0.00    +0.263 C 
ATOM     11  C   LIG    1       24.969 -21.125   6.075  0.00  0.00    +0.220 C 
ATOM     12  C   LIG    1       24.404 -21.068   4.665  0.00  0.00    +0.226 C 
ATOM     13  O   LIG    1       25.150 -20.074   3.949  0.00  0.00    -0.277 OA
ATOM     14  N   LIG    1       26.378 -19.950   4.640  0.00  0.00    -0.193 N 
ATOM     15  H   LIG    1       27.223 -19.726   4.134  0.00  0.00    +0.182 HD
ENDBRANCH   7  11
ENDBRANCH   1   8
BRANCH   4  16
ATOM     16  C   LIG    1       24.894 -29.027   6.783  0.00  0.00    +0.113 C 
ATOM     17  N   LIG    1       24.025 -29.791   6.212  0.00  0.00    -0.276 NA
BRANCH  17  18
ATOM     18  C   LIG    1       24.143 -31.226   6.535  0.00  0.00    +0.220 C 
ATOM     19  C   LIG    1       25.289 -31.912   5.840  0.00  0.00    +0.263 C 
ATOM     20  O   LIG    1       25.577 -31.842   4.656  0.00  0.00    -0.271 OA
ATOM     21  N   LIG    1       25.926 -32.713   6.753  0.00  0.00    -0.193 N 
ATOM     22  H   LIG    1       26.818 -33.159   6.586  0.00  0.00    +0.182 HD
ATOM     23  O   LIG    1       25.474 -32.499   8.070  0.00  0.00    -0.277 OA
ATOM     24  C   LIG    1       24.554 -31.401   7.994  0.00  0.00    +0.226 C 
ENDBRANCH  17  18
ENDBRANCH   4  16
TORSDOF 4
ENDMDL
MODEL 9
REMARK VINA RESULT:      -7.6      6.963      9.493
REMARK  Name = *****
REMARK                            x       y       z     vdW  Elec       q    Type
REMARK                         _______ _______ _______ _____ _____    ______ ____
ROOT
ATOM      1  C   LIG    1       25.470 -25.370   6.614  0.00  0.00    -0.007 A 
ATOM      2  C   LIG    1       26.137 -26.391   7.296  0.00  0.00    +0.010 A 
ATOM      3  C   LIG    1       25.818 -27.724   7.028  0.00  0.00    +0.010 A 
ATOM      4  C   LIG    1       24.846 -28.030   6.068  0.00  0.00    -0.007 A 
ATOM      5  C   LIG    1       24.197 -27.005   5.370  0.00  0.00    +0.010 A 
ATOM      6  C   LIG    1       24.504 -25.672   5.649  0.00  0.00    +0.010 A 
ENDROOT
BRANCH   1   8
ATOM      7  N   LIG    1       25.342 -22.990   6.237  0.00  0.00    -0.276 NA
ATOM      8  C   LIG    1       25.798 -23.972   6.940  0.00  0.00    +0.113 C 
BRANCH   7  11
ATOM      9  O   LIG    1       23.654 -21.142   7.798  0.00  0.00    -0.271 OA
ATOM     10  C   LIG    1       24.873 -21.122   7.785  0.00  0.00    +0.263 C 
ATOM     11  C   LIG    1       25.782 -21.669   6.714  0.00  0.00    +0.220 C 
ATOM     12  C   LIG    1       27.072 -21.802   7.506  0.00  0.00    +0.226 C 
ATOM     13  O   LIG    1       27.031 -20.821   8.551  0.00  0.00    -0.277 OA
ATOM     14  N   LIG    1       25.662 -20.520   8.736  0.00  0.00    -0.193 N 
ATOM     15  H   LIG    1       25.317 -20.273   9.653  0.00  0.00    +0.182 HD
ENDBRANCH   7  11
ENDBRANCH   1   8
BRANCH   4  16
ATOM     16  C   LIG    1       24.537 -29.451   5.794  0.00  0.00    +0.113 C 
ATOM     17  N   LIG    1       25.462 -30.313   5.542  0.00  0.00    -0.276 NA
BRANCH  17  18
ATOM     18  C   LIG    1       24.992 -31.700   5.357  0.00  0.00    +0.220 C 
ATOM     19  C   LIG    1       25.919 -32.736   5.935  0.00  0.00    +0.263 C 
ATOM     20  O   LIG    1       27.129 -32.803   5.787  0.00  0.00    -0.271 OA
ATOM     21  N   LIG    1       25.162 -33.664   6.602  0.00  0.00    -0.193 N 
ATOM     22  H   LIG    1       25.547 -34.375   7.209  0.00  0.00    +0.182 HD
ATOM     23  O   LIG    1       23.815 -33.272   6.731  0.00  0.00    -0.277 OA
ATOM     24  C   LIG    1       23.741 -31.944   6.195  0.00  0.00    +0.226 C 
ENDBRANCH  17  18
ENDBRANCH   4  16
TORSDOF 4
ENDMDL
