MODEL 1
REMARK VINA RESULT:      -8.9      0.000      0.000
REMARK  Name = *****
REMARK                            x       y       z     vdW  Elec       q    Type
REMARK                         _______ _______ _______ _____ _____    ______ ____
ROOT
ATOM      1  N   LIG    1       25.594 -22.507   6.129  0.00  0.00    -0.300 N 
ATOM      2  C   LIG    1       25.239 -23.872   6.241  0.00  0.00    +0.037 A 
ATOM      3  C   LIG    1       23.928 -24.348   6.459  0.00  0.00    -0.026 A 
ATOM      4  C   LIG    1       23.687 -25.744   6.460  0.00  0.00    +0.005 A 
ATOM      5  C   LIG    1       24.706 -26.668   6.254  0.00  0.00    +0.000 A 
ATOM      6  C   LIG    1       25.993 -26.213   6.029  0.00  0.00    +0.002 A 
ATOM      7  C   LIG    1       22.699 -23.490   6.671  0.00  0.00    +0.041 C 
ATOM      8  C   LIG    1       22.907 -22.071   7.177  0.00  0.00    +0.041 C 
ATOM      9  C   LIG    1       23.499 -21.201   6.106  0.00  0.00    -0.026 A 
ATOM     10  C   LIG    1       22.755 -20.134   5.575  0.00  0.00    +0.005 A 
ATOM     11  C   LIG    1       23.285 -19.322   4.574  0.00  0.00    +0.000 A 
ATOM     12  C   LIG    1       24.569 -19.566   4.097  0.00  0.00    +0.002 A 
ATOM     13  C   LIG    1       25.314 -20.617   4.628  0.00  0.00    +0.024 A 
ATOM     14  C   LIG    1       26.247 -24.840   6.021  0.00  0.00    +0.024 A 
ATOM     15  C   LIG    1       24.797 -21.449   5.637  0.00  0.00    +0.037 A 
ENDROOT
BRANCH   1  16
ATOM     16  C   LIG    1       26.765 -22.041   6.915  0.00  0.00    +0.112 C 
BRANCH  16  17
ATOM     17  C   LIG    1       26.427 -20.805   7.760  0.00  0.00    +0.035 C 
BRANCH  17  18
ATOM     18  C   LIG    1       27.686 -19.975   8.050  0.00  0.00    +0.085 C 
BRANCH  18  20
ATOM     19  C   LIG    1       29.052 -19.258   6.156  0.00  0.00    +0.104 C 
ATOM     20  N   LIG    1       28.821 -20.294   7.165  0.00  0.00    -0.308 NA
ATOM     21  C   LIG    1       30.039 -20.491   7.957  0.00  0.00    +0.104 C 
ENDBRANCH  18  20
ENDBRANCH  17  18
ENDBRANCH  16  17
ENDBRANCH   1  16
TORSDOF 4
ENDMDL
MODEL 2
REMARK VINA RESULT:      -7.8      1.465      5.028
REMARK  Name = *****
REMARK                            x       y       z     vdW  Elec       q    Type
REMARK                         _______ _______ _______ _____ _____    ______ ____
ROOT
ATOM      1  N   LIG    1       25.266 -21.473   5.822  0.00  0.00    -0.300 N 
ATOM      2  C   LIG    1       26.554 -21.165   6.322  0.00  0.00    +0.037 A 
ATOM      3  C   LIG    1       27.365 -20.106   5.860  0.00  0.00    -0.026 A 
ATOM      4  C   LIG    1       28.598 -19.843   6.505  0.00  0.00    +0.005 A 
ATOM      5  C   LIG    1       29.041 -20.600   7.585  0.00  0.00    +0.000 A 
ATOM      6  C   LIG    1       28.251 -21.634   8.053  0.00  0.00    +0.002 A 
ATOM      7  C   LIG    1       27.029 -19.165   4.723  0.00  0.00    +0.041 C 
ATOM      8  C   LIG    1       26.030 -19.645   3.681  0.00  0.00    +0.041 C 
ATOM      9  C   LIG    1       24.639 -19.679   4.247  0.00  0.00    -0.026 A 
ATOM     10  C   LIG    1       23.654 -18.812   3.746  0.00  0.00    +0.005 A 
ATOM     11  C   LIG    1       22.361 -18.823   4.266  0.00  0.00    +0.000 A 
ATOM     12  C   LIG    1       22.038 -19.706   5.290  0.00  0.00    +0.002 A 
ATOM     13  C   LIG    1       23.010 -20.575   5.784  0.00  0.00    +0.024 A 
ATOM     14  C   LIG    1       27.030 -21.905   7.430  0.00  0.00    +0.024 A 
ATOM     15  C   LIG    1       24.321 -20.578   5.275  0.00  0.00    +0.037 A 
ENDROOT
BRANCH   1  16
ATOM     16  C   LIG    1       24.984 -22.895   5.498  0.00  0.00    +0.112 C 
BRANCH  16  17
ATOM     17  C   LIG    1       24.274 -23.612   6.655  0.00  0.00    +0.035 C 
BRANCH  17  18
ATOM     18  C   LIG    1       24.218 -25.127   6.412  0.00  0.00    +0.085 C 
BRANCH  18  20
ATOM     19  C   LIG    1       25.970 -26.716   7.024  0.00  0.00    +0.104 C 
ATOM     20  N   LIG    1       25.520 -25.716   6.052  0.00  0.00    -0.308 NA
ATOM     21  C   LIG    1       25.448 -26.323   4.719  0.00  0.00    +0.104 C 
ENDBRANCH  18  20
ENDBRANCH  17  18
ENDBRANCH  16  17
ENDBRANCH   1  16
TORSDOF 4
ENDMDL
MODEL 3
REMARK VINA RESULT:      -7.2      1.472      2.020
REMARK  Name = *****
REMARK                            x       y       z     vdW  Elec       q    Type
REMARK                         _______ _______ _______ _____ _____    ______ ____
ROOT
ATOM      1  N   LIG    1       24.955 -21.563   5.022  0.00  0.00    -0.300 N 
ATOM      2  C   LIG    1       24.645 -22.859   5.497  0.00  0.00    +0.037 A 
ATOM      3  C   LIG    1       23.589 -23.161   6.384  0.00  0.00    -0.026 A 
ATOM      4  C   LIG    1       23.323 -24.512   6.713  0.00  0.00    +0.005 A 
ATOM      5  C   LIG    1       24.073 -25.560   6.190  0.00  0.00    +0.000 A 
ATOM      6  C   LIG    1       25.104 -25.278   5.312  0.00  0.00    +0.002 A 
ATOM      7  C   LIG    1       22.655 -22.155   7.023  0.00  0.00    +0.041 C 
ATOM      8  C   LIG    1       23.142 -20.719   7.145  0.00  0.00    +0.041 C 
ATOM      9  C   LIG    1       23.171 -20.046   5.802  0.00  0.00    -0.026 A 
ATOM     10  C   LIG    1       22.306 -18.972   5.534  0.00  0.00    +0.005 A 
ATOM     11  C   LIG    1       22.314 -18.342   4.291  0.00  0.00    +0.000 A 
ATOM     12  C   LIG    1       23.190 -18.778   3.303  0.00  0.00    +0.002 A 
ATOM     13  C   LIG    1       24.056 -19.838   3.568  0.00  0.00    +0.024 A 
ATOM     14  C   LIG    1       25.378 -23.951   4.974  0.00  0.00    +0.024 A 
ATOM     15  C   LIG    1       24.064 -20.488   4.815  0.00  0.00    +0.037 A 
ENDROOT
BRANCH   1  16
ATOM     16  C   LIG    1       26.379 -21.142   5.073  0.00  0.00    +0.112 C 
BRANCH  16  17
ATOM     17  C   LIG    1       26.695 -20.357   6.354  0.00  0.00    +0.035 C 
BRANCH  17  18
ATOM     18  C   LIG    1       27.585 -21.179   7.297  0.00  0.00    +0.085 C 
BRANCH  18  20
ATOM     19  C   LIG    1       26.022 -20.425   9.017  0.00  0.00    +0.104 C 
ATOM     20  N   LIG    1       26.956 -21.473   8.597  0.00  0.00    -0.308 NA
ATOM     21  C   LIG    1       26.257 -22.760   8.539  0.00  0.00    +0.104 C 
ENDBRANCH  18  20
ENDBRANCH  17  18
ENDBRANCH  16  17
ENDBRANCH   1  16
TORSDOF 4
ENDMDL
MODEL 4
REMARK VINA RESULT:      -7.2      1.588      5.369
REMARK  Name = *****
REMARK                            x       y       z     vdW  Elec       q    Type
REMARK                         _______ _______ _______ _____ _____    ______ ____
ROOT
ATOM      1  N   LIG    1       26.143 -21.157   5.602  0.00  0.00    -0.300 N 
ATOM      2  C   LIG    1       27.144 -20.558   6.403  0.00  0.00    +0.037 A 
ATOM      3  C   LIG    1       27.036 -20.331   7.791  0.00  0.00    -0.026 A 
ATOM      4  C   LIG    1       28.146 -19.808   8.499  0.00  0.00    +0.005 A 
ATOM      5  C   LIG    1       29.348 -19.506   7.866  0.00  0.00    +0.000 A 
ATOM      6  C   LIG    1       29.469 -19.732   6.507  0.00  0.00    +0.002 A 
ATOM      7  C   LIG    1       25.821 -20.628   8.645  0.00  0.00    +0.041 C 
ATOM      8  C   LIG    1       24.471 -20.703   7.948  0.00  0.00    +0.041 C 
ATOM      9  C   LIG    1       24.364 -21.950   7.118  0.00  0.00    -0.026 A 
ATOM     10  C   LIG    1       23.435 -22.947   7.461  0.00  0.00    +0.005 A 
ATOM     11  C   LIG    1       23.329 -24.114   6.707  0.00  0.00    +0.000 A 
ATOM     12  C   LIG    1       24.148 -24.295   5.598  0.00  0.00    +0.002 A 
ATOM     13  C   LIG    1       25.065 -23.304   5.248  0.00  0.00    +0.024 A 
ATOM     14  C   LIG    1       28.386 -20.252   5.795  0.00  0.00    +0.024 A 
ATOM     15  C   LIG    1       25.189 -22.120   5.997  0.00  0.00    +0.037 A 
ENDROOT
BRANCH   1  16
ATOM     16  C   LIG    1       25.800 -20.482   4.323  0.00  0.00    +0.112 C 
BRANCH  16  17
ATOM     17  C   LIG    1       24.864 -19.285   4.545  0.00  0.00    +0.035 C 
BRANCH  17  18
ATOM     18  C   LIG    1       23.772 -19.234   3.468  0.00  0.00    +0.085 C 
BRANCH  18  20
ATOM     19  C   LIG    1       22.127 -20.211   4.987  0.00  0.00    +0.104 C 
ATOM     20  N   LIG    1       22.405 -19.152   4.014  0.00  0.00    -0.308 NA
ATOM     21  C   LIG    1       22.189 -17.842   4.636  0.00  0.00    +0.104 C 
ENDBRANCH  18  20
ENDBRANCH  17  18
ENDBRANCH  16  17
ENDBRANCH   1  16
TORSDOF 4
ENDMDL
MODEL 5
REMARK VINA RESULT:      -6.2      1.655      5.750
REMARK  Name = *****
REMARK                            x       y       z     vdW  Elec       q    Type
REMARK                         _______ _______ _______ _____ _____    ______ ____
ROOT
ATOM      1  N   LIG    1       26.278 -20.735   5.830  0.00  0.00    -0.300 N 
ATOM      2  C   LIG    1       27.536 -20.214   6.217  0.00  0.00    +0.037 A 
ATOM      3  C   LIG    1       28.240 -20.591   7.381  0.00  0.00    -0.026 A 
ATOM      4  C   LIG    1       29.535 -20.065   7.611  0.00  0.00    +0.005 A 
ATOM      5  C   LIG    1       30.140 -19.182   6.722  0.00  0.00    +0.000 A 
ATOM      6  C   LIG    1       29.464 -18.812   5.573  0.00  0.00    +0.002 A 
ATOM      7  C   LIG    1       27.751 -21.559   8.437  0.00  0.00    +0.041 C 
ATOM      8  C   LIG    1       26.250 -21.776   8.555  0.00  0.00    +0.041 C 
ATOM      9  C   LIG    1       25.729 -22.568   7.390  0.00  0.00    -0.026 A 
ATOM     10  C   LIG    1       25.204 -23.855   7.592  0.00  0.00    +0.005 A 
ATOM     11  C   LIG    1       24.725 -24.608   6.521  0.00  0.00    +0.000 A 
ATOM     12  C   LIG    1       24.761 -24.078   5.236  0.00  0.00    +0.002 A 
ATOM     13  C   LIG    1       25.272 -22.797   5.032  0.00  0.00    +0.024 A 
ATOM     14  C   LIG    1       28.188 -19.325   5.330  0.00  0.00    +0.024 A 
ATOM     15  C   LIG    1       25.762 -22.022   6.099  0.00  0.00    +0.037 A 
ENDROOT
BRANCH   1  16
ATOM     16  C   LIG    1       25.237 -19.761   5.413  0.00  0.00    +0.112 C 
BRANCH  16  17
ATOM     17  C   LIG    1       25.108 -19.686   3.885  0.00  0.00    +0.035 C 
BRANCH  17  18
ATOM     18  C   LIG    1       23.635 -19.700   3.456  0.00  0.00    +0.085 C 
BRANCH  18  20
ATOM     19  C   LIG    1       21.789 -18.368   4.346  0.00  0.00    +0.104 C 
ATOM     20  N   LIG    1       22.692 -19.500   4.572  0.00  0.00    -0.308 NA
ATOM     21  C   LIG    1       21.907 -20.718   4.793  0.00  0.00    +0.104 C 
ENDBRANCH  18  20
ENDBRANCH  17  18
ENDBRANCH  16  17
ENDBRANCH   1  16
TORSDOF 4
ENDMDL
