MODEL 1
REMARK VINA RESULT:      -0.8      0.000      0.000
REMARK  Name = *****
REMARK                            x       y       z     vdW  Elec       q    Type
REMARK                         _______ _______ _______ _____ _____    ______ ____
ROOT
ATOM      1  C   LIG    1       26.578 -14.305   3.847  0.00  0.00    +0.125 A 
ATOM      2  C   LIG    1       25.246 -13.960   4.078  0.00  0.00    +0.069 A 
ATOM      3 CL   LIG    1       24.716 -12.339   4.352  0.00  0.00    -0.082 Cl
ATOM      4  C   LIG    1       24.262 -14.964   4.111  0.00  0.00    +0.047 A 
ATOM      5  C   LIG    1       24.577 -16.314   3.894  0.00  0.00    +0.057 A 
ATOM      6  N   LIG    1       23.580 -17.274   4.060  0.00  0.00    -0.326 N 
ATOM      7  H   LIG    1       22.658 -16.939   3.790  0.00  0.00    +0.148 HD
ATOM      8  C   LIG    1       23.807 -18.672   3.720  0.00  0.00    +0.163 C 
ATOM      9  N   LIG    1       25.100 -19.074   4.251  0.00  0.00    -0.170 NA
ATOM     10  H   LIG    1       25.273 -20.075   4.264  0.00  0.00    +0.150 HD
ATOM     11  S   LIG    1       26.364 -18.300   3.482  0.00  0.00    +0.062 S 
ATOM     12  O   LIG    1       26.290 -18.620   2.073  0.00  0.00    -0.153 OA
ATOM     13  O   LIG    1       27.555 -18.567   4.257  0.00  0.00    -0.153 OA
ATOM     14  C   LIG    1       25.921 -16.620   3.683  0.00  0.00    +0.128 A 
ATOM     15  C   LIG    1       26.923 -15.644   3.652  0.00  0.00    +0.060 A 
ENDROOT
BRANCH   8  16
ATOM     16  C   LIG    1       22.723 -19.530   4.400  0.00  0.00    +0.033 C 
ATOM     17  C   LIG    1       22.873 -21.068   4.226  0.00  0.00    +0.018 C 
ATOM     18  C   LIG    1       21.943 -21.564   5.342  0.00  0.00    +0.015 C 
ATOM     19  C   LIG    1       22.725 -20.850   6.445  0.00  0.00    +0.012 C 
ATOM     20  C   LIG    1       24.105 -21.383   6.139  0.00  0.00    -0.027 C 
ATOM     21  C   LIG    1       24.192 -21.524   4.808  0.00  0.00    -0.027 C 
ATOM     22  C   LIG    1       22.681 -19.386   5.960  0.00  0.00    +0.015 C 
ENDBRANCH   8  16
BRANCH   1  23
ATOM     23  S   LIG    1       27.822 -13.057   3.820  0.00  0.00    +0.057 S 
ATOM     24  O   LIG    1       27.783 -12.339   5.071  0.00  0.00    -0.153 OA
ATOM     25  O   LIG    1       29.027 -13.612   3.253  0.00  0.00    -0.153 OA
BRANCH  23  26
ATOM     26  N   LIG    1       27.286 -11.944   2.674  0.00  0.00    -0.203 NA
ATOM     27  H   LIG    1       26.888 -12.446   1.877  0.00  0.00    +0.144 HD
ATOM     28  H   LIG    1       26.626 -11.299   3.113  0.00  0.00    +0.144 HD
ENDBRANCH  23  26
ENDBRANCH   1  23
TORSDOF 3
ENDMDL
MODEL 2
REMARK VINA RESULT:      -0.1      1.690      2.357
REMARK  Name = *****
REMARK                            x       y       z     vdW  Elec       q    Type
REMARK                         _______ _______ _______ _____ _____    ______ ____
ROOT
ATOM      1  C   LIG    1       27.354 -14.841   3.793  0.00  0.00    +0.125 A 
ATOM      2  C   LIG    1       26.105 -15.077   3.217  0.00  0.00    +0.069 A 
ATOM      3 CL   LIG    1       25.155 -13.846   2.466  0.00  0.00    -0.082 Cl
ATOM      4  C   LIG    1       25.557 -16.372   3.248  0.00  0.00    +0.047 A 
ATOM      5  C   LIG    1       26.243 -17.451   3.825  0.00  0.00    +0.057 A 
ATOM      6  N   LIG    1       25.597 -18.681   3.934  0.00  0.00    -0.326 N 
ATOM      7  H   LIG    1       24.963 -18.865   3.160  0.00  0.00    +0.148 HD
ATOM      8  C   LIG    1       26.298 -19.869   4.398  0.00  0.00    +0.163 C 
ATOM      9  N   LIG    1       27.083 -19.516   5.571  0.00  0.00    -0.170 NA
ATOM     10  H   LIG    1       27.444 -20.301   6.106  0.00  0.00    +0.150 HD
ATOM     11  S   LIG    1       28.335 -18.474   5.200  0.00  0.00    +0.062 S 
ATOM     12  O   LIG    1       29.178 -19.123   4.220  0.00  0.00    -0.153 OA
ATOM     13  O   LIG    1       28.865 -17.991   6.454  0.00  0.00    -0.153 OA
ATOM     14  C   LIG    1       27.481 -17.171   4.404  0.00  0.00    +0.128 A 
ATOM     15  C   LIG    1       28.048 -15.892   4.396  0.00  0.00    +0.060 A 
ENDROOT
BRANCH   8  16
ATOM     16  C   LIG    1       25.260 -20.926   4.819  0.00  0.00    +0.033 C 
ATOM     17  C   LIG    1       24.344 -20.536   6.013  0.00  0.00    +0.018 C 
ATOM     18  C   LIG    1       23.222 -21.571   5.852  0.00  0.00    +0.015 C 
ATOM     19  C   LIG    1       22.862 -21.106   4.441  0.00  0.00    +0.012 C 
ATOM     20  C   LIG    1       22.675 -19.632   4.719  0.00  0.00    -0.027 C 
ATOM     21  C   LIG    1       23.558 -19.290   5.670  0.00  0.00    -0.027 C 
ATOM     22  C   LIG    1       24.209 -21.266   3.706  0.00  0.00    +0.015 C 
ENDBRANCH   8  16
BRANCH   1  23
ATOM     23  S   LIG    1       28.043 -13.219   3.774  0.00  0.00    +0.057 S 
ATOM     24  O   LIG    1       29.475 -13.327   3.638  0.00  0.00    -0.153 OA
ATOM     25  O   LIG    1       27.221 -12.373   2.943  0.00  0.00    -0.153 OA
BRANCH  23  26
ATOM     26  N   LIG    1       27.807 -12.638   5.338  0.00  0.00    -0.203 NA
ATOM     27  H   LIG    1       27.751 -11.617   5.314  0.00  0.00    +0.144 HD
ATOM     28  H   LIG    1       26.976 -13.077   5.739  0.00  0.00    +0.144 HD
ENDBRANCH  23  26
ENDBRANCH   1  23
TORSDOF 3
ENDMDL
MODEL 3
REMARK VINA RESULT:       1.2      3.780      7.317
REMARK  Name = *****
REMARK                            x       y       z     vdW  Elec       q    Type
REMARK                         _______ _______ _______ _____ _____    ______ ____
ROOT
ATOM      1  C   LIG    1       23.634 -18.901   4.298  0.00  0.00    +0.125 A 
ATOM      2  C   LIG    1       24.903 -19.049   3.734  0.00  0.00    +0.069 A 
ATOM      3 CL   LIG    1       25.675 -20.578   3.516  0.00  0.00    -0.082 Cl
ATOM      4  C   LIG    1       25.622 -17.911   3.328  0.00  0.00    +0.047 A 
ATOM      5  C   LIG    1       25.089 -16.618   3.451  0.00  0.00    +0.057 A 
ATOM      6  N   LIG    1       25.897 -15.524   3.144  0.00  0.00    -0.326 N 
ATOM      7  H   LIG    1       26.548 -15.713   2.386  0.00  0.00    +0.148 HD
ATOM      8  C   LIG    1       25.364 -14.169   3.121  0.00  0.00    +0.163 C 
ATOM      9  N   LIG    1       24.541 -13.975   4.305  0.00  0.00    -0.170 NA
ATOM     10  H   LIG    1       24.292 -13.011   4.509  0.00  0.00    +0.150 HD
ATOM     11  S   LIG    1       23.159 -14.912   4.271  0.00  0.00    +0.062 S 
ATOM     12  O   LIG    1       22.410 -14.556   3.087  0.00  0.00    -0.153 OA
ATOM     13  O   LIG    1       22.571 -14.841   5.590  0.00  0.00    -0.153 OA
ATOM     14  C   LIG    1       23.827 -16.512   4.033  0.00  0.00    +0.128 A 
ATOM     15  C   LIG    1       23.091 -17.624   4.454  0.00  0.00    +0.060 A 
ENDROOT
BRANCH   8  16
ATOM     16  C   LIG    1       26.537 -13.174   3.186  0.00  0.00    +0.033 C 
ATOM     17  C   LIG    1       26.871 -12.613   4.598  0.00  0.00    +0.018 C 
ATOM     18  C   LIG    1       28.279 -12.055   4.349  0.00  0.00    +0.015 C 
ATOM     19  C   LIG    1       28.846 -13.410   3.921  0.00  0.00    +0.012 C 
ATOM     20  C   LIG    1       28.416 -14.232   5.114  0.00  0.00    -0.027 C 
ATOM     21  C   LIG    1       27.235 -13.749   5.527  0.00  0.00    -0.027 C 
ATOM     22  C   LIG    1       27.915 -13.782   2.749  0.00  0.00    +0.015 C 
ENDBRANCH   8  16
BRANCH   1  23
ATOM     23  S   LIG    1       22.732 -20.320   4.826  0.00  0.00    +0.057 S 
ATOM     24  O   LIG    1       23.163 -20.672   6.157  0.00  0.00    -0.153 OA
ATOM     25  O   LIG    1       21.348 -20.158   4.449  0.00  0.00    -0.153 OA
BRANCH  23  26
ATOM     26  N   LIG    1       23.295 -21.572   3.850  0.00  0.00    -0.203 NA
ATOM     27  H   LIG    1       24.317 -21.590   3.880  0.00  0.00    +0.144 HD
ATOM     28  H   LIG    1       22.868 -22.451   4.148  0.00  0.00    +0.144 HD
ENDBRANCH  23  26
ENDBRANCH   1  23
TORSDOF 3
ENDMDL
