MODEL 1
REMARK VINA RESULT:      -4.9      0.000      0.000
REMARK  Name = *****
REMARK                            x       y       z     vdW  Elec       q    Type
REMARK                         _______ _______ _______ _____ _____    ______ ____
ROOT
ATOM      1  N   LIG    1       25.293 -19.006   3.552  0.00  0.00    -0.310 N 
ATOM      2  H   LIG    1       26.268 -18.778   3.707  0.00  0.00    +0.149 HD
ATOM      3  C   LIG    1       24.366 -17.995   3.674  0.00  0.00    +0.248 C 
ATOM      4  O   LIG    1       23.151 -18.206   3.662  0.00  0.00    -0.270 OA
ENDROOT
BRANCH   3   5
ATOM      5  C   LIG    1       24.870 -16.583   3.745  0.00  0.00    +0.080 A 
ATOM      6  C   LIG    1       24.069 -15.468   4.082  0.00  0.00    +0.134 A 
ATOM      7  C   LIG    1       24.646 -14.187   4.162  0.00  0.00    +0.078 A 
ATOM      8  C   LIG    1       26.027 -14.042   3.947  0.00  0.00    +0.116 A 
ATOM      9  C   LIG    1       26.785 -15.148   3.609  0.00  0.00    +0.087 A 
ATOM     10  N   LIG    1       28.046 -14.636   3.481  0.00  0.00    -0.257 N 
ATOM     11  H   LIG    1       28.909 -15.107   3.243  0.00  0.00    +0.191 HD
ATOM     12  N   LIG    1       28.074 -13.318   3.737  0.00  0.00    -0.067 NA
ATOM     13  N   LIG    1       26.833 -12.938   4.015  0.00  0.00    -0.130 NA
ATOM     14  C   LIG    1       26.250 -16.434   3.470  0.00  0.00    +0.046 A 
BRANCH   6  15
ATOM     15  O   LIG    1       22.740 -15.706   4.340  0.00  0.00    -0.494 OA
ATOM     16  C   LIG    1       22.265 -15.580   5.677  0.00  0.00    +0.277 C 
ENDBRANCH   6  15
ENDBRANCH   3   5
BRANCH   1  17
ATOM     17  C   LIG    1       24.931 -20.407   3.425  0.00  0.00    +0.123 C 
BRANCH  17  19
ATOM     18  N   LIG    1       25.217 -20.482   5.970  0.00  0.00    -0.294 NA
ATOM     19  C   LIG    1       24.630 -21.125   4.759  0.00  0.00    +0.074 C 
ATOM     20  C   LIG    1       23.137 -21.238   5.054  0.00  0.00    +0.021 C 
ATOM     21  C   LIG    1       23.116 -21.515   6.537  0.00  0.00    +0.017 C 
ATOM     22  C   LIG    1       24.235 -20.637   7.062  0.00  0.00    +0.085 C 
BRANCH  18  23
ATOM     23  C   LIG    1       26.525 -21.071   6.307  0.00  0.00    +0.111 C 
BRANCH  23  25
ATOM     24  C   LIG    1       28.941 -20.359   6.406  0.00  0.00    +0.005 C 
ATOM     25  C   LIG    1       27.655 -20.090   6.140  0.00  0.00    -0.019 C 
ENDBRANCH  23  25
ENDBRANCH  18  23
ENDBRANCH  17  19
ENDBRANCH   1  17
TORSDOF 6
ENDMDL
MODEL 2
REMARK VINA RESULT:      -4.5      2.332      7.125
REMARK  Name = *****
REMARK                            x       y       z     vdW  Elec       q    Type
REMARK                         _______ _______ _______ _____ _____    ______ ____
ROOT
ATOM      1  N   LIG    1       25.708 -16.460   3.074  0.00  0.00    -0.310 N 
ATOM      2  H   LIG    1       24.706 -16.442   3.227  0.00  0.00    +0.149 HD
ATOM      3  C   LIG    1       26.427 -17.501   3.618  0.00  0.00    +0.248 C 
ATOM      4  O   LIG    1       27.660 -17.523   3.622  0.00  0.00    -0.270 OA
ENDROOT
BRANCH   3   5
ATOM      5  C   LIG    1       25.664 -18.679   4.152  0.00  0.00    +0.080 A 
ATOM      6  C   LIG    1       26.241 -19.721   4.914  0.00  0.00    +0.134 A 
ATOM      7  C   LIG    1       25.432 -20.763   5.404  0.00  0.00    +0.078 A 
ATOM      8  C   LIG    1       24.049 -20.728   5.164  0.00  0.00    +0.116 A 
ATOM      9  C   LIG    1       23.513 -19.702   4.406  0.00  0.00    +0.087 A 
ATOM     10  N   LIG    1       22.177 -19.994   4.386  0.00  0.00    -0.257 N 
ATOM     11  H   LIG    1       21.419 -19.495   3.940  0.00  0.00    +0.191 HD
ATOM     12  N   LIG    1       21.901 -21.104   5.089  0.00  0.00    -0.067 NA
ATOM     13  N   LIG    1       23.048 -21.572   5.566  0.00  0.00    -0.130 NA
ATOM     14  C   LIG    1       24.280 -18.670   3.857  0.00  0.00    +0.046 A 
BRANCH   6  15
ATOM     15  O   LIG    1       27.592 -19.645   5.158  0.00  0.00    -0.494 OA
ATOM     16  C   LIG    1       28.122 -20.308   6.302  0.00  0.00    +0.277 C 
ENDBRANCH   6  15
ENDBRANCH   3   5
BRANCH   1  17
ATOM     17  C   LIG    1       26.329 -15.288   2.481  0.00  0.00    +0.123 C 
BRANCH  17  19
ATOM     18  N   LIG    1       25.536 -14.112   4.615  0.00  0.00    -0.294 NA
ATOM     19  C   LIG    1       26.413 -14.057   3.410  0.00  0.00    +0.074 C 
ATOM     20  C   LIG    1       27.818 -13.813   3.954  0.00  0.00    +0.021 C 
ATOM     21  C   LIG    1       27.560 -12.916   5.139  0.00  0.00    +0.017 C 
ATOM     22  C   LIG    1       26.283 -13.487   5.725  0.00  0.00    +0.085 C 
BRANCH  18  23
ATOM     23  C   LIG    1       24.244 -13.447   4.366  0.00  0.00    +0.111 C 
BRANCH  23  25
ATOM     24  C   LIG    1       23.879 -11.447   2.877  0.00  0.00    +0.005 C 
ATOM     25  C   LIG    1       24.213 -12.735   3.041  0.00  0.00    -0.019 C 
ENDBRANCH  23  25
ENDBRANCH  18  23
ENDBRANCH  17  19
ENDBRANCH   1  17
TORSDOF 6
ENDMDL
MODEL 3
REMARK VINA RESULT:      -4.0      1.384      2.350
REMARK  Name = *****
REMARK                            x       y       z     vdW  Elec       q    Type
REMARK                         _______ _______ _______ _____ _____    ______ ____
ROOT
ATOM      1  N   LIG    1       25.509 -19.169   3.647  0.00  0.00    -0.310 N 
ATOM      2  H   LIG    1       26.467 -18.920   3.864  0.00  0.00    +0.149 HD
ATOM      3  C   LIG    1       24.560 -18.171   3.674  0.00  0.00    +0.248 C 
ATOM      4  O   LIG    1       23.353 -18.402   3.584  0.00  0.00    -0.270 OA
ENDROOT
BRANCH   3   5
ATOM      5  C   LIG    1       25.037 -16.749   3.740  0.00  0.00    +0.080 A 
ATOM      6  C   LIG    1       26.397 -16.364   3.701  0.00  0.00    +0.134 A 
ATOM      7  C   LIG    1       26.741 -14.999   3.728  0.00  0.00    +0.078 A 
ATOM      8  C   LIG    1       25.721 -14.034   3.749  0.00  0.00    +0.116 A 
ATOM      9  C   LIG    1       24.399 -14.440   3.797  0.00  0.00    +0.087 A 
ATOM     10  N   LIG    1       23.711 -13.258   3.806  0.00  0.00    -0.257 N 
ATOM     11  H   LIG    1       22.712 -13.099   3.836  0.00  0.00    +0.191 HD
ATOM     12  N   LIG    1       24.537 -12.202   3.751  0.00  0.00    -0.067 NA
ATOM     13  N   LIG    1       25.780 -12.667   3.725  0.00  0.00    -0.130 NA
ATOM     14  C   LIG    1       24.007 -15.782   3.821  0.00  0.00    +0.046 A 
BRANCH   6  15
ATOM     15  O   LIG    1       27.331 -17.369   3.616  0.00  0.00    -0.494 OA
ATOM     16  C   LIG    1       28.372 -17.423   4.586  0.00  0.00    +0.277 C 
ENDBRANCH   6  15
ENDBRANCH   3   5
BRANCH   1  17
ATOM     17  C   LIG    1       25.178 -20.578   3.535  0.00  0.00    +0.123 C 
BRANCH  17  19
ATOM     18  N   LIG    1       25.141 -20.601   6.097  0.00  0.00    -0.294 NA
ATOM     19  C   LIG    1       24.654 -21.229   4.835  0.00  0.00    +0.074 C 
ATOM     20  C   LIG    1       23.132 -21.207   4.943  0.00  0.00    +0.021 C 
ATOM     21  C   LIG    1       22.904 -21.436   6.416  0.00  0.00    +0.017 C 
ATOM     22  C   LIG    1       24.022 -20.640   7.061  0.00  0.00    +0.085 C 
BRANCH  18  23
ATOM     23  C   LIG    1       26.341 -21.287   6.607  0.00  0.00    +0.111 C 
BRANCH  23  25
ATOM     24  C   LIG    1       28.812 -20.823   6.788  0.00  0.00    +0.005 C 
ATOM     25  C   LIG    1       27.555 -20.396   6.602  0.00  0.00    -0.019 C 
ENDBRANCH  23  25
ENDBRANCH  18  23
ENDBRANCH  17  19
ENDBRANCH   1  17
TORSDOF 6
ENDMDL
MODEL 4
REMARK VINA RESULT:      -2.9      1.552      2.268
REMARK  Name = *****
REMARK                            x       y       z     vdW  Elec       q    Type
REMARK                         _______ _______ _______ _____ _____    ______ ____
ROOT
ATOM      1  N   LIG    1       23.935 -16.880   3.899  0.00  0.00    -0.310 N 
ATOM      2  H   LIG    1       24.843 -17.239   3.627  0.00  0.00    +0.149 HD
ATOM      3  C   LIG    1       23.836 -15.541   4.208  0.00  0.00    +0.248 C 
ATOM      4  O   LIG    1       22.819 -15.049   4.701  0.00  0.00    -0.270 OA
ENDROOT
BRANCH   3   5
ATOM      5  C   LIG    1       24.992 -14.651   3.854  0.00  0.00    +0.080 A 
ATOM      6  C   LIG    1       24.858 -13.328   3.373  0.00  0.00    +0.134 A 
ATOM      7  C   LIG    1       26.007 -12.558   3.107  0.00  0.00    +0.078 A 
ATOM      8  C   LIG    1       27.274 -13.105   3.366  0.00  0.00    +0.116 A 
ATOM      9  C   LIG    1       27.375 -14.406   3.827  0.00  0.00    +0.087 A 
ATOM     10  N   LIG    1       28.724 -14.585   3.960  0.00  0.00    -0.257 N 
ATOM     11  H   LIG    1       29.235 -15.401   4.274  0.00  0.00    +0.191 HD
ATOM     12  N   LIG    1       29.408 -13.479   3.626  0.00  0.00    -0.067 NA
ATOM     13  N   LIG    1       28.525 -12.562   3.248  0.00  0.00    -0.130 NA
ATOM     14  C   LIG    1       26.268 -15.227   4.060  0.00  0.00    +0.046 A 
BRANCH   6  15
ATOM     15  O   LIG    1       23.582 -12.847   3.207  0.00  0.00    -0.494 OA
ATOM     16  C   LIG    1       23.351 -11.448   3.341  0.00  0.00    +0.277 C 
ENDBRANCH   6  15
ENDBRANCH   3   5
BRANCH   1  17
ATOM     17  C   LIG    1       22.868 -17.834   4.146  0.00  0.00    +0.123 C 
BRANCH  17  19
ATOM     18  N   LIG    1       24.484 -19.518   5.203  0.00  0.00    -0.294 NA
ATOM     19  C   LIG    1       23.328 -19.302   4.286  0.00  0.00    +0.074 C 
ATOM     20  C   LIG    1       22.230 -20.225   4.808  0.00  0.00    +0.021 C 
ATOM     21  C   LIG    1       23.010 -21.422   5.293  0.00  0.00    +0.017 C 
ATOM     22  C   LIG    1       24.246 -20.795   5.907  0.00  0.00    +0.085 C 
BRANCH  18  23
ATOM     23  C   LIG    1       25.759 -19.516   4.464  0.00  0.00    +0.111 C 
BRANCH  23  25
ATOM     24  C   LIG    1       28.007 -19.621   5.599  0.00  0.00    +0.005 C 
ATOM     25  C   LIG    1       26.861 -20.206   5.223  0.00  0.00    -0.019 C 
ENDBRANCH  23  25
ENDBRANCH  18  23
ENDBRANCH  17  19
ENDBRANCH   1  17
TORSDOF 6
ENDMDL
MODEL 5
REMARK VINA RESULT:      -2.7      2.315      6.989
REMARK  Name = *****
REMARK                            x       y       z     vdW  Elec       q    Type
REMARK                         _______ _______ _______ _____ _____    ______ ____
ROOT
ATOM      1  N   LIG    1       23.890 -14.962   4.977  0.00  0.00    -0.310 N 
ATOM      2  H   LIG    1       24.663 -15.384   5.479  0.00  0.00    +0.149 HD
ATOM      3  C   LIG    1       23.206 -15.742   4.070  0.00  0.00    +0.248 C 
ATOM      4  O   LIG    1       22.363 -15.277   3.301  0.00  0.00    -0.270 OA
ENDROOT
BRANCH   3   5
ATOM      5  C   LIG    1       23.456 -17.222   4.086  0.00  0.00    +0.080 A 
ATOM      6  C   LIG    1       24.644 -17.833   3.623  0.00  0.00    +0.134 A 
ATOM      7  C   LIG    1       24.799 -19.229   3.718  0.00  0.00    +0.078 A 
ATOM      8  C   LIG    1       23.783 -19.993   4.315  0.00  0.00    +0.116 A 
ATOM      9  C   LIG    1       22.627 -19.370   4.750  0.00  0.00    +0.087 A 
ATOM     10  N   LIG    1       21.889 -20.402   5.260  0.00  0.00    -0.257 N 
ATOM     11  H   LIG    1       20.971 -20.385   5.685  0.00  0.00    +0.191 HD
ATOM     12  N   LIG    1       22.541 -21.572   5.166  0.00  0.00    -0.067 NA
ATOM     13  N   LIG    1       23.706 -21.334   4.576  0.00  0.00    -0.130 NA
ATOM     14  C   LIG    1       22.405 -17.994   4.635  0.00  0.00    +0.046 A 
BRANCH   6  15
ATOM     15  O   LIG    1       25.616 -17.007   3.111  0.00  0.00    -0.494 OA
ATOM     16  C   LIG    1       26.921 -17.045   3.679  0.00  0.00    +0.277 C 
ENDBRANCH   6  15
ENDBRANCH   3   5
BRANCH   1  17
ATOM     17  C   LIG    1       23.701 -13.527   5.095  0.00  0.00    +0.123 C 
BRANCH  17  19
ATOM     18  N   LIG    1       25.756 -13.413   3.569  0.00  0.00    -0.294 NA
ATOM     19  C   LIG    1       24.622 -12.674   4.196  0.00  0.00    +0.074 C 
ATOM     20  C   LIG    1       23.883 -12.021   3.031  0.00  0.00    +0.021 C 
ATOM     21  C   LIG    1       25.004 -11.670   2.085  0.00  0.00    +0.017 C 
ATOM     22  C   LIG    1       25.939 -12.857   2.213  0.00  0.00    +0.085 C 
BRANCH  18  23
ATOM     23  C   LIG    1       26.978 -13.309   4.385  0.00  0.00    +0.111 C 
BRANCH  23  25
ATOM     24  C   LIG    1       29.325 -12.535   3.893  0.00  0.00    +0.005 C 
ATOM     25  C   LIG    1       28.222 -13.212   3.544  0.00  0.00    -0.019 C 
ENDBRANCH  23  25
ENDBRANCH  18  23
ENDBRANCH  17  19
ENDBRANCH   1  17
TORSDOF 6
ENDMDL
MODEL 6
REMARK VINA RESULT:      -2.7      2.508      7.126
REMARK  Name = *****
REMARK                            x       y       z     vdW  Elec       q    Type
REMARK                         _______ _______ _______ _____ _____    ______ ____
ROOT
ATOM      1  N   LIG    1       25.816 -16.994   3.463  0.00  0.00    -0.310 N 
ATOM      2  H   LIG    1       24.825 -16.786   3.486  0.00  0.00    +0.149 HD
ATOM      3  C   LIG    1       26.244 -18.171   4.036  0.00  0.00    +0.248 C 
ATOM      4  O   LIG    1       27.437 -18.433   4.199  0.00  0.00    -0.270 OA
ENDROOT
BRANCH   3   5
ATOM      5  C   LIG    1       25.206 -19.193   4.400  0.00  0.00    +0.080 A 
ATOM      6  C   LIG    1       25.450 -20.317   5.223  0.00  0.00    +0.134 A 
ATOM      7  C   LIG    1       24.398 -21.197   5.538  0.00  0.00    +0.078 A 
ATOM      8  C   LIG    1       23.105 -20.920   5.065  0.00  0.00    +0.116 A 
ATOM      9  C   LIG    1       22.897 -19.819   4.253  0.00  0.00    +0.087 A 
ATOM     10  N   LIG    1       21.555 -19.871   3.995  0.00  0.00    -0.257 N 
ATOM     11  H   LIG    1       20.985 -19.247   3.438  0.00  0.00    +0.191 HD
ATOM     12  N   LIG    1       20.971 -20.911   4.611  0.00  0.00    -0.067 NA
ATOM     13  N   LIG    1       21.918 -21.571   5.266  0.00  0.00    -0.130 NA
ATOM     14  C   LIG    1       23.917 -18.942   3.871  0.00  0.00    +0.046 A 
BRANCH   6  15
ATOM     15  O   LIG    1       26.729 -20.480   5.697  0.00  0.00    -0.494 OA
ATOM     16  C   LIG    1       26.919 -21.115   6.958  0.00  0.00    +0.277 C 
ENDBRANCH   6  15
ENDBRANCH   3   5
BRANCH   1  17
ATOM     17  C   LIG    1       26.724 -15.948   3.023  0.00  0.00    +0.123 C 
BRANCH  17  19
ATOM     18  N   LIG    1       26.856 -13.421   2.619  0.00  0.00    -0.294 NA
ATOM     19  C   LIG    1       26.348 -14.524   3.486  0.00  0.00    +0.074 C 
ATOM     20  C   LIG    1       24.841 -14.300   3.570  0.00  0.00    +0.021 C 
ATOM     21  C   LIG    1       24.731 -12.795   3.567  0.00  0.00    +0.017 C 
ATOM     22  C   LIG    1       25.811 -12.379   2.586  0.00  0.00    +0.085 C 
BRANCH  18  23
ATOM     23  C   LIG    1       28.145 -12.905   3.111  0.00  0.00    +0.111 C 
BRANCH  23  25
ATOM     24  C   LIG    1       29.075 -11.960   5.254  0.00  0.00    +0.005 C 
ATOM     25  C   LIG    1       28.128 -12.639   4.592  0.00  0.00    -0.019 C 
ENDBRANCH  23  25
ENDBRANCH  18  23
ENDBRANCH  17  19
ENDBRANCH   1  17
TORSDOF 6
ENDMDL
MODEL 7
REMARK VINA RESULT:      -2.6      1.760      2.974
REMARK  Name = *****
REMARK                            x       y       z     vdW  Elec       q    Type
REMARK                         _______ _______ _______ _____ _____    ______ ____
ROOT
ATOM      1  N   LIG    1       23.676 -16.812   4.388  0.00  0.00    -0.310 N 
ATOM      2  H   LIG    1       24.475 -17.404   4.580  0.00  0.00    +0.149 HD
ATOM      3  C   LIG    1       23.888 -15.455   4.281  0.00  0.00    +0.248 C 
ATOM      4  O   LIG    1       22.963 -14.643   4.210  0.00  0.00    -0.270 OA
ENDROOT
BRANCH   3   5
ATOM      5  C   LIG    1       25.305 -14.971   4.172  0.00  0.00    +0.080 A 
ATOM      6  C   LIG    1       26.312 -15.621   3.420  0.00  0.00    +0.134 A 
ATOM      7  C   LIG    1       27.603 -15.065   3.348  0.00  0.00    +0.078 A 
ATOM      8  C   LIG    1       27.862 -13.845   3.992  0.00  0.00    +0.116 A 
ATOM      9  C   LIG    1       26.862 -13.237   4.730  0.00  0.00    +0.087 A 
ATOM     10  N   LIG    1       27.465 -12.102   5.197  0.00  0.00    -0.257 N 
ATOM     11  H   LIG    1       27.085 -11.368   5.781  0.00  0.00    +0.191 HD
ATOM     12  N   LIG    1       28.734 -12.002   4.771  0.00  0.00    -0.067 NA
ATOM     13  N   LIG    1       28.994 -13.076   4.035  0.00  0.00    -0.130 NA
ATOM     14  C   LIG    1       25.577 -13.772   4.872  0.00  0.00    +0.046 A 
BRANCH   6  15
ATOM     15  O   LIG    1       25.958 -16.777   2.767  0.00  0.00    -0.494 OA
ATOM     16  C   LIG    1       26.373 -18.027   3.309  0.00  0.00    +0.277 C 
ENDBRANCH   6  15
ENDBRANCH   3   5
BRANCH   1  17
ATOM     17  C   LIG    1       22.353 -17.407   4.451  0.00  0.00    +0.123 C 
BRANCH  17  19
ATOM     18  N   LIG    1       23.040 -19.758   5.204  0.00  0.00    -0.294 NA
ATOM     19  C   LIG    1       22.313 -18.930   4.199  0.00  0.00    +0.074 C 
ATOM     20  C   LIG    1       20.895 -19.495   4.173  0.00  0.00    +0.021 C 
ATOM     21  C   LIG    1       21.124 -20.970   4.390  0.00  0.00    +0.017 C 
ATOM     22  C   LIG    1       22.254 -20.992   5.401  0.00  0.00    +0.085 C 
BRANCH  18  23
ATOM     23  C   LIG    1       24.420 -20.037   4.769  0.00  0.00    +0.111 C 
BRANCH  23  25
ATOM     24  C   LIG    1       26.401 -20.525   6.249  0.00  0.00    +0.005 C 
ATOM     25  C   LIG    1       25.187 -20.847   5.780  0.00  0.00    -0.019 C 
ENDBRANCH  23  25
ENDBRANCH  18  23
ENDBRANCH  17  19
ENDBRANCH   1  17
TORSDOF 6
ENDMDL
MODEL 8
REMARK VINA RESULT:      -2.3      2.289      7.116
REMARK  Name = *****
REMARK                            x       y       z     vdW  Elec       q    Type
REMARK                         _______ _______ _______ _____ _____    ______ ____
ROOT
ATOM      1  N   LIG    1       24.544 -15.170   3.065  0.00  0.00    -0.310 N 
ATOM      2  H   LIG    1       25.010 -15.707   2.343  0.00  0.00    +0.149 HD
ATOM      3  C   LIG    1       23.755 -15.848   3.969  0.00  0.00    +0.248 C 
ATOM      4  O   LIG    1       23.027 -15.269   4.777  0.00  0.00    -0.270 OA
ENDROOT
BRANCH   3   5
ATOM      5  C   LIG    1       23.858 -17.345   4.005  0.00  0.00    +0.080 A 
ATOM      6  C   LIG    1       24.994 -18.075   3.586  0.00  0.00    +0.134 A 
ATOM      7  C   LIG    1       25.007 -19.478   3.698  0.00  0.00    +0.078 A 
ATOM      8  C   LIG    1       23.903 -20.132   4.268  0.00  0.00    +0.116 A 
ATOM      9  C   LIG    1       22.801 -19.393   4.661  0.00  0.00    +0.087 A 
ATOM     10  N   LIG    1       21.950 -20.342   5.156  0.00  0.00    -0.257 N 
ATOM     11  H   LIG    1       21.025 -20.230   5.550  0.00  0.00    +0.191 HD
ATOM     12  N   LIG    1       22.486 -21.571   5.092  0.00  0.00    -0.067 NA
ATOM     13  N   LIG    1       23.686 -21.456   4.538  0.00  0.00    -0.130 NA
ATOM     14  C   LIG    1       22.719 -18.004   4.526  0.00  0.00    +0.046 A 
BRANCH   6  15
ATOM     15  O   LIG    1       26.057 -17.354   3.098  0.00  0.00    -0.494 OA
ATOM     16  C   LIG    1       27.252 -17.284   3.870  0.00  0.00    +0.277 C 
ENDBRANCH   6  15
ENDBRANCH   3   5
BRANCH   1  17
ATOM     17  C   LIG    1       24.573 -13.721   2.966  0.00  0.00    +0.123 C 
BRANCH  17  19
ATOM     18  N   LIG    1       26.037 -13.177   4.997  0.00  0.00    -0.294 NA
ATOM     19  C   LIG    1       25.851 -13.056   3.522  0.00  0.00    +0.074 C 
ATOM     20  C   LIG    1       27.132 -13.621   2.915  0.00  0.00    +0.021 C 
ATOM     21  C   LIG    1       28.184 -13.190   3.906  0.00  0.00    +0.017 C 
ATOM     22  C   LIG    1       27.482 -13.357   5.240  0.00  0.00    +0.085 C 
BRANCH  18  23
ATOM     23  C   LIG    1       25.494 -12.002   5.701  0.00  0.00    +0.111 C 
BRANCH  23  25
ATOM     24  C   LIG    1       23.035 -11.447   5.681  0.00  0.00    +0.005 C 
ATOM     25  C   LIG    1       24.228 -11.490   5.069  0.00  0.00    -0.019 C 
ENDBRANCH  23  25
ENDBRANCH  18  23
ENDBRANCH  17  19
ENDBRANCH   1  17
TORSDOF 6
ENDMDL
MODEL 9
REMARK VINA RESULT:      -2.1      2.428      4.214
REMARK  Name = *****
REMARK                            x       y       z     vdW  Elec       q    Type
REMARK                         _______ _______ _______ _____ _____    ______ ____
ROOT
ATOM      1  N   LIG    1       28.036 -16.754   4.433  0.00  0.00    -0.310 N 
ATOM      2  H   LIG    1       28.324 -16.058   5.111  0.00  0.00    +0.149 HD
ATOM      3  C   LIG    1       26.930 -16.482   3.658  0.00  0.00    +0.248 C 
ATOM      4  O   LIG    1       26.412 -17.327   2.924  0.00  0.00    -0.270 OA
ENDROOT
BRANCH   3   5
ATOM      5  C   LIG    1       26.397 -15.079   3.662  0.00  0.00    +0.080 A 
ATOM      6  C   LIG    1       27.206 -13.921   3.718  0.00  0.00    +0.134 A 
ATOM      7  C   LIG    1       26.611 -12.646   3.676  0.00  0.00    +0.078 A 
ATOM      8  C   LIG    1       25.217 -12.543   3.535  0.00  0.00    +0.116 A 
ATOM      9  C   LIG    1       24.449 -13.693   3.494  0.00  0.00    +0.087 A 
ATOM     10  N   LIG    1       23.176 -13.214   3.355  0.00  0.00    -0.257 N 
ATOM     11  H   LIG    1       22.304 -13.721   3.283  0.00  0.00    +0.191 HD
ATOM     12  N   LIG    1       23.155 -11.872   3.297  0.00  0.00    -0.067 NA
ATOM     13  N   LIG    1       24.406 -11.447   3.417  0.00  0.00    -0.130 NA
ATOM     14  C   LIG    1       24.987 -14.981   3.580  0.00  0.00    +0.046 A 
BRANCH   6  15
ATOM     15  O   LIG    1       28.565 -14.109   3.791  0.00  0.00    -0.494 OA
ATOM     16  C   LIG    1       29.423 -12.976   3.686  0.00  0.00    +0.277 C 
ENDBRANCH   6  15
ENDBRANCH   3   5
BRANCH   1  17
ATOM     17  C   LIG    1       28.676 -18.057   4.476  0.00  0.00    +0.123 C 
BRANCH  17  19
ATOM     18  N   LIG    1       27.286 -20.073   5.234  0.00  0.00    -0.294 NA
ATOM     19  C   LIG    1       28.211 -18.971   5.631  0.00  0.00    +0.074 C 
ATOM     20  C   LIG    1       29.366 -19.664   6.348  0.00  0.00    +0.021 C 
ATOM     21  C   LIG    1       28.677 -20.800   7.062  0.00  0.00    +0.017 C 
ATOM     22  C   LIG    1       27.634 -21.249   6.056  0.00  0.00    +0.085 C 
BRANCH  18  23
ATOM     23  C   LIG    1       25.878 -19.673   5.398  0.00  0.00    +0.111 C 
BRANCH  23  25
ATOM     24  C   LIG    1       24.039 -19.687   3.674  0.00  0.00    +0.005 C 
ATOM     25  C   LIG    1       24.975 -20.329   4.388  0.00  0.00    -0.019 C 
ENDBRANCH  23  25
ENDBRANCH  18  23
ENDBRANCH  17  19
ENDBRANCH   1  17
TORSDOF 6
ENDMDL
