MODEL 1
REMARK VINA RESULT:      -3.2      0.000      0.000
REMARK  Name = *****
REMARK                            x       y       z     vdW  Elec       q    Type
REMARK                         _______ _______ _______ _____ _____    ______ ____
ROOT
ATOM      1  C   LIG    1       21.754 -19.174   4.504  0.00  0.00    +0.105 C 
ATOM      2  N   LIG    1       22.935 -19.007   3.689  0.00  0.00    -0.304 NA
ATOM      3  C   LIG    1       23.859 -18.055   4.276  0.00  0.00    +0.093 C 
ATOM      4  C   LIG    1       25.009 -18.210   3.281  0.00  0.00    +0.045 C 
ATOM      5  C   LIG    1       25.260 -19.732   3.376  0.00  0.00    +0.045 C 
ATOM      6  C   LIG    1       26.065 -20.140   4.605  0.00  0.00    -0.000 A 
ATOM      7  C   LIG    1       27.169 -19.397   5.054  0.00  0.00    +0.132 A 
ATOM      8  O   LIG    1       27.838 -18.485   4.266  0.00  0.00    -0.456 OA
ATOM      9  C   LIG    1       27.253 -17.269   4.050  0.00  0.00    +0.132 A 
ATOM     10  C   LIG    1       28.044 -16.128   4.278  0.00  0.00    +0.048 A 
ATOM     11  C   LIG    1       27.564 -14.851   4.002  0.00  0.00    +0.023 A 
ATOM     12  C   LIG    1       26.301 -14.688   3.451  0.00  0.00    +0.042 A 
ATOM     13  C   LIG    1       25.538 -15.816   3.191  0.00  0.00    +0.027 A 
ATOM     14 CL   LIG    1       25.662 -13.132   3.115  0.00  0.00    -0.084 Cl
ATOM     15  C   LIG    1       27.784 -19.697   6.279  0.00  0.00    +0.046 A 
ATOM     16  C   LIG    1       27.327 -20.755   7.062  0.00  0.00    +0.004 A 
ATOM     17  C   LIG    1       26.316 -21.572   6.577  0.00  0.00    +0.001 A 
ATOM     18  C   LIG    1       25.717 -21.285   5.349  0.00  0.00    +0.007 A 
ATOM     19  C   LIG    1       25.994 -17.114   3.514  0.00  0.00    +0.001 A 
ATOM     20  C   LIG    1       23.745 -20.201   3.380  0.00  0.00    +0.093 C 
ENDROOT
TORSDOF 0
ENDMDL
