MODEL 1
REMARK VINA RESULT:      -5.7      0.000      0.000
REMARK  Name = *****
REMARK                            x       y       z     vdW  Elec       q    Type
REMARK                         _______ _______ _______ _____ _____    ______ ____
ROOT
ATOM      1  C   LIG    1       20.882 -18.658   3.367  0.00  0.00    +0.090 C 
ATOM      2  C   LIG    1       22.012 -19.294   4.075  0.00  0.00    +0.142 A 
ATOM      3  C   LIG    1       23.298 -18.918   4.426  0.00  0.00    +0.052 A 
ATOM      4  C   LIG    1       23.853 -20.106   5.022  0.00  0.00    +0.121 A 
ATOM      5  N   LIG    1       22.923 -21.079   5.049  0.00  0.00    -0.077 NA
ATOM      6  O   LIG    1       21.794 -20.572   4.467  0.00  0.00    -0.359 OA
ENDROOT
BRANCH   3   7
ATOM      7  C   LIG    1       23.858 -17.613   4.097  0.00  0.00    -0.012 A 
ATOM      8  C   LIG    1       23.161 -16.438   4.407  0.00  0.00    +0.010 A 
ATOM      9  C   LIG    1       23.721 -15.183   4.140  0.00  0.00    +0.029 A 
ATOM     10  C   LIG    1       24.997 -15.098   3.582  0.00  0.00    +0.105 A 
ATOM     11  C   LIG    1       25.702 -16.257   3.253  0.00  0.00    +0.029 A 
ATOM     12  C   LIG    1       25.124 -17.507   3.495  0.00  0.00    +0.010 A 
BRANCH  10  13
ATOM     13  S   LIG    1       25.778 -13.539   3.293  0.00  0.00    +0.056 S 
ATOM     14  O   LIG    1       26.532 -13.184   4.471  0.00  0.00    -0.153 OA
ATOM     15  O   LIG    1       24.806 -12.655   2.683  0.00  0.00    -0.153 OA
BRANCH  13  16
ATOM     16  N   LIG    1       26.920 -13.847   2.101  0.00  0.00    -0.203 NA
ATOM     17  H   LIG    1       27.830 -14.010   2.535  0.00  0.00    +0.144 HD
ATOM     18  H   LIG    1       26.918 -13.084   1.422  0.00  0.00    +0.144 HD
ENDBRANCH  13  16
ENDBRANCH  10  13
ENDBRANCH   3   7
BRANCH   4  19
ATOM     19  C   LIG    1       25.191 -20.392   5.558  0.00  0.00    +0.004 A 
ATOM     20  C   LIG    1       26.312 -19.746   5.003  0.00  0.00    +0.010 A 
ATOM     21  C   LIG    1       27.603 -20.010   5.466  0.00  0.00    +0.001 A 
ATOM     22  C   LIG    1       27.794 -20.921   6.500  0.00  0.00    +0.000 A 
ATOM     23  C   LIG    1       26.697 -21.571   7.062  0.00  0.00    +0.001 A 
ATOM     24  C   LIG    1       25.404 -21.317   6.587  0.00  0.00    +0.010 A 
ENDBRANCH   4  19
TORSDOF 4
ENDMDL
MODEL 2
REMARK VINA RESULT:      -4.6      1.035      1.208
REMARK  Name = *****
REMARK                            x       y       z     vdW  Elec       q    Type
REMARK                         _______ _______ _______ _____ _____    ______ ____
ROOT
ATOM      1  C   LIG    1       20.437 -17.822   3.122  0.00  0.00    +0.090 C 
ATOM      2  C   LIG    1       21.445 -18.635   3.835  0.00  0.00    +0.142 A 
ATOM      3  C   LIG    1       22.745 -18.440   4.271  0.00  0.00    +0.052 A 
ATOM      4  C   LIG    1       23.123 -19.723   4.806  0.00  0.00    +0.121 A 
ATOM      5  N   LIG    1       22.085 -20.576   4.721  0.00  0.00    -0.077 NA
ATOM      6  O   LIG    1       21.057 -19.900   4.125  0.00  0.00    -0.359 OA
ENDROOT
BRANCH   3   7
ATOM      7  C   LIG    1       23.471 -17.194   4.062  0.00  0.00    -0.012 A 
ATOM      8  C   LIG    1       22.888 -15.964   4.392  0.00  0.00    +0.010 A 
ATOM      9  C   LIG    1       23.604 -14.770   4.241  0.00  0.00    +0.029 A 
ATOM     10  C   LIG    1       24.921 -14.805   3.781  0.00  0.00    +0.105 A 
ATOM     11  C   LIG    1       25.515 -16.020   3.434  0.00  0.00    +0.029 A 
ATOM     12  C   LIG    1       24.784 -17.205   3.560  0.00  0.00    +0.010 A 
BRANCH  10  13
ATOM     13  S   LIG    1       25.891 -13.335   3.643  0.00  0.00    +0.056 S 
ATOM     14  O   LIG    1       26.791 -13.489   2.525  0.00  0.00    -0.153 OA
ATOM     15  O   LIG    1       26.339 -12.963   4.969  0.00  0.00    -0.153 OA
BRANCH  13  16
ATOM     16  N   LIG    1       24.799 -12.144   3.184  0.00  0.00    -0.203 NA
ATOM     17  H   LIG    1       23.894 -12.571   2.985  0.00  0.00    +0.144 HD
ATOM     18  H   LIG    1       25.185 -11.612   2.402  0.00  0.00    +0.144 HD
ENDBRANCH  13  16
ENDBRANCH  10  13
ENDBRANCH   3   7
BRANCH   4  19
ATOM     19  C   LIG    1       24.387 -20.203   5.383  0.00  0.00    +0.004 A 
ATOM     20  C   LIG    1       25.600 -19.906   4.734  0.00  0.00    +0.010 A 
ATOM     21  C   LIG    1       26.820 -20.366   5.234  0.00  0.00    +0.001 A 
ATOM     22  C   LIG    1       26.848 -21.125   6.400  0.00  0.00    +0.000 A 
ATOM     23  C   LIG    1       25.657 -21.430   7.056  0.00  0.00    +0.001 A 
ATOM     24  C   LIG    1       24.433 -20.981   6.546  0.00  0.00    +0.010 A 
ENDBRANCH   4  19
TORSDOF 4
ENDMDL
MODEL 3
REMARK VINA RESULT:      -2.8      1.084      1.895
REMARK  Name = *****
REMARK                            x       y       z     vdW  Elec       q    Type
REMARK                         _______ _______ _______ _____ _____    ______ ____
ROOT
ATOM      1  C   LIG    1       20.710 -17.293   3.046  0.00  0.00    +0.090 C 
ATOM      2  C   LIG    1       21.589 -18.266   3.726  0.00  0.00    +0.142 A 
ATOM      3  C   LIG    1       22.896 -18.266   4.184  0.00  0.00    +0.052 A 
ATOM      4  C   LIG    1       23.094 -19.612   4.657  0.00  0.00    +0.121 A 
ATOM      5  N   LIG    1       21.954 -20.316   4.518  0.00  0.00    -0.077 NA
ATOM      6  O   LIG    1       21.034 -19.481   3.946  0.00  0.00    -0.359 OA
ENDROOT
BRANCH   3   7
ATOM      7  C   LIG    1       23.784 -17.119   4.046  0.00  0.00    -0.012 A 
ATOM      8  C   LIG    1       25.048 -17.261   3.457  0.00  0.00    +0.010 A 
ATOM      9  C   LIG    1       25.881 -16.150   3.276  0.00  0.00    +0.029 A 
ATOM     10  C   LIG    1       25.440 -14.883   3.660  0.00  0.00    +0.105 A 
ATOM     11  C   LIG    1       24.190 -14.723   4.260  0.00  0.00    +0.029 A 
ATOM     12  C   LIG    1       23.375 -15.841   4.465  0.00  0.00    +0.010 A 
BRANCH  10  13
ATOM     13  S   LIG    1       26.422 -13.440   3.385  0.00  0.00    +0.056 S 
ATOM     14  O   LIG    1       27.629 -13.837   2.699  0.00  0.00    -0.153 OA
ATOM     15  O   LIG    1       26.430 -12.661   4.606  0.00  0.00    -0.153 OA
BRANCH  13  16
ATOM     16  N   LIG    1       25.547 -12.533   2.275  0.00  0.00    -0.203 NA
ATOM     17  H   LIG    1       25.245 -13.134   1.507  0.00  0.00    +0.144 HD
ATOM     18  H   LIG    1       26.106 -11.732   1.975  0.00  0.00    +0.144 HD
ENDBRANCH  13  16
ENDBRANCH  10  13
ENDBRANCH   3   7
BRANCH   4  19
ATOM     19  C   LIG    1       24.274 -20.283   5.220  0.00  0.00    +0.004 A 
ATOM     20  C   LIG    1       24.177 -20.917   6.473  0.00  0.00    +0.010 A 
ATOM     21  C   LIG    1       25.281 -21.542   7.056  0.00  0.00    +0.001 A 
ATOM     22  C   LIG    1       26.502 -21.553   6.389  0.00  0.00    +0.000 A 
ATOM     23  C   LIG    1       26.618 -20.931   5.147  0.00  0.00    +0.001 A 
ATOM     24  C   LIG    1       25.514 -20.290   4.570  0.00  0.00    +0.010 A 
ENDBRANCH   4  19
TORSDOF 4
ENDMDL
