MODEL 1
REMARK VINA RESULT:      -6.4      0.000      0.000
REMARK  Name = *****
REMARK                            x       y       z     vdW  Elec       q    Type
REMARK                         _______ _______ _______ _____ _____    ______ ____
ROOT
ATOM      1  C   LIG    1       28.020 -21.303   7.626  0.00  0.00    +0.097 C 
ENDROOT
BRANCH   1   2
ATOM      2  N   LIG    1       28.869 -20.204   8.130  0.00  0.00    -0.302 NA
ATOM      3  H   LIG    1       28.538 -19.335   7.717  0.00  0.00    +0.123 HD
BRANCH   2   4
ATOM      4  C   LIG    1       30.301 -20.397   7.770  0.00  0.00    +0.173 C 
BRANCH   4   5
ATOM      5  C   LIG    1       31.193 -20.276   9.020  0.00  0.00    +0.325 C 
ATOM      6  O   LIG    1       32.171 -20.975   9.229  0.00  0.00    -0.249 OA
BRANCH   5   7
ATOM      7  O   LIG    1       30.696 -19.345   9.887  0.00  0.00    -0.464 OA
BRANCH   7   9
ATOM      8  C   LIG    1       30.416 -16.962   9.769  0.00  0.00    +0.048 C 
ATOM      9  C   LIG    1       31.401 -18.102   9.932  0.00  0.00    +0.229 C 
ENDBRANCH   7   9
ENDBRANCH   5   7
ENDBRANCH   4   5
BRANCH   4  10
ATOM     10  C   LIG    1       30.780 -19.357   6.733  0.00  0.00    +0.095 C 
BRANCH  10  11
ATOM     11  S   LIG    1       29.449 -18.566   5.771  0.00  0.00    -0.176 S 
ATOM     12  H   LIG    1       29.505 -17.369   6.366  0.00  0.00    +0.102 HD
ENDBRANCH  10  11
ENDBRANCH   4  10
ENDBRANCH   2   4
ENDBRANCH   1   2
BRANCH   1  13
ATOM     13  C   LIG    1       26.706 -21.389   8.424  0.00  0.00    +0.097 C 
BRANCH  13  14
ATOM     14  N   LIG    1       25.763 -22.338   7.815  0.00  0.00    -0.302 NA
ATOM     15  H   LIG    1       24.981 -22.476   8.462  0.00  0.00    +0.123 HD
BRANCH  14  16
ATOM     16  C   LIG    1       25.270 -21.884   6.486  0.00  0.00    +0.173 C 
BRANCH  16  17
ATOM     17  C   LIG    1       24.077 -20.944   6.657  0.00  0.00    +0.325 C 
ATOM     18  O   LIG    1       23.482 -20.753   7.718  0.00  0.00    -0.249 OA
BRANCH  17  19
ATOM     19  O   LIG    1       23.867 -20.235   5.510  0.00  0.00    -0.464 OA
BRANCH  19  20
ATOM     20  C   LIG    1       22.495 -20.063   5.128  0.00  0.00    +0.229 C 
ATOM     21  C   LIG    1       22.269 -18.704   4.506  0.00  0.00    +0.048 C 
ENDBRANCH  19  20
ENDBRANCH  17  19
ENDBRANCH  16  17
BRANCH  16  22
ATOM     22  C   LIG    1       24.861 -23.116   5.652  0.00  0.00    +0.095 C 
BRANCH  22  23
ATOM     23  S   LIG    1       23.732 -24.238   6.547  0.00  0.00    -0.176 S 
ATOM     24  H   LIG    1       22.756 -23.339   6.759  0.00  0.00    +0.102 HD
ENDBRANCH  22  23
ENDBRANCH  16  22
ENDBRANCH  14  16
ENDBRANCH  13  14
ENDBRANCH   1  13
TORSDOF 15
ENDMDL
MODEL 2
REMARK VINA RESULT:      -6.3      1.815      2.808
REMARK  Name = *****
REMARK                            x       y       z     vdW  Elec       q    Type
REMARK                         _______ _______ _______ _____ _____    ______ ____
ROOT
ATOM      1  C   LIG    1       27.999 -21.414   7.821  0.00  0.00    +0.097 C 
ENDROOT
BRANCH   1   2
ATOM      2  N   LIG    1       28.820 -20.232   8.152  0.00  0.00    -0.302 NA
ATOM      3  H   LIG    1       28.444 -19.433   7.646  0.00  0.00    +0.123 HD
BRANCH   2   4
ATOM      4  C   LIG    1       30.247 -20.418   7.767  0.00  0.00    +0.173 C 
BRANCH   4   5
ATOM      5  C   LIG    1       31.160 -20.306   9.002  0.00  0.00    +0.325 C 
ATOM      6  O   LIG    1       32.145 -21.001   9.187  0.00  0.00    -0.249 OA
BRANCH   5   7
ATOM      7  O   LIG    1       30.671 -19.388   9.889  0.00  0.00    -0.464 OA
BRANCH   7   9
ATOM      8  C   LIG    1       30.391 -17.005   9.758  0.00  0.00    +0.048 C 
ATOM      9  C   LIG    1       31.374 -18.143   9.942  0.00  0.00    +0.229 C 
ENDBRANCH   7   9
ENDBRANCH   5   7
ENDBRANCH   4   5
BRANCH   4  10
ATOM     10  C   LIG    1       30.706 -19.369   6.730  0.00  0.00    +0.095 C 
BRANCH  10  11
ATOM     11  S   LIG    1       29.363 -18.617   5.755  0.00  0.00    -0.176 S 
ATOM     12  H   LIG    1       28.552 -18.335   6.781  0.00  0.00    +0.102 HD
ENDBRANCH  10  11
ENDBRANCH   4  10
ENDBRANCH   2   4
ENDBRANCH   1   2
BRANCH   1  13
ATOM     13  C   LIG    1       26.499 -21.074   7.886  0.00  0.00    +0.097 C 
BRANCH  13  14
ATOM     14  N   LIG    1       25.676 -22.281   8.045  0.00  0.00    -0.302 NA
ATOM     15  H   LIG    1       25.503 -22.425   9.044  0.00  0.00    +0.123 HD
BRANCH  14  16
ATOM     16  C   LIG    1       24.392 -22.202   7.297  0.00  0.00    +0.173 C 
BRANCH  16  17
ATOM     17  C   LIG    1       24.100 -23.533   6.605  0.00  0.00    +0.325 C 
ATOM     18  O   LIG    1       23.096 -24.218   6.800  0.00  0.00    -0.249 OA
BRANCH  17  19
ATOM     19  O   LIG    1       25.029 -23.774   5.635  0.00  0.00    -0.464 OA
BRANCH  19  20
ATOM     20  C   LIG    1       25.163 -25.143   5.228  0.00  0.00    +0.229 C 
ATOM     21  C   LIG    1       26.132 -25.884   6.119  0.00  0.00    +0.048 C 
ENDBRANCH  19  20
ENDBRANCH  17  19
ENDBRANCH  16  17
BRANCH  16  22
ATOM     22  C   LIG    1       24.486 -21.070   6.252  0.00  0.00    +0.095 C 
BRANCH  22  23
ATOM     23  S   LIG    1       22.853 -20.543   5.625  0.00  0.00    -0.176 S 
ATOM     24  H   LIG    1       23.301 -19.532   4.861  0.00  0.00    +0.102 HD
ENDBRANCH  22  23
ENDBRANCH  16  22
ENDBRANCH  14  16
ENDBRANCH  13  14
ENDBRANCH   1  13
TORSDOF 15
ENDMDL
MODEL 3
REMARK VINA RESULT:      -6.3      0.856      7.647
REMARK  Name = *****
REMARK                            x       y       z     vdW  Elec       q    Type
REMARK                         _______ _______ _______ _____ _____    ______ ____
ROOT
ATOM      1  C   LIG    1       26.821 -21.317   7.188  0.00  0.00    +0.097 C 
ENDROOT
BRANCH   1   2
ATOM      2  N   LIG    1       25.862 -22.363   7.597  0.00  0.00    -0.302 NA
ATOM      3  H   LIG    1       26.376 -23.235   7.713  0.00  0.00    +0.123 HD
BRANCH   2   4
ATOM      4  C   LIG    1       24.791 -22.564   6.583  0.00  0.00    +0.173 C 
BRANCH   4   5
ATOM      5  C   LIG    1       23.573 -21.677   6.899  0.00  0.00    +0.325 C 
ATOM      6  O   LIG    1       23.246 -21.345   8.027  0.00  0.00    -0.249 OA
BRANCH   5   7
ATOM      7  O   LIG    1       22.873 -21.384   5.763  0.00  0.00    -0.464 OA
BRANCH   7   9
ATOM      8  C   LIG    1       22.423 -19.208   4.850  0.00  0.00    +0.048 C 
ATOM      9  C   LIG    1       23.421 -20.344   4.949  0.00  0.00    +0.229 C 
ENDBRANCH   7   9
ENDBRANCH   5   7
ENDBRANCH   4   5
BRANCH   4  10
ATOM     10  C   LIG    1       24.317 -24.034   6.528  0.00  0.00    +0.095 C 
BRANCH  10  11
ATOM     11  S   LIG    1       25.116 -25.049   5.243  0.00  0.00    -0.176 S 
ATOM     12  H   LIG    1       25.200 -26.179   5.954  0.00  0.00    +0.102 HD
ENDBRANCH  10  11
ENDBRANCH   4  10
ENDBRANCH   2   4
ENDBRANCH   1   2
BRANCH   1  13
ATOM     13  C   LIG    1       28.159 -21.478   7.934  0.00  0.00    +0.097 C 
BRANCH  13  14
ATOM     14  N   LIG    1       28.887 -20.205   8.023  0.00  0.00    -0.302 NA
ATOM     15  H   LIG    1       28.735 -19.811   8.957  0.00  0.00    +0.123 HD
BRANCH  14  16
ATOM     16  C   LIG    1       30.342 -20.356   7.748  0.00  0.00    +0.173 C 
BRANCH  16  17
ATOM     17  C   LIG    1       31.141 -20.235   9.046  0.00  0.00    +0.325 C 
ATOM     18  O   LIG    1       32.198 -20.822   9.275  0.00  0.00    -0.249 OA
BRANCH  17  19
ATOM     19  O   LIG    1       30.600 -19.269   9.844  0.00  0.00    -0.464 OA
BRANCH  19  20
ATOM     20  C   LIG    1       31.368 -18.066   9.974  0.00  0.00    +0.229 C 
ATOM     21  C   LIG    1       30.582 -16.990  10.687  0.00  0.00    +0.048 C 
ENDBRANCH  19  20
ENDBRANCH  17  19
ENDBRANCH  16  17
BRANCH  16  22
ATOM     22  C   LIG    1       30.782 -19.266   6.749  0.00  0.00    +0.095 C 
BRANCH  22  23
ATOM     23  S   LIG    1       29.396 -18.607   5.759  0.00  0.00    -0.176 S 
ATOM     24  H   LIG    1       28.935 -19.794   5.328  0.00  0.00    +0.102 HD
ENDBRANCH  22  23
ENDBRANCH  16  22
ENDBRANCH  14  16
ENDBRANCH  13  14
ENDBRANCH   1  13
TORSDOF 15
ENDMDL
MODEL 4
REMARK VINA RESULT:      -6.2      1.928      7.611
REMARK  Name = *****
REMARK                            x       y       z     vdW  Elec       q    Type
REMARK                         _______ _______ _______ _____ _____    ______ ____
ROOT
ATOM      1  C   LIG    1       26.626 -20.680   7.301  0.00  0.00    +0.097 C 
ENDROOT
BRANCH   1   2
ATOM      2  N   LIG    1       26.185 -21.552   6.194  0.00  0.00    -0.302 NA
ATOM      3  H   LIG    1       26.351 -21.061   5.318  0.00  0.00    +0.123 HD
BRANCH   2   4
ATOM      4  C   LIG    1       24.737 -21.889   6.292  0.00  0.00    +0.173 C 
BRANCH   4   5
ATOM      5  C   LIG    1       24.547 -23.403   6.495  0.00  0.00    +0.325 C 
ATOM      6  O   LIG    1       23.477 -23.925   6.765  0.00  0.00    -0.249 OA
BRANCH   5   7
ATOM      7  O   LIG    1       25.741 -24.062   6.412  0.00  0.00    -0.464 OA
BRANCH   7   9
ATOM      8  C   LIG    1       25.629 -26.082   5.117  0.00  0.00    +0.048 C 
ATOM      9  C   LIG    1       25.670 -25.487   6.510  0.00  0.00    +0.229 C 
ENDBRANCH   7   9
ENDBRANCH   5   7
ENDBRANCH   4   5
BRANCH   4  10
ATOM     10  C   LIG    1       23.960 -21.469   5.025  0.00  0.00    +0.095 C 
BRANCH  10  11
ATOM     11  S   LIG    1       22.747 -20.134   5.277  0.00  0.00    -0.176 S 
ATOM     12  H   LIG    1       21.964 -20.784   6.146  0.00  0.00    +0.102 HD
ENDBRANCH  10  11
ENDBRANCH   4  10
ENDBRANCH   2   4
ENDBRANCH   1   2
BRANCH   1  13
ATOM     13  C   LIG    1       27.979 -21.152   7.864  0.00  0.00    +0.097 C 
BRANCH  13  14
ATOM     14  N   LIG    1       28.884 -20.023   8.119  0.00  0.00    -0.302 NA
ATOM     15  H   LIG    1       28.782 -19.742   9.099  0.00  0.00    +0.123 HD
BRANCH  14  16
ATOM     16  C   LIG    1       30.304 -20.345   7.812  0.00  0.00    +0.173 C 
BRANCH  16  17
ATOM     17  C   LIG    1       31.148 -20.281   9.085  0.00  0.00    +0.325 C 
ATOM     18  O   LIG    1       32.196 -20.903   9.263  0.00  0.00    -0.249 OA
BRANCH  17  19
ATOM     19  O   LIG    1       30.660 -19.325   9.927  0.00  0.00    -0.464 OA
BRANCH  19  20
ATOM     20  C   LIG    1       31.391 -18.092   9.959  0.00  0.00    +0.229 C 
ATOM     21  C   LIG    1       30.467 -16.906   9.797  0.00  0.00    +0.048 C 
ENDBRANCH  19  20
ENDBRANCH  17  19
ENDBRANCH  16  17
BRANCH  16  22
ATOM     22  C   LIG    1       30.836 -19.338   6.771  0.00  0.00    +0.095 C 
BRANCH  22  23
ATOM     23  S   LIG    1       29.506 -18.547   5.801  0.00  0.00    -0.176 S 
ATOM     24  H   LIG    1       30.304 -17.769   5.050  0.00  0.00    +0.102 HD
ENDBRANCH  22  23
ENDBRANCH  16  22
ENDBRANCH  14  16
ENDBRANCH  13  14
ENDBRANCH   1  13
TORSDOF 15
ENDMDL
MODEL 5
REMARK VINA RESULT:      -5.9      1.789      2.381
REMARK  Name = *****
REMARK                            x       y       z     vdW  Elec       q    Type
REMARK                         _______ _______ _______ _____ _____    ______ ____
ROOT
ATOM      1  C   LIG    1       28.613 -20.057   7.481  0.00  0.00    +0.097 C 
ENDROOT
BRANCH   1   2
ATOM      2  N   LIG    1       29.000 -19.290   8.682  0.00  0.00    -0.302 NA
ATOM      3  H   LIG    1       28.204 -18.721   8.964  0.00  0.00    +0.123 HD
BRANCH   2   4
ATOM      4  C   LIG    1       30.164 -18.398   8.422  0.00  0.00    +0.173 C 
BRANCH   4   5
ATOM      5  C   LIG    1       31.410 -19.226   8.059  0.00  0.00    +0.325 C 
ATOM      6  O   LIG    1       31.935 -19.220   6.958  0.00  0.00    -0.249 OA
BRANCH   5   7
ATOM      7  O   LIG    1       31.791 -20.020   9.104  0.00  0.00    -0.464 OA
BRANCH   7   9
ATOM      8  C   LIG    1       30.819 -22.154   9.625  0.00  0.00    +0.048 C 
ATOM      9  C   LIG    1       31.872 -21.419   8.821  0.00  0.00    +0.229 C 
ENDBRANCH   7   9
ENDBRANCH   5   7
ENDBRANCH   4   5
BRANCH   4  10
ATOM     10  C   LIG    1       30.506 -17.523   9.649  0.00  0.00    +0.095 C 
BRANCH  10  11
ATOM     11  S   LIG    1       32.025 -16.530   9.483  0.00  0.00    -0.176 S 
ATOM     12  H   LIG    1       31.627 -15.494  10.231  0.00  0.00    +0.102 HD
ENDBRANCH  10  11
ENDBRANCH   4  10
ENDBRANCH   2   4
ENDBRANCH   1   2
BRANCH   1  13
ATOM     13  C   LIG    1       27.108 -20.382   7.501  0.00  0.00    +0.097 C 
BRANCH  13  14
ATOM     14  N   LIG    1       26.606 -20.711   6.160  0.00  0.00    -0.302 NA
ATOM     15  H   LIG    1       27.401 -20.990   5.577  0.00  0.00    +0.123 HD
BRANCH  14  16
ATOM     16  C   LIG    1       25.570 -21.779   6.181  0.00  0.00    +0.173 C 
BRANCH  16  17
ATOM     17  C   LIG    1       24.195 -21.176   6.463  0.00  0.00    +0.325 C 
ATOM     18  O   LIG    1       23.729 -20.988   7.587  0.00  0.00    -0.249 OA
BRANCH  17  19
ATOM     19  O   LIG    1       23.627 -20.734   5.304  0.00  0.00    -0.464 OA
BRANCH  19  20
ATOM     20  C   LIG    1       22.595 -19.749   5.452  0.00  0.00    +0.229 C 
ATOM     21  C   LIG    1       22.642 -18.736   4.332  0.00  0.00    +0.048 C 
ENDBRANCH  19  20
ENDBRANCH  17  19
ENDBRANCH  16  17
BRANCH  16  22
ATOM     22  C   LIG    1       25.932 -22.811   7.270  0.00  0.00    +0.095 C 
BRANCH  22  23
ATOM     23  S   LIG    1       25.693 -24.537   6.721  0.00  0.00    -0.176 S 
ATOM     24  H   LIG    1       24.832 -24.889   7.692  0.00  0.00    +0.102 HD
ENDBRANCH  22  23
ENDBRANCH  16  22
ENDBRANCH  14  16
ENDBRANCH  13  14
ENDBRANCH   1  13
TORSDOF 15
ENDMDL
MODEL 6
REMARK VINA RESULT:      -5.8      2.416      7.579
REMARK  Name = *****
REMARK                            x       y       z     vdW  Elec       q    Type
REMARK                         _______ _______ _______ _____ _____    ______ ____
ROOT
ATOM      1  C   LIG    1       26.866 -20.091   5.438  0.00  0.00    +0.097 C 
ENDROOT
BRANCH   1   2
ATOM      2  N   LIG    1       25.891 -21.198   5.514  0.00  0.00    -0.302 NA
ATOM      3  H   LIG    1       25.808 -21.611   4.587  0.00  0.00    +0.123 HD
BRANCH   2   4
ATOM      4  C   LIG    1       24.548 -20.730   5.955  0.00  0.00    +0.173 C 
BRANCH   4   5
ATOM      5  C   LIG    1       23.980 -21.662   7.041  0.00  0.00    +0.325 C 
ATOM      6  O   LIG    1       23.295 -21.280   7.977  0.00  0.00    -0.249 OA
BRANCH   5   7
ATOM      7  O   LIG    1       24.411 -22.945   6.858  0.00  0.00    -0.464 OA
BRANCH   7   9
ATOM      8  C   LIG    1       24.015 -25.243   6.280  0.00  0.00    +0.048 C 
ATOM      9  C   LIG    1       23.384 -23.923   6.676  0.00  0.00    +0.229 C 
ENDBRANCH   7   9
ENDBRANCH   5   7
ENDBRANCH   4   5
BRANCH   4  10
ATOM     10  C   LIG    1       23.540 -20.681   4.785  0.00  0.00    +0.095 C 
BRANCH  10  11
ATOM     11  S   LIG    1       22.465 -19.209   4.760  0.00  0.00    -0.176 S 
ATOM     12  H   LIG    1       23.440 -18.293   4.722  0.00  0.00    +0.102 HD
ENDBRANCH  10  11
ENDBRANCH   4  10
ENDBRANCH   2   4
ENDBRANCH   1   2
BRANCH   1  13
ATOM     13  C   LIG    1       28.166 -20.456   6.176  0.00  0.00    +0.097 C 
BRANCH  13  14
ATOM     14  N   LIG    1       28.818 -19.268   6.746  0.00  0.00    -0.302 NA
ATOM     15  H   LIG    1       28.089 -18.614   7.048  0.00  0.00    +0.123 HD
BRANCH  14  16
ATOM     16  C   LIG    1       29.726 -19.600   7.877  0.00  0.00    +0.173 C 
BRANCH  16  17
ATOM     17  C   LIG    1       31.113 -19.008   7.633  0.00  0.00    +0.325 C 
ATOM     18  O   LIG    1       31.908 -19.413   6.785  0.00  0.00    -0.249 OA
BRANCH  17  19
ATOM     19  O   LIG    1       31.281 -17.876   8.376  0.00  0.00    -0.464 OA
BRANCH  19  20
ATOM     20  C   LIG    1       30.229 -17.580   9.305  0.00  0.00    +0.229 C 
ATOM     21  C   LIG    1       30.755 -17.507  10.720  0.00  0.00    +0.048 C 
ENDBRANCH  19  20
ENDBRANCH  17  19
ENDBRANCH  16  17
BRANCH  16  22
ATOM     22  C   LIG    1       29.820 -21.134   8.016  0.00  0.00    +0.095 C 
BRANCH  22  23
ATOM     23  S   LIG    1       31.132 -21.665   9.170  0.00  0.00    -0.176 S 
ATOM     24  H   LIG    1       31.026 -22.983   8.929  0.00  0.00    +0.102 HD
ENDBRANCH  22  23
ENDBRANCH  16  22
ENDBRANCH  14  16
ENDBRANCH  13  14
ENDBRANCH   1  13
TORSDOF 15
ENDMDL
MODEL 7
REMARK VINA RESULT:      -5.7      2.717      3.666
REMARK  Name = *****
REMARK                            x       y       z     vdW  Elec       q    Type
REMARK                         _______ _______ _______ _____ _____    ______ ____
ROOT
ATOM      1  C   LIG    1       29.198 -18.750   5.857  0.00  0.00    +0.097 C 
ENDROOT
BRANCH   1   2
ATOM      2  N   LIG    1       30.481 -18.446   6.522  0.00  0.00    -0.302 NA
ATOM      3  H   LIG    1       31.217 -18.954   6.034  0.00  0.00    +0.123 HD
BRANCH   2   4
ATOM      4  C   LIG    1       30.478 -18.857   7.954  0.00  0.00    +0.173 C 
BRANCH   4   5
ATOM      5  C   LIG    1       30.706 -17.637   8.866  0.00  0.00    +0.325 C 
ATOM      6  O   LIG    1       29.838 -17.137   9.563  0.00  0.00    -0.249 OA
BRANCH   5   7
ATOM      7  O   LIG    1       31.975 -17.152   8.725  0.00  0.00    -0.464 OA
BRANCH   7   9
ATOM      8  C   LIG    1       33.025 -15.336   9.897  0.00  0.00    +0.048 C 
ATOM      9  C   LIG    1       32.642 -16.801   9.941  0.00  0.00    +0.229 C 
ENDBRANCH   7   9
ENDBRANCH   5   7
ENDBRANCH   4   5
BRANCH   4  10
ATOM     10  C   LIG    1       31.577 -19.899   8.257  0.00  0.00    +0.095 C 
BRANCH  10  11
ATOM     11  S   LIG    1       30.973 -21.467   8.963  0.00  0.00    -0.176 S 
ATOM     12  H   LIG    1       31.339 -21.230  10.228  0.00  0.00    +0.102 HD
ENDBRANCH  10  11
ENDBRANCH   4  10
ENDBRANCH   2   4
ENDBRANCH   1   2
BRANCH   1  13
ATOM     13  C   LIG    1       28.611 -20.074   6.378  0.00  0.00    +0.097 C 
BRANCH  13  14
ATOM     14  N   LIG    1       27.308 -20.369   5.766  0.00  0.00    -0.302 NA
ATOM     15  H   LIG    1       27.397 -21.227   5.214  0.00  0.00    +0.123 HD
BRANCH  14  16
ATOM     16  C   LIG    1       26.219 -20.502   6.771  0.00  0.00    +0.173 C 
BRANCH  16  17
ATOM     17  C   LIG    1       26.454 -21.734   7.644  0.00  0.00    +0.325 C 
ATOM     18  O   LIG    1       26.440 -21.734   8.875  0.00  0.00    -0.249 OA
BRANCH  17  19
ATOM     19  O   LIG    1       26.525 -22.855   6.869  0.00  0.00    -0.464 OA
BRANCH  19  20
ATOM     20  C   LIG    1       25.647 -23.926   7.240  0.00  0.00    +0.229 C 
ATOM     21  C   LIG    1       25.954 -25.180   6.455  0.00  0.00    +0.048 C 
ENDBRANCH  19  20
ENDBRANCH  17  19
ENDBRANCH  16  17
BRANCH  16  22
ATOM     22  C   LIG    1       24.867 -20.620   6.038  0.00  0.00    +0.095 C 
BRANCH  22  23
ATOM     23  S   LIG    1       24.987 -20.231   4.257  0.00  0.00    -0.176 S 
ATOM     24  H   LIG    1       24.101 -21.151   3.838  0.00  0.00    +0.102 HD
ENDBRANCH  22  23
ENDBRANCH  16  22
ENDBRANCH  14  16
ENDBRANCH  13  14
ENDBRANCH   1  13
TORSDOF 15
ENDMDL
MODEL 8
REMARK VINA RESULT:      -5.7      1.939      7.290
REMARK  Name = *****
REMARK                            x       y       z     vdW  Elec       q    Type
REMARK                         _______ _______ _______ _____ _____    ______ ____
ROOT
ATOM      1  C   LIG    1       26.294 -21.791   7.965  0.00  0.00    +0.097 C 
ENDROOT
BRANCH   1   2
ATOM      2  N   LIG    1       26.458 -22.098   6.529  0.00  0.00    -0.302 NA
ATOM      3  H   LIG    1       27.134 -21.443   6.141  0.00  0.00    +0.123 HD
BRANCH   2   4
ATOM      4  C   LIG    1       25.176 -21.969   5.782  0.00  0.00    +0.173 C 
BRANCH   4   5
ATOM      5  C   LIG    1       25.067 -20.577   5.132  0.00  0.00    +0.325 C 
ATOM      6  O   LIG    1       26.025 -19.933   4.736  0.00  0.00    -0.249 OA
BRANCH   5   7
ATOM      7  O   LIG    1       23.773 -20.136   5.135  0.00  0.00    -0.464 OA
BRANCH   7   9
ATOM      8  C   LIG    1       22.226 -18.430   4.453  0.00  0.00    +0.048 C 
ATOM      9  C   LIG    1       23.407 -19.287   4.044  0.00  0.00    +0.229 C 
ENDBRANCH   7   9
ENDBRANCH   5   7
ENDBRANCH   4   5
BRANCH   4  10
ATOM     10  C   LIG    1       23.950 -22.171   6.700  0.00  0.00    +0.095 C 
BRANCH  10  11
ATOM     11  S   LIG    1       23.250 -23.854   6.683  0.00  0.00    -0.176 S 
ATOM     12  H   LIG    1       21.986 -23.509   6.958  0.00  0.00    +0.102 HD
ENDBRANCH  10  11
ENDBRANCH   4  10
ENDBRANCH   2   4
ENDBRANCH   1   2
BRANCH   1  13
ATOM     13  C   LIG    1       26.871 -20.403   8.297  0.00  0.00    +0.097 C 
BRANCH  13  14
ATOM     14  N   LIG    1       27.867 -19.978   7.304  0.00  0.00    -0.302 NA
ATOM     15  H   LIG    1       27.563 -19.086   6.903  0.00  0.00    +0.123 HD
BRANCH  14  16
ATOM     16  C   LIG    1       29.234 -19.855   7.879  0.00  0.00    +0.173 C 
BRANCH  16  17
ATOM     17  C   LIG    1       29.993 -18.715   7.200  0.00  0.00    +0.325 C 
ATOM     18  O   LIG    1       30.055 -18.542   5.983  0.00  0.00    -0.249 OA
BRANCH  17  19
ATOM     19  O   LIG    1       30.456 -17.835   8.134  0.00  0.00    -0.464 OA
BRANCH  19  20
ATOM     20  C   LIG    1       31.845 -17.956   8.469  0.00  0.00    +0.229 C 
ATOM     21  C   LIG    1       32.273 -16.867   9.426  0.00  0.00    +0.048 C 
ENDBRANCH  19  20
ENDBRANCH  17  19
ENDBRANCH  16  17
BRANCH  16  22
ATOM     22  C   LIG    1       29.987 -21.187   7.680  0.00  0.00    +0.095 C 
BRANCH  22  23
ATOM     23  S   LIG    1       31.078 -21.604   9.085  0.00  0.00    -0.176 S 
ATOM     24  H   LIG    1       31.319 -22.875   8.721  0.00  0.00    +0.102 HD
ENDBRANCH  22  23
ENDBRANCH  16  22
ENDBRANCH  14  16
ENDBRANCH  13  14
ENDBRANCH   1  13
TORSDOF 15
ENDMDL
MODEL 9
REMARK VINA RESULT:      -5.7      1.892      2.243
REMARK  Name = *****
REMARK                            x       y       z     vdW  Elec       q    Type
REMARK                         _______ _______ _______ _____ _____    ______ ____
ROOT
ATOM      1  C   LIG    1       26.812 -20.384   8.332  0.00  0.00    +0.097 C 
ENDROOT
BRANCH   1   2
ATOM      2  N   LIG    1       27.864 -20.004   7.367  0.00  0.00    -0.302 NA
ATOM      3  H   LIG    1       27.895 -20.714   6.638  0.00  0.00    +0.123 HD
BRANCH   2   4
ATOM      4  C   LIG    1       29.204 -19.914   8.010  0.00  0.00    +0.173 C 
BRANCH   4   5
ATOM      5  C   LIG    1       29.979 -18.695   7.477  0.00  0.00    +0.325 C 
ATOM      6  O   LIG    1       29.899 -18.286   6.330  0.00  0.00    -0.249 OA
BRANCH   5   7
ATOM      7  O   LIG    1       30.818 -18.193   8.431  0.00  0.00    -0.464 OA
BRANCH   7   9
ATOM      8  C   LIG    1       30.606 -17.711  10.775  0.00  0.00    +0.048 C 
ATOM      9  C   LIG    1       30.220 -17.295   9.370  0.00  0.00    +0.229 C 
ENDBRANCH   7   9
ENDBRANCH   5   7
ENDBRANCH   4   5
BRANCH   4  10
ATOM     10  C   LIG    1       30.054 -21.178   7.753  0.00  0.00    +0.095 C 
BRANCH  10  11
ATOM     11  S   LIG    1       31.014 -21.761   9.188  0.00  0.00    -0.176 S 
ATOM     12  H   LIG    1       29.979 -21.942  10.016  0.00  0.00    +0.102 HD
ENDBRANCH  10  11
ENDBRANCH   4  10
ENDBRANCH   2   4
ENDBRANCH   1   2
BRANCH   1  13
ATOM     13  C   LIG    1       26.291 -21.804   8.044  0.00  0.00    +0.097 C 
BRANCH  13  14
ATOM     14  N   LIG    1       26.435 -22.156   6.624  0.00  0.00    -0.302 NA
ATOM     15  H   LIG    1       26.818 -23.105   6.564  0.00  0.00    +0.123 HD
BRANCH  14  16
ATOM     16  C   LIG    1       25.153 -22.059   5.876  0.00  0.00    +0.173 C 
BRANCH  16  17
ATOM     17  C   LIG    1       25.121 -20.777   5.045  0.00  0.00    +0.325 C 
ATOM     18  O   LIG    1       26.072 -20.007   4.908  0.00  0.00    -0.249 OA
BRANCH  17  19
ATOM     19  O   LIG    1       23.947 -20.692   4.355  0.00  0.00    -0.464 OA
BRANCH  19  20
ATOM     20  C   LIG    1       23.573 -19.376   3.924  0.00  0.00    +0.229 C 
ATOM     21  C   LIG    1       22.352 -18.885   4.667  0.00  0.00    +0.048 C 
ENDBRANCH  19  20
ENDBRANCH  17  19
ENDBRANCH  16  17
BRANCH  16  22
ATOM     22  C   LIG    1       23.981 -22.070   6.880  0.00  0.00    +0.095 C 
BRANCH  22  23
ATOM     23  S   LIG    1       22.915 -23.545   6.715  0.00  0.00    -0.176 S 
ATOM     24  H   LIG    1       22.281 -23.410   7.892  0.00  0.00    +0.102 HD
ENDBRANCH  22  23
ENDBRANCH  16  22
ENDBRANCH  14  16
ENDBRANCH  13  14
ENDBRANCH   1  13
TORSDOF 15
ENDMDL
