MODEL 1
REMARK VINA RESULT:      -6.3      0.000      0.000
REMARK  Name = *****
REMARK                            x       y       z     vdW  Elec       q    Type
REMARK                         _______ _______ _______ _____ _____    ______ ____
ROOT
ATOM      1  C   LIG    1       26.098 -30.190  10.814  0.00  0.00    +0.015 C 
ATOM      2  C   LIG    1       27.619 -29.968  10.601  0.00  0.00    +0.018 C 
ATOM      3  C   LIG    1       25.671 -31.721  11.089  0.00  0.00    +0.128 C 
ATOM      4  C   LIG    1       25.638 -32.998  10.118  0.00  0.00    +0.022 C 
ATOM      5  C   LIG    1       27.030 -33.633   9.917  0.00  0.00    +0.010 C 
ATOM      6  C   LIG    1       24.581 -33.120   8.895  0.00  0.00    -0.014 C 
ATOM      7  C   LIG    1       24.021 -31.794   8.461  0.00  0.00    +0.071 C 
ATOM      8  C   LIG    1       22.878 -31.491   9.419  0.00  0.00    +0.138 C 
ATOM      9  O   LIG    1       22.295 -30.407   9.499  0.00  0.00    -0.297 OA
ATOM     10  C   LIG    1       22.367 -32.762  10.039  0.00  0.00    +0.075 C 
ATOM     11  C   LIG    1       25.072 -30.925   7.730  0.00  0.00    +0.018 C 
ATOM     12  C   LIG    1       26.592 -31.239   7.783  0.00  0.00    +0.016 C 
ATOM     13  C   LIG    1       24.839 -31.355   6.235  0.00  0.00    -0.004 C 
ATOM     14  C   LIG    1       23.653 -30.682   5.537  0.00  0.00    +0.008 C 
ATOM     15  C   LIG    1       24.736 -32.966   6.196  0.00  0.00    +0.004 C 
ATOM     16  C   LIG    1       24.934 -29.497   8.276  0.00  0.00    +0.184 C 
ATOM     17  C   LIG    1       25.066 -33.784   7.540  0.00  0.00    +0.008 C 
ATOM     18  C   LIG    1       23.269 -33.825   9.394  0.00  0.00    +0.015 C 
ATOM     19  C   LIG    1       25.184 -29.341   9.833  0.00  0.00    +0.058 C 
ENDROOT
BRANCH   1  21
ATOM     20  C   LIG    1       25.536 -28.108  12.371  0.00  0.00    +0.004 C 
ATOM     21  C   LIG    1       25.929 -29.376  12.172  0.00  0.00    -0.025 C 
ENDBRANCH   1  21
BRANCH   3  22
ATOM     22  O   LIG    1       24.365 -31.725  11.684  0.00  0.00    -0.391 OA
ATOM     23  H   LIG    1       23.881 -30.931  11.401  0.00  0.00    +0.210 HD
ENDBRANCH   3  22
BRANCH  16  24
ATOM     24  O   LIG    1       25.747 -28.568   7.523  0.00  0.00    -0.460 OA
BRANCH  24  25
ATOM     25  C   LIG    1       25.075 -27.575   6.873  0.00  0.00    +0.317 C 
ATOM     26  O   LIG    1       24.038 -27.718   6.230  0.00  0.00    -0.250 OA
BRANCH  25  27
ATOM     27  C   LIG    1       25.826 -26.285   6.913  0.00  0.00    +0.189 C 
BRANCH  27  28
ATOM     28  S   LIG    1       25.511 -25.348   5.381  0.00  0.00    -0.146 S 
BRANCH  28  29
ATOM     29  C   LIG    1       24.603 -23.868   6.034  0.00  0.00    +0.050 C 
ATOM     30  C   LIG    1       25.073 -23.448   7.441  0.00  0.00    +0.033 C 
ATOM     31  C   LIG    1       24.826 -21.959   7.743  0.00  0.00    +0.058 C 
ATOM     32  N   LIG    1       25.403 -21.089   6.714  0.00  0.00    -0.299 NA
ATOM     33  C   LIG    1       26.833 -21.243   6.495  0.00  0.00    +0.105 C 
ATOM     34  C   LIG    1       24.554 -21.339   5.545  0.00  0.00    +0.058 C 
ATOM     35  C   LIG    1       23.164 -21.168   6.164  0.00  0.00    +0.020 C 
ATOM     36  C   LIG    1       23.341 -21.594   7.624  0.00  0.00    +0.020 C 
ATOM     37  C   LIG    1       24.747 -22.755   4.975  0.00  0.00    +0.033 C 
ENDBRANCH  28  29
ENDBRANCH  27  28
ENDBRANCH  25  27
ENDBRANCH  24  25
ENDBRANCH  16  24
TORSDOF 7
ENDMDL
MODEL 2
REMARK VINA RESULT:      -6.3      1.409      2.101
REMARK  Name = *****
REMARK                            x       y       z     vdW  Elec       q    Type
REMARK                         _______ _______ _______ _____ _____    ______ ____
ROOT
ATOM      1  C   LIG    1       24.444 -29.188  11.905  0.00  0.00    +0.015 C 
ATOM      2  C   LIG    1       25.823 -28.546  12.213  0.00  0.00    +0.018 C 
ATOM      3  C   LIG    1       24.153 -30.570  12.685  0.00  0.00    +0.128 C 
ATOM      4  C   LIG    1       24.782 -32.035  12.506  0.00  0.00    +0.022 C 
ATOM      5  C   LIG    1       26.162 -32.179  13.180  0.00  0.00    +0.010 C 
ATOM      6  C   LIG    1       24.499 -32.936  11.189  0.00  0.00    -0.014 C 
ATOM      7  C   LIG    1       24.051 -32.128  10.003  0.00  0.00    +0.071 C 
ATOM      8  C   LIG    1       22.554 -31.920  10.182  0.00  0.00    +0.138 C 
ATOM      9  O   LIG    1       21.865 -31.149   9.509  0.00  0.00    -0.297 OA
ATOM     10  C   LIG    1       21.984 -32.983  11.080  0.00  0.00    +0.075 C 
ATOM     11  C   LIG    1       25.194 -31.268   9.414  0.00  0.00    +0.018 C 
ATOM     12  C   LIG    1       26.515 -31.001  10.186  0.00  0.00    +0.016 C 
ATOM     13  C   LIG    1       25.795 -32.251   8.341  0.00  0.00    -0.004 C 
ATOM     14  C   LIG    1       25.031 -32.319   7.016  0.00  0.00    +0.008 C 
ATOM     15  C   LIG    1       25.949 -33.702   9.034  0.00  0.00    +0.004 C 
ATOM     16  C   LIG    1       24.609 -29.881   9.118  0.00  0.00    +0.184 C 
ATOM     17  C   LIG    1       25.678 -33.825  10.613  0.00  0.00    +0.008 C 
ATOM     18  C   LIG    1       23.224 -33.825  11.416  0.00  0.00    +0.015 C 
ATOM     19  C   LIG    1       24.029 -29.110  10.375  0.00  0.00    +0.058 C 
ENDROOT
BRANCH   1  21
ATOM     20  C   LIG    1       23.833 -27.027  13.332  0.00  0.00    +0.004 C 
ATOM     21  C   LIG    1       23.513 -28.058  12.534  0.00  0.00    -0.025 C 
ENDBRANCH   1  21
BRANCH   3  22
ATOM     22  O   LIG    1       22.738 -30.812  12.659  0.00  0.00    -0.391 OA
ATOM     23  H   LIG    1       22.266 -29.974  12.795  0.00  0.00    +0.210 HD
ENDBRANCH   3  22
BRANCH  16  24
ATOM     24  O   LIG    1       25.550 -29.058   8.392  0.00  0.00    -0.460 OA
BRANCH  24  25
ATOM     25  C   LIG    1       25.109 -28.545   7.209  0.00  0.00    +0.317 C 
ATOM     26  O   LIG    1       24.469 -29.160   6.359  0.00  0.00    -0.250 OA
BRANCH  25  27
ATOM     27  C   LIG    1       25.616 -27.159   6.987  0.00  0.00    +0.189 C 
BRANCH  27  28
ATOM     28  S   LIG    1       24.393 -26.207   6.025  0.00  0.00    -0.146 S 
BRANCH  28  29
ATOM     29  C   LIG    1       24.517 -24.537   6.821  0.00  0.00    +0.050 C 
ATOM     30  C   LIG    1       25.785 -23.766   6.403  0.00  0.00    +0.033 C 
ATOM     31  C   LIG    1       25.632 -22.239   6.518  0.00  0.00    +0.058 C 
ATOM     32  N   LIG    1       24.456 -21.751   5.791  0.00  0.00    -0.299 NA
ATOM     33  C   LIG    1       24.421 -22.072   4.373  0.00  0.00    +0.105 C 
ATOM     34  C   LIG    1       23.333 -22.261   6.583  0.00  0.00    +0.058 C 
ATOM     35  C   LIG    1       23.749 -21.811   7.987  0.00  0.00    +0.020 C 
ATOM     36  C   LIG    1       25.280 -21.809   7.948  0.00  0.00    +0.020 C 
ATOM     37  C   LIG    1       23.205 -23.791   6.497  0.00  0.00    +0.033 C 
ENDBRANCH  28  29
ENDBRANCH  27  28
ENDBRANCH  25  27
ENDBRANCH  24  25
ENDBRANCH  16  24
TORSDOF 7
ENDMDL
MODEL 3
REMARK VINA RESULT:      -6.3      2.761      5.326
REMARK  Name = *****
REMARK                            x       y       z     vdW  Elec       q    Type
REMARK                         _______ _______ _______ _____ _____    ______ ____
ROOT
ATOM      1  C   LIG    1       23.370 -28.797  13.682  0.00  0.00    +0.015 C 
ATOM      2  C   LIG    1       23.067 -27.340  13.241  0.00  0.00    +0.018 C 
ATOM      3  C   LIG    1       24.468 -28.932  14.856  0.00  0.00    +0.128 C 
ATOM      4  C   LIG    1       26.054 -28.691  14.850  0.00  0.00    +0.022 C 
ATOM      5  C   LIG    1       26.433 -27.198  14.943  0.00  0.00    +0.010 C 
ATOM      6  C   LIG    1       27.068 -29.666  14.045  0.00  0.00    -0.014 C 
ATOM      7  C   LIG    1       26.394 -30.455  12.957  0.00  0.00    +0.071 C 
ATOM      8  C   LIG    1       25.774 -31.664  13.643  0.00  0.00    +0.138 C 
ATOM      9  O   LIG    1       24.982 -32.446  13.111  0.00  0.00    -0.297 OA
ATOM     10  C   LIG    1       26.476 -31.943  14.944  0.00  0.00    +0.075 C 
ATOM     11  C   LIG    1       25.980 -29.567  11.760  0.00  0.00    +0.018 C 
ATOM     12  C   LIG    1       25.934 -28.017  11.852  0.00  0.00    +0.016 C 
ATOM     13  C   LIG    1       27.258 -29.667  10.848  0.00  0.00    -0.004 C 
ATOM     14  C   LIG    1       27.358 -30.937   9.998  0.00  0.00    +0.008 C 
ATOM     15  C   LIG    1       28.553 -29.460  11.790  0.00  0.00    +0.004 C 
ATOM     16  C   LIG    1       24.562 -29.991  11.353  0.00  0.00    +0.184 C 
ATOM     17  C   LIG    1       28.321 -29.022  13.319  0.00  0.00    +0.008 C 
ATOM     18  C   LIG    1       27.539 -30.835  14.983  0.00  0.00    +0.015 C 
ATOM     19  C   LIG    1       23.458 -29.825  12.476  0.00  0.00    +0.058 C 
ENDROOT
BRANCH   1  21
ATOM     20  C   LIG    1       21.095 -28.401  15.004  0.00  0.00    +0.004 C 
ATOM     21  C   LIG    1       21.944 -29.160  14.292  0.00  0.00    -0.025 C 
ENDBRANCH   1  21
BRANCH   3  22
ATOM     22  O   LIG    1       24.334 -30.231  15.451  0.00  0.00    -0.391 OA
ATOM     23  H   LIG    1       24.289 -30.903  14.750  0.00  0.00    +0.210 HD
ENDBRANCH   3  22
BRANCH  16  24
ATOM     24  O   LIG    1       24.156 -29.348  10.123  0.00  0.00    -0.460 OA
BRANCH  24  25
ATOM     25  C   LIG    1       23.723 -30.175   9.130  0.00  0.00    +0.317 C 
ATOM     26  O   LIG    1       22.668 -30.804   9.133  0.00  0.00    -0.250 OA
BRANCH  25  27
ATOM     27  C   LIG    1       24.758 -30.346   8.067  0.00  0.00    +0.189 C 
BRANCH  27  28
ATOM     28  S   LIG    1       24.073 -29.830   6.458  0.00  0.00    -0.146 S 
BRANCH  28  29
ATOM     29  C   LIG    1       24.405 -28.006   6.482  0.00  0.00    +0.050 C 
ATOM     30  C   LIG    1       25.692 -27.641   7.249  0.00  0.00    +0.033 C 
ATOM     31  C   LIG    1       26.314 -26.309   6.791  0.00  0.00    +0.058 C 
ATOM     32  N   LIG    1       26.539 -26.281   5.342  0.00  0.00    -0.299 NA
ATOM     33  C   LIG    1       27.384 -27.342   4.820  0.00  0.00    +0.105 C 
ATOM     34  C   LIG    1       25.181 -26.224   4.791  0.00  0.00    +0.058 C 
ATOM     35  C   LIG    1       24.590 -25.075   5.613  0.00  0.00    +0.020 C 
ATOM     36  C   LIG    1       25.334 -25.140   6.950  0.00  0.00    +0.020 C 
ATOM     37  C   LIG    1       24.405 -27.533   5.013  0.00  0.00    +0.033 C 
ENDBRANCH  28  29
ENDBRANCH  27  28
ENDBRANCH  25  27
ENDBRANCH  24  25
ENDBRANCH  16  24
TORSDOF 7
ENDMDL
MODEL 4
REMARK VINA RESULT:      -6.0      2.654      5.287
REMARK  Name = *****
REMARK                            x       y       z     vdW  Elec       q    Type
REMARK                         _______ _______ _______ _____ _____    ______ ____
ROOT
ATOM      1  C   LIG    1       22.132 -32.013  11.502  0.00  0.00    +0.015 C 
ATOM      2  C   LIG    1       21.097 -31.283  10.606  0.00  0.00    +0.018 C 
ATOM      3  C   LIG    1       22.299 -31.394  12.983  0.00  0.00    +0.128 C 
ATOM      4  C   LIG    1       22.958 -30.019  13.483  0.00  0.00    +0.022 C 
ATOM      5  C   LIG    1       22.023 -28.806  13.299  0.00  0.00    +0.010 C 
ATOM      6  C   LIG    1       24.553 -29.749  13.393  0.00  0.00    -0.014 C 
ATOM      7  C   LIG    1       25.249 -30.629  12.392  0.00  0.00    +0.071 C 
ATOM      8  C   LIG    1       25.512 -31.946  13.107  0.00  0.00    +0.138 C 
ATOM      9  O   LIG    1       25.899 -32.981  12.558  0.00  0.00    -0.297 OA
ATOM     10  C   LIG    1       25.521 -31.738  14.597  0.00  0.00    +0.075 C 
ATOM     11  C   LIG    1       24.900 -30.247  10.933  0.00  0.00    +0.018 C 
ATOM     12  C   LIG    1       23.701 -29.325  10.580  0.00  0.00    +0.016 C 
ATOM     13  C   LIG    1       26.039 -29.213  10.606  0.00  0.00    -0.004 C 
ATOM     14  C   LIG    1       27.390 -29.826  10.226  0.00  0.00    +0.008 C 
ATOM     15  C   LIG    1       26.159 -28.199  11.858  0.00  0.00    +0.004 C 
ATOM     16  C   LIG    1       24.643 -31.556  10.174  0.00  0.00    +0.184 C 
ATOM     17  C   LIG    1       25.054 -28.291  13.022  0.00  0.00    +0.008 C 
ATOM     18  C   LIG    1       25.251 -30.230  14.716  0.00  0.00    +0.015 C 
ATOM     19  C   LIG    1       23.454 -32.441  10.735  0.00  0.00    +0.058 C 
ENDROOT
BRANCH   1  21
ATOM     20  C   LIG    1       20.111 -33.682  11.959  0.00  0.00    +0.004 C 
ATOM     21  C   LIG    1       21.385 -33.414  11.632  0.00  0.00    -0.025 C 
ENDBRANCH   1  21
BRANCH   3  22
ATOM     22  O   LIG    1       22.923 -32.382  13.816  0.00  0.00    -0.391 OA
ATOM     23  H   LIG    1       22.595 -33.263  13.571  0.00  0.00    +0.210 HD
ENDBRANCH   3  22
BRANCH  16  24
ATOM     24  O   LIG    1       24.491 -31.318   8.756  0.00  0.00    -0.460 OA
BRANCH  24  25
ATOM     25  C   LIG    1       25.563 -31.634   7.977  0.00  0.00    +0.317 C 
ATOM     26  O   LIG    1       26.371 -32.531   8.205  0.00  0.00    -0.250 OA
BRANCH  25  27
ATOM     27  C   LIG    1       25.737 -30.661   6.858  0.00  0.00    +0.189 C 
BRANCH  27  28
ATOM     28  S   LIG    1       24.108 -30.019   6.348  0.00  0.00    -0.146 S 
BRANCH  28  29
ATOM     29  C   LIG    1       24.403 -28.189   6.390  0.00  0.00    +0.050 C 
ATOM     30  C   LIG    1       25.678 -27.804   7.167  0.00  0.00    +0.033 C 
ATOM     31  C   LIG    1       26.275 -26.456   6.723  0.00  0.00    +0.058 C 
ATOM     32  N   LIG    1       26.506 -26.411   5.276  0.00  0.00    -0.299 NA
ATOM     33  C   LIG    1       27.375 -27.450   4.748  0.00  0.00    +0.105 C 
ATOM     34  C   LIG    1       25.150 -26.377   4.718  0.00  0.00    +0.058 C 
ATOM     35  C   LIG    1       24.531 -25.247   5.547  0.00  0.00    +0.020 C 
ATOM     36  C   LIG    1       25.270 -25.309   6.887  0.00  0.00    +0.020 C 
ATOM     37  C   LIG    1       24.400 -27.703   4.925  0.00  0.00    +0.033 C 
ENDBRANCH  28  29
ENDBRANCH  27  28
ENDBRANCH  25  27
ENDBRANCH  24  25
ENDBRANCH  16  24
TORSDOF 7
ENDMDL
MODEL 5
REMARK VINA RESULT:      -5.9      2.848      4.802
REMARK  Name = *****
REMARK                            x       y       z     vdW  Elec       q    Type
REMARK                         _______ _______ _______ _____ _____    ______ ____
ROOT
ATOM      1  C   LIG    1       24.040 -28.465  13.214  0.00  0.00    +0.015 C 
ATOM      2  C   LIG    1       25.380 -27.744  12.907  0.00  0.00    +0.018 C 
ATOM      3  C   LIG    1       24.004 -29.251  14.622  0.00  0.00    +0.128 C 
ATOM      4  C   LIG    1       24.742 -30.593  15.101  0.00  0.00    +0.022 C 
ATOM      5  C   LIG    1       26.213 -30.357  15.500  0.00  0.00    +0.010 C 
ATOM      6  C   LIG    1       24.360 -32.047  14.493  0.00  0.00    -0.014 C 
ATOM      7  C   LIG    1       23.666 -31.969  13.162  0.00  0.00    +0.071 C 
ATOM      8  C   LIG    1       22.198 -31.712  13.471  0.00  0.00    +0.138 C 
ATOM      9  O   LIG    1       21.345 -31.405  12.635  0.00  0.00    -0.297 OA
ATOM     10  C   LIG    1       21.872 -32.167  14.868  0.00  0.00    +0.075 C 
ATOM     11  C   LIG    1       24.620 -31.524  12.028  0.00  0.00    +0.018 C 
ATOM     12  C   LIG    1       26.007 -30.885  12.313  0.00  0.00    +0.016 C 
ATOM     13  C   LIG    1       25.152 -32.913  11.513  0.00  0.00    -0.004 C 
ATOM     14  C   LIG    1       24.213 -33.661  10.562  0.00  0.00    +0.008 C 
ATOM     15  C   LIG    1       25.547 -33.799  12.804  0.00  0.00    +0.004 C 
ATOM     16  C   LIG    1       23.864 -30.493  11.180  0.00  0.00    +0.184 C 
ATOM     17  C   LIG    1       25.524 -33.094  14.249  0.00  0.00    +0.008 C 
ATOM     18  C   LIG    1       23.225 -32.704  15.359  0.00  0.00    +0.015 C 
ATOM     19  C   LIG    1       23.401 -29.190  11.955  0.00  0.00    +0.058 C 
ENDROOT
BRANCH   1  21
ATOM     20  C   LIG    1       23.421 -25.915  13.649  0.00  0.00    +0.004 C 
ATOM     21  C   LIG    1       23.105 -27.182  13.337  0.00  0.00    -0.025 C 
ENDBRANCH   1  21
BRANCH   3  22
ATOM     22  O   LIG    1       22.632 -29.486  14.972  0.00  0.00    -0.391 OA
ATOM     23  H   LIG    1       22.381 -30.385  14.702  0.00  0.00    +0.210 HD
ENDBRANCH   3  22
BRANCH  16  24
ATOM     24  O   LIG    1       24.604 -30.153   9.986  0.00  0.00    -0.460 OA
BRANCH  24  25
ATOM     25  C   LIG    1       24.063 -30.572   8.807  0.00  0.00    +0.317 C 
ATOM     26  O   LIG    1       22.909 -30.962   8.650  0.00  0.00    -0.250 OA
BRANCH  25  27
ATOM     27  C   LIG    1       25.089 -30.639   7.724  0.00  0.00    +0.189 C 
BRANCH  27  28
ATOM     28  S   LIG    1       24.341 -30.127   6.142  0.00  0.00    -0.146 S 
BRANCH  28  29
ATOM     29  C   LIG    1       24.469 -28.280   6.254  0.00  0.00    +0.050 C 
ATOM     30  C   LIG    1       25.620 -27.813   7.167  0.00  0.00    +0.033 C 
ATOM     31  C   LIG    1       26.139 -26.407   6.816  0.00  0.00    +0.058 C 
ATOM     32  N   LIG    1       26.511 -26.298   5.403  0.00  0.00    -0.299 NA
ATOM     33  C   LIG    1       27.518 -27.243   4.946  0.00  0.00    +0.105 C 
ATOM     34  C   LIG    1       25.221 -26.361   4.708  0.00  0.00    +0.058 C 
ATOM     35  C   LIG    1       24.426 -25.314   5.492  0.00  0.00    +0.020 C 
ATOM     36  C   LIG    1       25.027 -25.353   6.900  0.00  0.00    +0.020 C 
ATOM     37  C   LIG    1       24.573 -27.752   4.807  0.00  0.00    +0.033 C 
ENDBRANCH  28  29
ENDBRANCH  27  28
ENDBRANCH  25  27
ENDBRANCH  24  25
ENDBRANCH  16  24
TORSDOF 7
ENDMDL
MODEL 6
REMARK VINA RESULT:      -5.5      3.148      5.870
REMARK  Name = *****
REMARK                            x       y       z     vdW  Elec       q    Type
REMARK                         _______ _______ _______ _____ _____    ______ ____
ROOT
ATOM      1  C   LIG    1       20.049 -32.285  11.148  0.00  0.00    +0.015 C 
ATOM      2  C   LIG    1       19.227 -31.237  10.351  0.00  0.00    +0.018 C 
ATOM      3  C   LIG    1       19.929 -32.159  12.752  0.00  0.00    +0.128 C 
ATOM      4  C   LIG    1       20.500 -31.057  13.769  0.00  0.00    +0.022 C 
ATOM      5  C   LIG    1       19.643 -29.775  13.805  0.00  0.00    +0.010 C 
ATOM      6  C   LIG    1       22.086 -30.900  14.063  0.00  0.00    -0.014 C 
ATOM      7  C   LIG    1       22.951 -31.488  12.982  0.00  0.00    +0.071 C 
ATOM      8  C   LIG    1       23.041 -32.977  13.285  0.00  0.00    +0.138 C 
ATOM      9  O   LIG    1       23.511 -33.824  12.521  0.00  0.00    -0.297 OA
ATOM     10  C   LIG    1       22.757 -33.231  14.741  0.00  0.00    +0.075 C 
ATOM     11  C   LIG    1       22.906 -30.656  11.678  0.00  0.00    +0.018 C 
ATOM     12  C   LIG    1       21.820 -29.578  11.417  0.00  0.00    +0.016 C 
ATOM     13  C   LIG    1       24.108 -29.666  11.907  0.00  0.00    -0.004 C 
ATOM     14  C   LIG    1       25.496 -30.240  11.609  0.00  0.00    +0.008 C 
ATOM     15  C   LIG    1       23.994 -29.092  13.412  0.00  0.00    +0.004 C 
ATOM     16  C   LIG    1       22.782 -31.649  10.514  0.00  0.00    +0.184 C 
ATOM     17  C   LIG    1       22.678 -29.444  14.264  0.00  0.00    +0.008 C 
ATOM     18  C   LIG    1       22.497 -31.814  15.273  0.00  0.00    +0.015 C 
ATOM     19  C   LIG    1       21.489 -32.564  10.542  0.00  0.00    +0.058 C 
ENDROOT
BRANCH   1  21
ATOM     20  C   LIG    1       18.135 -33.715   9.977  0.00  0.00    +0.004 C 
ATOM     21  C   LIG    1       19.265 -33.595  10.693  0.00  0.00    -0.025 C 
ENDBRANCH   1  21
BRANCH   3  22
ATOM     22  O   LIG    1       20.355 -33.399  13.334  0.00  0.00    -0.391 OA
ATOM     23  H   LIG    1       21.020 -33.813  12.759  0.00  0.00    +0.210 HD
ENDBRANCH   3  22
BRANCH  16  24
ATOM     24  O   LIG    1       22.920 -30.981   9.240  0.00  0.00    -0.460 OA
BRANCH  24  25
ATOM     25  C   LIG    1       23.874 -31.478   8.403  0.00  0.00    +0.317 C 
ATOM     26  O   LIG    1       24.075 -32.669   8.178  0.00  0.00    -0.250 OA
BRANCH  25  27
ATOM     27  C   LIG    1       24.764 -30.400   7.879  0.00  0.00    +0.189 C 
BRANCH  27  28
ATOM     28  S   LIG    1       24.186 -29.879   6.230  0.00  0.00    -0.146 S 
BRANCH  28  29
ATOM     29  C   LIG    1       24.438 -28.043   6.313  0.00  0.00    +0.050 C 
ATOM     30  C   LIG    1       25.625 -27.641   7.212  0.00  0.00    +0.033 C 
ATOM     31  C   LIG    1       26.234 -26.278   6.837  0.00  0.00    +0.058 C 
ATOM     32  N   LIG    1       26.602 -26.214   5.420  0.00  0.00    -0.299 NA
ATOM     33  C   LIG    1       27.540 -27.232   4.971  0.00  0.00    +0.105 C 
ATOM     34  C   LIG    1       25.306 -26.202   4.734  0.00  0.00    +0.058 C 
ATOM     35  C   LIG    1       24.588 -25.092   5.507  0.00  0.00    +0.020 C 
ATOM     36  C   LIG    1       25.195 -25.151   6.912  0.00  0.00    +0.020 C 
ATOM     37  C   LIG    1       24.567 -27.545   4.858  0.00  0.00    +0.033 C 
ENDBRANCH  28  29
ENDBRANCH  27  28
ENDBRANCH  25  27
ENDBRANCH  24  25
ENDBRANCH  16  24
TORSDOF 7
ENDMDL
MODEL 7
REMARK VINA RESULT:      -5.4      1.595      3.930
REMARK  Name = *****
REMARK                            x       y       z     vdW  Elec       q    Type
REMARK                         _______ _______ _______ _____ _____    ______ ____
ROOT
ATOM      1  C   LIG    1       24.830 -31.928   6.323  0.00  0.00    +0.015 C 
ATOM      2  C   LIG    1       23.519 -31.455   5.640  0.00  0.00    +0.018 C 
ATOM      3  C   LIG    1       24.678 -33.251   7.233  0.00  0.00    +0.128 C 
ATOM      4  C   LIG    1       23.956 -33.481   8.647  0.00  0.00    +0.022 C 
ATOM      5  C   LIG    1       22.426 -33.638   8.519  0.00  0.00    +0.010 C 
ATOM      6  C   LIG    1       24.524 -32.830  10.018  0.00  0.00    -0.014 C 
ATOM      7  C   LIG    1       25.426 -31.650   9.785  0.00  0.00    +0.071 C 
ATOM      8  C   LIG    1       26.802 -32.229   9.489  0.00  0.00    +0.138 C 
ATOM      9  O   LIG    1       27.762 -31.581   9.065  0.00  0.00    -0.297 OA
ATOM     10  C   LIG    1       26.916 -33.618  10.055  0.00  0.00    +0.075 C 
ATOM     11  C   LIG    1       24.649 -30.409   9.282  0.00  0.00    +0.018 C 
ATOM     12  C   LIG    1       23.198 -30.502   8.739  0.00  0.00    +0.016 C 
ATOM     13  C   LIG    1       24.300 -29.696  10.641  0.00  0.00    -0.004 C 
ATOM     14  C   LIG    1       25.429 -28.863  11.253  0.00  0.00    +0.008 C 
ATOM     15  C   LIG    1       23.749 -30.821  11.661  0.00  0.00    +0.004 C 
ATOM     16  C   LIG    1       25.472 -29.794   8.142  0.00  0.00    +0.184 C 
ATOM     17  C   LIG    1       23.486 -32.302  11.092  0.00  0.00    +0.008 C 
ATOM     18  C   LIG    1       25.536 -33.821  10.699  0.00  0.00    +0.015 C 
ATOM     19  C   LIG    1       25.716 -30.742   6.897  0.00  0.00    +0.058 C 
ENDROOT
BRANCH   1  21
ATOM     20  C   LIG    1       25.590 -33.427   4.261  0.00  0.00    +0.004 C 
ATOM     21  C   LIG    1       25.650 -32.317   5.014  0.00  0.00    -0.025 C 
ENDBRANCH   1  21
BRANCH   3  22
ATOM     22  O   LIG    1       25.984 -33.811   7.434  0.00  0.00    -0.391 OA
ATOM     23  H   LIG    1       26.018 -34.245   8.303  0.00  0.00    +0.210 HD
ENDBRANCH   3  22
BRANCH  16  24
ATOM     24  O   LIG    1       24.923 -28.522   7.728  0.00  0.00    -0.460 OA
BRANCH  24  25
ATOM     25  C   LIG    1       25.431 -27.997   6.578  0.00  0.00    +0.317 C 
ATOM     26  O   LIG    1       25.776 -28.641   5.591  0.00  0.00    -0.250 OA
BRANCH  25  27
ATOM     27  C   LIG    1       25.658 -26.526   6.697  0.00  0.00    +0.189 C 
BRANCH  27  28
ATOM     28  S   LIG    1       24.226 -25.629   6.009  0.00  0.00    -0.146 S 
BRANCH  28  29
ATOM     29  C   LIG    1       24.412 -23.967   6.809  0.00  0.00    +0.050 C 
ATOM     30  C   LIG    1       25.707 -23.241   6.392  0.00  0.00    +0.033 C 
ATOM     31  C   LIG    1       25.610 -21.710   6.512  0.00  0.00    +0.058 C 
ATOM     32  N   LIG    1       24.452 -21.177   5.788  0.00  0.00    -0.299 NA
ATOM     33  C   LIG    1       24.403 -21.492   4.369  0.00  0.00    +0.105 C 
ATOM     34  C   LIG    1       23.312 -21.648   6.581  0.00  0.00    +0.058 C 
ATOM     35  C   LIG    1       23.747 -21.218   7.985  0.00  0.00    +0.020 C 
ATOM     36  C   LIG    1       25.277 -21.272   7.944  0.00  0.00    +0.020 C 
ATOM     37  C   LIG    1       23.128 -23.173   6.491  0.00  0.00    +0.033 C 
ENDBRANCH  28  29
ENDBRANCH  27  28
ENDBRANCH  25  27
ENDBRANCH  24  25
ENDBRANCH  16  24
TORSDOF 7
ENDMDL
MODEL 8
REMARK VINA RESULT:      -5.3      2.769      4.821
REMARK  Name = *****
REMARK                            x       y       z     vdW  Elec       q    Type
REMARK                         _______ _______ _______ _____ _____    ______ ____
ROOT
ATOM      1  C   LIG    1       26.442 -28.736  12.843  0.00  0.00    +0.015 C 
ATOM      2  C   LIG    1       27.769 -29.476  12.522  0.00  0.00    +0.018 C 
ATOM      3  C   LIG    1       25.888 -28.964  14.340  0.00  0.00    +0.128 C 
ATOM      4  C   LIG    1       25.242 -30.255  15.040  0.00  0.00    +0.022 C 
ATOM      5  C   LIG    1       26.300 -31.283  15.492  0.00  0.00    +0.010 C 
ATOM      6  C   LIG    1       23.785 -30.825  14.615  0.00  0.00    -0.014 C 
ATOM      7  C   LIG    1       23.352 -30.381  13.245  0.00  0.00    +0.071 C 
ATOM      8  C   LIG    1       22.756 -28.992  13.428  0.00  0.00    +0.138 C 
ATOM      9  O   LIG    1       22.459 -28.226  12.507  0.00  0.00    -0.297 OA
ATOM     10  C   LIG    1       22.308 -28.800  14.851  0.00  0.00    +0.075 C 
ATOM     11  C   LIG    1       24.168 -31.062  12.122  0.00  0.00    +0.018 C 
ATOM     12  C   LIG    1       25.500 -31.810  12.400  0.00  0.00    +0.016 C 
ATOM     13  C   LIG    1       23.290 -32.335  11.834  0.00  0.00    -0.004 C 
ATOM     14  C   LIG    1       22.070 -32.100  10.939  0.00  0.00    +0.008 C 
ATOM     15  C   LIG    1       22.888 -32.988  13.255  0.00  0.00    +0.004 C 
ATOM     16  C   LIG    1       24.520 -29.975  11.097  0.00  0.00    +0.184 C 
ATOM     17  C   LIG    1       23.566 -32.394  14.586  0.00  0.00    +0.008 C 
ATOM     18  C   LIG    1       22.671 -30.148  15.491  0.00  0.00    +0.015 C 
ATOM     19  C   LIG    1       25.387 -28.773  11.658  0.00  0.00    +0.058 C 
ENDROOT
BRANCH   1  21
ATOM     20  C   LIG    1       26.293 -26.082  12.728  0.00  0.00    +0.004 C 
ATOM     21  C   LIG    1       26.975 -27.239  12.733  0.00  0.00    -0.025 C 
ENDBRANCH   1  21
BRANCH   3  22
ATOM     22  O   LIG    1       24.945 -27.922  14.635  0.00  0.00    -0.391 OA
ATOM     23  H   LIG    1       24.695 -27.971  15.572  0.00  0.00    +0.210 HD
ENDBRANCH   3  22
BRANCH  16  24
ATOM     24  O   LIG    1       25.124 -30.545   9.914  0.00  0.00    -0.460 OA
BRANCH  24  25
ATOM     25  C   LIG    1       24.494 -30.283   8.734  0.00  0.00    +0.317 C 
ATOM     26  O   LIG    1       23.296 -30.050   8.602  0.00  0.00    -0.250 OA
BRANCH  25  27
ATOM     27  C   LIG    1       25.415 -30.447   7.571  0.00  0.00    +0.189 C 
BRANCH  27  28
ATOM     28  S   LIG    1       24.527 -30.052   6.028  0.00  0.00    -0.146 S 
BRANCH  28  29
ATOM     29  C   LIG    1       24.559 -28.197   6.048  0.00  0.00    +0.050 C 
ATOM     30  C   LIG    1       25.470 -27.625   7.153  0.00  0.00    +0.033 C 
ATOM     31  C   LIG    1       25.998 -26.215   6.833  0.00  0.00    +0.058 C 
ATOM     32  N   LIG    1       26.659 -26.163   5.526  0.00  0.00    -0.299 NA
ATOM     33  C   LIG    1       27.775 -27.080   5.352  0.00  0.00    +0.105 C 
ATOM     34  C   LIG    1       25.551 -26.328   4.579  0.00  0.00    +0.058 C 
ATOM     35  C   LIG    1       24.567 -25.282   5.111  0.00  0.00    +0.020 C 
ATOM     36  C   LIG    1       24.855 -25.216   6.614  0.00  0.00    +0.020 C 
ATOM     37  C   LIG    1       24.950 -27.743   4.626  0.00  0.00    +0.033 C 
ENDBRANCH  28  29
ENDBRANCH  27  28
ENDBRANCH  25  27
ENDBRANCH  24  25
ENDBRANCH  16  24
TORSDOF 7
ENDMDL
MODEL 9
REMARK VINA RESULT:      -5.3      3.508      5.571
REMARK  Name = *****
REMARK                            x       y       z     vdW  Elec       q    Type
REMARK                         _______ _______ _______ _____ _____    ______ ____
ROOT
ATOM      1  C   LIG    1       23.512 -31.463  12.972  0.00  0.00    +0.015 C 
ATOM      2  C   LIG    1       24.165 -32.819  12.592  0.00  0.00    +0.018 C 
ATOM      3  C   LIG    1       22.612 -31.498  14.310  0.00  0.00    +0.128 C 
ATOM      4  C   LIG    1       21.187 -32.173  14.605  0.00  0.00    +0.022 C 
ATOM      5  C   LIG    1       21.287 -33.689  14.874  0.00  0.00    +0.010 C 
ATOM      6  C   LIG    1       19.820 -31.628  13.925  0.00  0.00    -0.014 C 
ATOM      7  C   LIG    1       20.059 -30.821  12.679  0.00  0.00    +0.071 C 
ATOM      8  C   LIG    1       20.387 -29.412  13.151  0.00  0.00    +0.138 C 
ATOM      9  O   LIG    1       20.823 -28.511  12.430  0.00  0.00    -0.297 OA
ATOM     10  C   LIG    1       19.837 -29.184  14.533  0.00  0.00    +0.075 C 
ATOM     11  C   LIG    1       20.535 -31.697  11.495  0.00  0.00    +0.018 C 
ATOM     12  C   LIG    1       21.052 -33.149  11.692  0.00  0.00    +0.016 C 
ATOM     13  C   LIG    1       19.163 -32.072  10.822  0.00  0.00    -0.004 C 
ATOM     14  C   LIG    1       18.564 -30.996   9.912  0.00  0.00    +0.008 C 
ATOM     15  C   LIG    1       18.144 -32.518  11.993  0.00  0.00    +0.004 C 
ATOM     16  C   LIG    1       21.684 -30.946  10.811  0.00  0.00    +0.184 C 
ATOM     17  C   LIG    1       18.722 -32.682  13.484  0.00  0.00    +0.008 C 
ATOM     18  C   LIG    1       19.169 -30.532  14.844  0.00  0.00    +0.015 C 
ATOM     19  C   LIG    1       22.943 -30.656  11.728  0.00  0.00    +0.058 C 
ENDROOT
BRANCH   1  21
ATOM     20  C   LIG    1       25.346 -29.558  12.679  0.00  0.00    +0.004 C 
ATOM     21  C   LIG    1       24.840 -30.643  13.288  0.00  0.00    -0.025 C 
ENDBRANCH   1  21
BRANCH   3  22
ATOM     22  O   LIG    1       22.442 -30.151  14.773  0.00  0.00    -0.391 OA
ATOM     23  H   LIG    1       23.089 -29.967  15.475  0.00  0.00    +0.210 HD
ENDBRANCH   3  22
BRANCH  16  24
ATOM     24  O   LIG    1       22.075 -31.595   9.580  0.00  0.00    -0.460 OA
BRANCH  24  25
ATOM     25  C   LIG    1       23.384 -31.464   9.223  0.00  0.00    +0.317 C 
ATOM     26  O   LIG    1       24.222 -32.362   9.242  0.00  0.00    -0.250 OA
BRANCH  25  27
ATOM     27  C   LIG    1       23.734 -30.043   8.928  0.00  0.00    +0.189 C 
BRANCH  27  28
ATOM     28  S   LIG    1       24.721 -29.962   7.396  0.00  0.00    -0.146 S 
BRANCH  28  29
ATOM     29  C   LIG    1       24.697 -28.143   7.038  0.00  0.00    +0.050 C 
ATOM     30  C   LIG    1       26.036 -27.450   7.362  0.00  0.00    +0.033 C 
ATOM     31  C   LIG    1       26.267 -26.166   6.545  0.00  0.00    +0.058 C 
ATOM     32  N   LIG    1       26.132 -26.401   5.105  0.00  0.00    -0.299 NA
ATOM     33  C   LIG    1       27.015 -27.416   4.552  0.00  0.00    +0.105 C 
ATOM     34  C   LIG    1       24.696 -26.652   4.937  0.00  0.00    +0.058 C 
ATOM     35  C   LIG    1       24.111 -25.455   5.692  0.00  0.00    +0.020 C 
ATOM     36  C   LIG    1       25.149 -25.140   6.772  0.00  0.00    +0.020 C 
ATOM     37  C   LIG    1       24.259 -27.985   5.567  0.00  0.00    +0.033 C 
ENDBRANCH  28  29
ENDBRANCH  27  28
ENDBRANCH  25  27
ENDBRANCH  24  25
ENDBRANCH  16  24
TORSDOF 7
ENDMDL
