MODEL 1
REMARK VINA RESULT:      -3.3      0.000      0.000
REMARK  Name = *****
REMARK                            x       y       z     vdW  Elec       q    Type
REMARK                         _______ _______ _______ _____ _____    ______ ____
ROOT
ATOM      1 CL   LIG    1       23.987 -12.777   3.843  0.00  0.00    -0.080 Cl
ATOM      2  C   LIG    1       24.029 -14.511   3.895  0.00  0.00    +0.085 A 
ATOM      3  C   LIG    1       25.146 -15.205   3.375  0.00  0.00    +0.188 A 
ATOM      4  C   LIG    1       25.092 -16.629   3.462  0.00  0.00    +0.143 A 
ATOM      5  C   LIG    1       23.897 -17.306   4.096  0.00  0.00    +0.103 A 
ATOM      6  N   LIG    1       23.988 -18.645   4.113  0.00  0.00    -0.191 NA
ATOM      7  S   LIG    1       25.433 -19.025   3.389  0.00  0.00    +0.117 S 
ATOM      8  C   LIG    1       22.814 -16.554   4.609  0.00  0.00    +0.032 A 
ATOM      9  N   LIG    1       26.012 -17.515   3.035  0.00  0.00    -0.187 NA
ATOM     10  C   LIG    1       22.916 -15.158   4.489  0.00  0.00    +0.026 A 
ENDROOT
BRANCH   3  11
ATOM     11  N   LIG    1       26.250 -14.602   2.752  0.00  0.00    -0.073 NA
ATOM     12  C   LIG    1       27.079 -13.948   3.487  0.00  0.00    +0.370 C 
ATOM     13  N   LIG    1       27.067 -13.680   4.836  0.00  0.00    -0.235 N 
ATOM     14  H   LIG    1       26.166 -13.585   5.281  0.00  0.00    +0.244 HD
ATOM     15  C   LIG    1       28.132 -12.762   5.213  0.00  0.00    +0.219 C 
ATOM     16  C   LIG    1       29.103 -12.908   4.033  0.00  0.00    +0.219 C 
ATOM     17  N   LIG    1       28.211 -13.364   2.987  0.00  0.00    -0.235 N 
ATOM     18  H   LIG    1       28.572 -13.768   2.133  0.00  0.00    +0.244 HD
ENDBRANCH   3  11
TORSDOF 1
ENDMDL
MODEL 2
REMARK VINA RESULT:      -2.2      1.035      1.106
REMARK  Name = *****
REMARK                            x       y       z     vdW  Elec       q    Type
REMARK                         _______ _______ _______ _____ _____    ______ ____
ROOT
ATOM      1 CL   LIG    1       23.671 -13.854   3.714  0.00  0.00    -0.080 Cl
ATOM      2  C   LIG    1       23.688 -15.579   3.901  0.00  0.00    +0.085 A 
ATOM      3  C   LIG    1       24.828 -16.320   3.512  0.00  0.00    +0.188 A 
ATOM      4  C   LIG    1       24.750 -17.732   3.703  0.00  0.00    +0.143 A 
ATOM      5  C   LIG    1       23.508 -18.349   4.305  0.00  0.00    +0.103 A 
ATOM      6  N   LIG    1       23.580 -19.683   4.430  0.00  0.00    -0.191 NA
ATOM      7  S   LIG    1       25.065 -20.129   3.837  0.00  0.00    +0.117 S 
ATOM      8  C   LIG    1       22.402 -17.552   4.685  0.00  0.00    +0.032 A 
ATOM      9  N   LIG    1       25.686 -18.656   3.409  0.00  0.00    -0.187 NA
ATOM     10  C   LIG    1       22.530 -16.170   4.466  0.00  0.00    +0.026 A 
ENDROOT
BRANCH   3  11
ATOM     11  N   LIG    1       25.979 -15.775   2.921  0.00  0.00    -0.073 NA
ATOM     12  C   LIG    1       26.622 -14.868   3.568  0.00  0.00    +0.370 C 
ATOM     13  N   LIG    1       26.361 -14.272   4.780  0.00  0.00    -0.235 N 
ATOM     14  H   LIG    1       25.393 -14.168   5.045  0.00  0.00    +0.244 HD
ATOM     15  C   LIG    1       27.280 -13.177   5.051  0.00  0.00    +0.219 C 
ATOM     16  C   LIG    1       28.447 -13.507   4.110  0.00  0.00    +0.219 C 
ATOM     17  N   LIG    1       27.781 -14.308   3.104  0.00  0.00    -0.235 N 
ATOM     18  H   LIG    1       28.310 -14.871   2.451  0.00  0.00    +0.244 HD
ENDBRANCH   3  11
TORSDOF 1
ENDMDL
MODEL 3
REMARK VINA RESULT:      -2.2      2.708      5.181
REMARK  Name = *****
REMARK                            x       y       z     vdW  Elec       q    Type
REMARK                         _______ _______ _______ _____ _____    ______ ____
ROOT
ATOM      1 CL   LIG    1       22.075 -18.196   4.099  0.00  0.00    -0.080 Cl
ATOM      2  C   LIG    1       23.223 -16.896   4.032  0.00  0.00    +0.085 A 
ATOM      3  C   LIG    1       24.541 -17.142   3.582  0.00  0.00    +0.188 A 
ATOM      4  C   LIG    1       25.414 -16.013   3.561  0.00  0.00    +0.143 A 
ATOM      5  C   LIG    1       24.908 -14.653   3.987  0.00  0.00    +0.103 A 
ATOM      6  N   LIG    1       25.836 -13.687   3.909  0.00  0.00    -0.191 NA
ATOM      7  S   LIG    1       27.225 -14.416   3.363  0.00  0.00    +0.117 S 
ATOM      8  C   LIG    1       23.573 -14.469   4.418  0.00  0.00    +0.032 A 
ATOM      9  N   LIG    1       26.709 -15.980   3.188  0.00  0.00    -0.187 NA
ATOM     10  C   LIG    1       22.760 -15.615   4.427  0.00  0.00    +0.026 A 
ENDROOT
BRANCH   3  11
ATOM     11  N   LIG    1       25.045 -18.399   3.213  0.00  0.00    -0.073 NA
ATOM     12  C   LIG    1       24.982 -19.353   4.073  0.00  0.00    +0.370 C 
ATOM     13  N   LIG    1       24.525 -19.367   5.370  0.00  0.00    -0.235 N 
ATOM     14  H   LIG    1       24.627 -18.517   5.906  0.00  0.00    +0.244 HD
ATOM     15  C   LIG    1       24.793 -20.639   6.024  0.00  0.00    +0.219 C 
ATOM     16  C   LIG    1       25.000 -21.571   4.821  0.00  0.00    +0.219 C 
ATOM     17  N   LIG    1       25.399 -20.628   3.798  0.00  0.00    -0.235 N 
ATOM     18  H   LIG    1       25.400 -20.887   2.820  0.00  0.00    +0.244 HD
ENDBRANCH   3  11
TORSDOF 1
ENDMDL
MODEL 4
REMARK VINA RESULT:      -2.0      2.709      3.440
REMARK  Name = *****
REMARK                            x       y       z     vdW  Elec       q    Type
REMARK                         _______ _______ _______ _____ _____    ______ ____
ROOT
ATOM      1 CL   LIG    1       27.289 -14.930   3.655  0.00  0.00    -0.080 Cl
ATOM      2  C   LIG    1       26.045 -16.139   3.703  0.00  0.00    +0.085 A 
ATOM      3  C   LIG    1       24.734 -15.787   4.103  0.00  0.00    +0.188 A 
ATOM      4  C   LIG    1       23.779 -16.847   4.111  0.00  0.00    +0.143 A 
ATOM      5  C   LIG    1       24.188 -18.242   3.694  0.00  0.00    +0.103 A 
ATOM      6  N   LIG    1       23.185 -19.132   3.746  0.00  0.00    -0.191 NA
ATOM      7  S   LIG    1       21.850 -18.302   4.282  0.00  0.00    +0.117 S 
ATOM      8  C   LIG    1       25.515 -18.528   3.294  0.00  0.00    +0.032 A 
ATOM      9  N   LIG    1       22.478 -16.781   4.458  0.00  0.00    -0.187 NA
ATOM     10  C   LIG    1       26.415 -17.450   3.312  0.00  0.00    +0.026 A 
ENDROOT
BRANCH   3  11
ATOM     11  N   LIG    1       24.338 -14.509   4.526  0.00  0.00    -0.073 NA
ATOM     12  C   LIG    1       24.365 -13.550   3.669  0.00  0.00    +0.370 C 
ATOM     13  N   LIG    1       24.767 -13.531   2.354  0.00  0.00    -0.235 N 
ATOM     14  H   LIG    1       25.508 -14.163   2.087  0.00  0.00    +0.244 HD
ATOM     15  C   LIG    1       24.774 -12.180   1.812  0.00  0.00    +0.219 C 
ATOM     16  C   LIG    1       23.840 -11.447   2.786  0.00  0.00    +0.219 C 
ATOM     17  N   LIG    1       23.953 -12.279   3.966  0.00  0.00    -0.235 N 
ATOM     18  H   LIG    1       23.291 -12.199   4.727  0.00  0.00    +0.244 HD
ENDBRANCH   3  11
TORSDOF 1
ENDMDL
MODEL 5
REMARK VINA RESULT:      -1.9      3.193      4.319
REMARK  Name = *****
REMARK                            x       y       z     vdW  Elec       q    Type
REMARK                         _______ _______ _______ _____ _____    ______ ____
ROOT
ATOM      1 CL   LIG    1       22.577 -18.537   2.958  0.00  0.00    -0.080 Cl
ATOM      2  C   LIG    1       23.482 -19.415   4.150  0.00  0.00    +0.085 A 
ATOM      3  C   LIG    1       24.879 -19.223   4.258  0.00  0.00    +0.188 A 
ATOM      4  C   LIG    1       25.538 -19.988   5.267  0.00  0.00    +0.143 A 
ATOM      5  C   LIG    1       24.743 -20.922   6.152  0.00  0.00    +0.103 A 
ATOM      6  N   LIG    1       25.494 -21.569   7.057  0.00  0.00    -0.191 NA
ATOM      7  S   LIG    1       27.057 -21.065   6.815  0.00  0.00    +0.117 S 
ATOM      8  C   LIG    1       23.344 -21.062   6.002  0.00  0.00    +0.032 A 
ATOM      9  N   LIG    1       26.852 -19.998   5.566  0.00  0.00    -0.187 NA
ATOM     10  C   LIG    1       22.748 -20.292   4.988  0.00  0.00    +0.026 A 
ENDROOT
BRANCH   3  11
ATOM     11  N   LIG    1       25.643 -18.389   3.427  0.00  0.00    -0.073 NA
ATOM     12  C   LIG    1       25.448 -17.120   3.497  0.00  0.00    +0.370 C 
ATOM     13  N   LIG    1       24.557 -16.387   4.246  0.00  0.00    -0.235 N 
ATOM     14  H   LIG    1       23.669 -16.816   4.459  0.00  0.00    +0.244 HD
ATOM     15  C   LIG    1       24.581 -14.977   3.885  0.00  0.00    +0.219 C 
ATOM     16  C   LIG    1       25.949 -14.853   3.197  0.00  0.00    +0.219 C 
ATOM     17  N   LIG    1       26.173 -16.217   2.767  0.00  0.00    -0.235 N 
ATOM     18  H   LIG    1       27.090 -16.527   2.471  0.00  0.00    +0.244 HD
ENDBRANCH   3  11
TORSDOF 1
ENDMDL
MODEL 6
REMARK VINA RESULT:      -1.5      3.119      4.278
REMARK  Name = *****
REMARK                            x       y       z     vdW  Elec       q    Type
REMARK                         _______ _______ _______ _____ _____    ______ ____
ROOT
ATOM      1 CL   LIG    1       27.927 -19.593   5.023  0.00  0.00    -0.080 Cl
ATOM      2  C   LIG    1       26.196 -19.711   4.963  0.00  0.00    +0.085 A 
ATOM      3  C   LIG    1       25.463 -18.885   4.080  0.00  0.00    +0.188 A 
ATOM      4  C   LIG    1       24.046 -19.052   4.101  0.00  0.00    +0.143 A 
ATOM      5  C   LIG    1       23.416 -20.077   5.018  0.00  0.00    +0.103 A 
ATOM      6  N   LIG    1       22.078 -20.128   4.925  0.00  0.00    -0.191 NA
ATOM      7  S   LIG    1       21.643 -18.986   3.800  0.00  0.00    +0.117 S 
ATOM      8  C   LIG    1       24.206 -20.882   5.872  0.00  0.00    +0.032 A 
ATOM      9  N   LIG    1       23.127 -18.389   3.372  0.00  0.00    -0.187 NA
ATOM     10  C   LIG    1       25.593 -20.669   5.816  0.00  0.00    +0.026 A 
ENDROOT
BRANCH   3  11
ATOM     11  N   LIG    1       26.020 -17.904   3.245  0.00  0.00    -0.073 NA
ATOM     12  C   LIG    1       25.644 -16.685   3.406  0.00  0.00    +0.370 C 
ATOM     13  N   LIG    1       24.720 -16.134   4.263  0.00  0.00    -0.235 N 
ATOM     14  H   LIG    1       23.927 -16.705   4.517  0.00  0.00    +0.244 HD
ATOM     15  C   LIG    1       24.502 -14.722   3.987  0.00  0.00    +0.219 C 
ATOM     16  C   LIG    1       25.773 -14.356   3.206  0.00  0.00    +0.219 C 
ATOM     17  N   LIG    1       26.161 -15.647   2.678  0.00  0.00    -0.235 N 
ATOM     18  H   LIG    1       27.086 -15.798   2.296  0.00  0.00    +0.244 HD
ENDBRANCH   3  11
TORSDOF 1
ENDMDL
MODEL 7
REMARK VINA RESULT:      -1.3      4.292      6.896
REMARK  Name = *****
REMARK                            x       y       z     vdW  Elec       q    Type
REMARK                         _______ _______ _______ _____ _____    ______ ____
ROOT
ATOM      1 CL   LIG    1       27.944 -21.572   6.289  0.00  0.00    -0.080 Cl
ATOM      2  C   LIG    1       27.843 -19.989   5.585  0.00  0.00    +0.085 A 
ATOM      3  C   LIG    1       26.764 -19.663   4.731  0.00  0.00    +0.188 A 
ATOM      4  C   LIG    1       26.765 -18.339   4.200  0.00  0.00    +0.143 A 
ATOM      5  C   LIG    1       27.869 -17.373   4.571  0.00  0.00    +0.103 A 
ATOM      6  N   LIG    1       27.736 -16.164   4.003  0.00  0.00    -0.191 NA
ATOM      7  S   LIG    1       26.360 -16.232   3.075  0.00  0.00    +0.117 S 
ATOM      8  C   LIG    1       28.917 -17.755   5.441  0.00  0.00    +0.032 A 
ATOM      9  N   LIG    1       25.866 -17.786   3.363  0.00  0.00    -0.187 NA
ATOM     10  C   LIG    1       28.870 -19.073   5.927  0.00  0.00    +0.026 A 
ENDROOT
BRANCH   3  11
ATOM     11  N   LIG    1       25.747 -20.551   4.345  0.00  0.00    -0.073 NA
ATOM     12  C   LIG    1       24.781 -20.762   5.168  0.00  0.00    +0.370 C 
ATOM     13  N   LIG    1       24.563 -20.286   6.440  0.00  0.00    -0.235 N 
ATOM     14  H   LIG    1       25.375 -20.095   7.008  0.00  0.00    +0.244 HD
ATOM     15  C   LIG    1       23.410 -20.919   7.062  0.00  0.00    +0.219 C 
ATOM     16  C   LIG    1       22.648 -21.453   5.839  0.00  0.00    +0.219 C 
ATOM     17  N   LIG    1       23.718 -21.570   4.870  0.00  0.00    -0.235 N 
ATOM     18  H   LIG    1       23.519 -21.688   3.885  0.00  0.00    +0.244 HD
ENDBRANCH   3  11
TORSDOF 1
ENDMDL
MODEL 8
REMARK VINA RESULT:      -1.3      3.880      4.798
REMARK  Name = *****
REMARK                            x       y       z     vdW  Elec       q    Type
REMARK                         _______ _______ _______ _____ _____    ______ ____
ROOT
ATOM      1 CL   LIG    1       25.620 -16.096   3.323  0.00  0.00    -0.080 Cl
ATOM      2  C   LIG    1       24.523 -17.353   3.798  0.00  0.00    +0.085 A 
ATOM      3  C   LIG    1       25.009 -18.658   4.046  0.00  0.00    +0.188 A 
ATOM      4  C   LIG    1       24.033 -19.625   4.431  0.00  0.00    +0.143 A 
ATOM      5  C   LIG    1       22.581 -19.226   4.567  0.00  0.00    +0.103 A 
ATOM      6  N   LIG    1       21.780 -20.236   4.941  0.00  0.00    -0.191 NA
ATOM      7  S   LIG    1       22.755 -21.572   5.097  0.00  0.00    +0.117 S 
ATOM      8  C   LIG    1       22.157 -17.899   4.315  0.00  0.00    +0.032 A 
ATOM      9  N   LIG    1       24.231 -20.928   4.712  0.00  0.00    -0.187 NA
ATOM     10  C   LIG    1       23.158 -16.991   3.931  0.00  0.00    +0.026 A 
ENDROOT
BRANCH   3  11
ATOM     11  N   LIG    1       26.345 -19.061   3.894  0.00  0.00    -0.073 NA
ATOM     12  C   LIG    1       26.943 -19.575   4.910  0.00  0.00    +0.370 C 
ATOM     13  N   LIG    1       26.510 -19.780   6.200  0.00  0.00    -0.235 N 
ATOM     14  H   LIG    1       25.842 -19.122   6.574  0.00  0.00    +0.244 HD
ATOM     15  C   LIG    1       27.585 -20.249   7.062  0.00  0.00    +0.219 C 
ATOM     16  C   LIG    1       28.591 -20.796   6.038  0.00  0.00    +0.219 C 
ATOM     17  N   LIG    1       28.228 -20.044   4.855  0.00  0.00    -0.235 N 
ATOM     18  H   LIG    1       28.554 -20.323   3.939  0.00  0.00    +0.244 HD
ENDBRANCH   3  11
TORSDOF 1
ENDMDL
MODEL 9
REMARK VINA RESULT:      -1.3      3.078      4.035
REMARK  Name = *****
REMARK                            x       y       z     vdW  Elec       q    Type
REMARK                         _______ _______ _______ _____ _____    ______ ____
ROOT
ATOM      1 CL   LIG    1       29.262 -18.119   5.127  0.00  0.00    -0.080 Cl
ATOM      2  C   LIG    1       27.667 -18.785   4.976  0.00  0.00    +0.085 A 
ATOM      3  C   LIG    1       26.753 -18.223   4.054  0.00  0.00    +0.188 A 
ATOM      4  C   LIG    1       25.465 -18.837   3.999  0.00  0.00    +0.143 A 
ATOM      5  C   LIG    1       25.152 -20.024   4.883  0.00  0.00    +0.103 A 
ATOM      6  N   LIG    1       23.907 -20.499   4.719  0.00  0.00    -0.191 NA
ATOM      7  S   LIG    1       23.187 -19.539   3.571  0.00  0.00    +0.117 S 
ATOM      8  C   LIG    1       26.114 -20.547   5.778  0.00  0.00    +0.032 A 
ATOM      9  N   LIG    1       24.421 -18.491   3.222  0.00  0.00    -0.187 NA
ATOM     10  C   LIG    1       27.361 -19.899   5.797  0.00  0.00    +0.026 A 
ENDROOT
BRANCH   3  11
ATOM     11  N   LIG    1       27.008 -17.103   3.249  0.00  0.00    -0.073 NA
ATOM     12  C   LIG    1       26.257 -16.069   3.392  0.00  0.00    +0.370 C 
ATOM     13  N   LIG    1       25.167 -15.855   4.203  0.00  0.00    -0.235 N 
ATOM     14  H   LIG    1       24.585 -16.652   4.417  0.00  0.00    +0.244 HD
ATOM     15  C   LIG    1       24.524 -14.580   3.919  0.00  0.00    +0.219 C 
ATOM     16  C   LIG    1       25.648 -13.816   3.202  0.00  0.00    +0.219 C 
ATOM     17  N   LIG    1       26.450 -14.908   2.692  0.00  0.00    -0.235 N 
ATOM     18  H   LIG    1       27.392 -14.752   2.356  0.00  0.00    +0.244 HD
ENDBRANCH   3  11
TORSDOF 1
ENDMDL
