MODEL 1
REMARK VINA RESULT:      -9.3      0.000      0.000
REMARK  Name = *****
REMARK                            x       y       z     vdW  Elec       q    Type
REMARK                         _______ _______ _______ _____ _____    ______ ____
ROOT
ATOM      1  N   LIG    1       23.678 -22.774   5.810  0.00  0.00    -0.310 NA
ATOM      2  H   LIG    1       23.572 -23.038   4.832  0.00  0.00    +0.122 HD
ENDROOT
BRANCH   1   4
ATOM      3  C   LIG    1       22.990 -20.424   5.913  0.00  0.00    +0.024 C 
ATOM      4  C   LIG    1       24.185 -21.392   5.951  0.00  0.00    +0.055 C 
BRANCH   4   5
ATOM      5  C   LIG    1       25.031 -21.232   7.239  0.00  0.00    +0.053 C 
BRANCH   5   6
ATOM      6  C   LIG    1       26.451 -20.763   7.014  0.00  0.00    -0.042 A 
ATOM      7  C   LIG    1       27.417 -20.906   8.017  0.00  0.00    +0.053 A 
ATOM      8  C   LIG    1       28.699 -20.462   7.749  0.00  0.00    +0.167 A 
ATOM      9  O   LIG    1       29.755 -20.528   8.596  0.00  0.00    -0.453 OA
ATOM     10  C   LIG    1       30.802 -19.987   7.762  0.00  0.00    +0.466 C 
ATOM     11  O   LIG    1       30.333 -19.536   6.473  0.00  0.00    -0.453 OA
ATOM     12  C   LIG    1       29.022 -19.893   6.537  0.00  0.00    +0.166 A 
ATOM     13  C   LIG    1       28.100 -19.727   5.541  0.00  0.00    +0.050 A 
ATOM     14  C   LIG    1       26.795 -20.165   5.780  0.00  0.00    +0.007 A 
ENDBRANCH   5   6
ENDBRANCH   4   5
ENDBRANCH   1   4
BRANCH   1  15
ATOM     15  C   LIG    1       24.452 -23.798   6.551  0.00  0.00    +0.117 C 
BRANCH  15  16
ATOM     16  C   LIG    1       25.261 -24.782   5.662  0.00  0.00    +0.158 C 
BRANCH  16  17
ATOM     17  C   LIG    1       25.204 -26.229   6.117  0.00  0.00    -0.014 A 
ATOM     18  C   LIG    1       24.282 -27.118   5.536  0.00  0.00    +0.055 A 
ATOM     19  C   LIG    1       24.197 -28.426   5.997  0.00  0.00    +0.159 A 
ATOM     20  C   LIG    1       24.990 -28.869   7.048  0.00  0.00    +0.158 A 
ATOM     21  C   LIG    1       25.900 -28.010   7.647  0.00  0.00    +0.049 A 
ATOM     22  C   LIG    1       26.001 -26.695   7.181  0.00  0.00    +0.010 A 
BRANCH  19  23
ATOM     23  O   LIG    1       23.310 -29.281   5.405  0.00  0.00    -0.503 OA
ATOM     24  H   LIG    1       22.567 -29.334   6.039  0.00  0.00    +0.292 HD
ENDBRANCH  19  23
BRANCH  20  25
ATOM     25  O   LIG    1       24.836 -30.161   7.469  0.00  0.00    -0.503 OA
ATOM     26  H   LIG    1       24.368 -30.647   6.770  0.00  0.00    +0.292 HD
ENDBRANCH  20  25
ENDBRANCH  16  17
BRANCH  16  27
ATOM     27  O   LIG    1       24.797 -24.667   4.310  0.00  0.00    -0.386 OA
ATOM     28  H   LIG    1       23.920 -25.080   4.288  0.00  0.00    +0.210 HD
ENDBRANCH  16  27
ENDBRANCH  15  16
ENDBRANCH   1  15
TORSDOF 9
ENDMDL
MODEL 2
REMARK VINA RESULT:      -9.2      3.309      5.329
REMARK  Name = *****
REMARK                            x       y       z     vdW  Elec       q    Type
REMARK                         _______ _______ _______ _____ _____    ______ ____
ROOT
ATOM      1  N   LIG    1       27.915 -20.017   8.399  0.00  0.00    -0.310 NA
ATOM      2  H   LIG    1       27.754 -19.180   8.957  0.00  0.00    +0.122 HD
ENDROOT
BRANCH   1   4
ATOM      3  C   LIG    1       29.198 -20.875   6.496  0.00  0.00    +0.024 C 
ATOM      4  C   LIG    1       29.248 -20.000   7.760  0.00  0.00    +0.055 C 
BRANCH   4   5
ATOM      5  C   LIG    1       29.707 -18.552   7.455  0.00  0.00    +0.053 C 
BRANCH   5   6
ATOM      6  C   LIG    1       30.574 -17.921   8.521  0.00  0.00    -0.042 A 
ATOM      7  C   LIG    1       30.004 -17.406   9.691  0.00  0.00    +0.053 A 
ATOM      8  C   LIG    1       30.850 -16.846  10.631  0.00  0.00    +0.167 A 
ATOM      9  O   LIG    1       30.474 -16.308  11.818  0.00  0.00    -0.453 OA
ATOM     10  C   LIG    1       31.760 -15.957  12.372  0.00  0.00    +0.466 C 
ATOM     11  O   LIG    1       32.862 -16.214  11.474  0.00  0.00    -0.453 OA
ATOM     12  C   LIG    1       32.211 -16.790  10.428  0.00  0.00    +0.166 A 
ATOM     13  C   LIG    1       32.799 -17.273   9.291  0.00  0.00    +0.050 A 
ATOM     14  C   LIG    1       31.972 -17.845   8.321  0.00  0.00    +0.007 A 
ENDBRANCH   5   6
ENDBRANCH   4   5
ENDBRANCH   1   4
BRANCH   1  15
ATOM     15  C   LIG    1       26.784 -20.256   7.471  0.00  0.00    +0.117 C 
BRANCH  15  16
ATOM     16  C   LIG    1       25.511 -20.859   8.126  0.00  0.00    +0.158 C 
BRANCH  16  17
ATOM     17  C   LIG    1       25.053 -22.172   7.515  0.00  0.00    -0.014 A 
ATOM     18  C   LIG    1       23.687 -22.401   7.272  0.00  0.00    +0.055 A 
ATOM     19  C   LIG    1       23.271 -23.626   6.765  0.00  0.00    +0.159 A 
ATOM     20  C   LIG    1       24.181 -24.646   6.519  0.00  0.00    +0.158 A 
ATOM     21  C   LIG    1       25.533 -24.451   6.760  0.00  0.00    +0.049 A 
ATOM     22  C   LIG    1       25.962 -23.216   7.258  0.00  0.00    +0.010 A 
BRANCH  19  23
ATOM     23  O   LIG    1       21.942 -23.823   6.516  0.00  0.00    -0.503 OA
ATOM     24  H   LIG    1       21.614 -22.942   6.244  0.00  0.00    +0.292 HD
ENDBRANCH  19  23
BRANCH  20  25
ATOM     25  O   LIG    1       23.699 -25.836   6.045  0.00  0.00    -0.503 OA
ATOM     26  H   LIG    1       24.223 -26.549   6.447  0.00  0.00    +0.292 HD
ENDBRANCH  20  25
ENDBRANCH  16  17
BRANCH  16  27
ATOM     27  O   LIG    1       25.750 -21.020   9.531  0.00  0.00    -0.386 OA
ATOM     28  H   LIG    1       25.450 -20.199   9.953  0.00  0.00    +0.210 HD
ENDBRANCH  16  27
ENDBRANCH  15  16
ENDBRANCH   1  15
TORSDOF 9
ENDMDL
MODEL 3
REMARK VINA RESULT:      -9.2      2.096      7.821
REMARK  Name = *****
REMARK                            x       y       z     vdW  Elec       q    Type
REMARK                         _______ _______ _______ _____ _____    ______ ____
ROOT
ATOM      1  N   LIG    1       26.568 -20.319   4.739  0.00  0.00    -0.310 NA
ATOM      2  H   LIG    1       26.864 -20.018   3.812  0.00  0.00    +0.122 HD
ENDROOT
BRANCH   1   4
ATOM      3  C   LIG    1       24.353 -20.681   3.755  0.00  0.00    +0.024 C 
ATOM      4  C   LIG    1       25.122 -20.093   4.950  0.00  0.00    +0.055 C 
BRANCH   4   5
ATOM      5  C   LIG    1       24.652 -20.686   6.302  0.00  0.00    +0.053 C 
BRANCH   5   6
ATOM      6  C   LIG    1       24.404 -22.178   6.291  0.00  0.00    -0.042 A 
ATOM      7  C   LIG    1       25.395 -23.062   5.851  0.00  0.00    +0.053 A 
ATOM      8  C   LIG    1       25.110 -24.415   5.868  0.00  0.00    +0.167 A 
ATOM      9  O   LIG    1       25.950 -25.409   5.487  0.00  0.00    -0.453 OA
ATOM     10  C   LIG    1       25.143 -26.569   5.782  0.00  0.00    +0.466 C 
ATOM     11  O   LIG    1       23.816 -26.243   6.250  0.00  0.00    -0.453 OA
ATOM     12  C   LIG    1       23.890 -24.885   6.301  0.00  0.00    +0.166 A 
ATOM     13  C   LIG    1       22.895 -24.048   6.725  0.00  0.00    +0.050 A 
ATOM     14  C   LIG    1       23.151 -22.675   6.719  0.00  0.00    +0.007 A 
ENDBRANCH   5   6
ENDBRANCH   4   5
ENDBRANCH   1   4
BRANCH   1  15
ATOM     15  C   LIG    1       27.446 -19.742   5.785  0.00  0.00    +0.117 C 
BRANCH  15  16
ATOM     16  C   LIG    1       28.500 -20.721   6.373  0.00  0.00    +0.158 C 
BRANCH  16  17
ATOM     17  C   LIG    1       29.538 -20.063   7.264  0.00  0.00    -0.014 A 
ATOM     18  C   LIG    1       30.488 -20.848   7.941  0.00  0.00    +0.055 A 
ATOM     19  C   LIG    1       31.400 -20.243   8.798  0.00  0.00    +0.159 A 
ATOM     20  C   LIG    1       31.372 -18.872   9.023  0.00  0.00    +0.158 A 
ATOM     21  C   LIG    1       30.438 -18.076   8.377  0.00  0.00    +0.049 A 
ATOM     22  C   LIG    1       29.525 -18.675   7.503  0.00  0.00    +0.010 A 
BRANCH  19  23
ATOM     23  O   LIG    1       32.330 -21.019   9.431  0.00  0.00    -0.503 OA
ATOM     24  H   LIG    1       33.142 -20.907   8.897  0.00  0.00    +0.292 HD
ENDBRANCH  19  23
BRANCH  20  25
ATOM     25  O   LIG    1       32.281 -18.347   9.900  0.00  0.00    -0.503 OA
ATOM     26  H   LIG    1       33.063 -18.923   9.898  0.00  0.00    +0.292 HD
ENDBRANCH  20  25
ENDBRANCH  16  17
BRANCH  16  27
ATOM     27  O   LIG    1       27.814 -21.757   7.089  0.00  0.00    -0.386 OA
ATOM     28  H   LIG    1       27.782 -21.471   8.016  0.00  0.00    +0.210 HD
ENDBRANCH  16  27
ENDBRANCH  15  16
ENDBRANCH   1  15
TORSDOF 9
ENDMDL
MODEL 4
REMARK VINA RESULT:      -9.2      1.569      8.357
REMARK  Name = *****
REMARK                            x       y       z     vdW  Elec       q    Type
REMARK                         _______ _______ _______ _____ _____    ______ ____
ROOT
ATOM      1  N   LIG    1       25.611 -21.900   5.628  0.00  0.00    -0.310 NA
ATOM      2  H   LIG    1       24.968 -21.391   5.024  0.00  0.00    +0.122 HD
ENDROOT
BRANCH   1   4
ATOM      3  C   LIG    1       23.592 -22.668   6.785  0.00  0.00    +0.024 C 
ATOM      4  C   LIG    1       24.968 -23.084   6.236  0.00  0.00    +0.055 C 
BRANCH   4   5
ATOM      5  C   LIG    1       24.868 -24.252   5.224  0.00  0.00    +0.053 C 
BRANCH   5   6
ATOM      6  C   LIG    1       25.007 -25.632   5.828  0.00  0.00    -0.042 A 
ATOM      7  C   LIG    1       24.201 -26.688   5.387  0.00  0.00    +0.053 A 
ATOM      8  C   LIG    1       24.378 -27.926   5.974  0.00  0.00    +0.167 A 
ATOM      9  O   LIG    1       23.695 -29.057   5.667  0.00  0.00    -0.453 OA
ATOM     10  C   LIG    1       24.344 -30.008   6.539  0.00  0.00    +0.466 C 
ATOM     11  O   LIG    1       25.337 -29.411   7.402  0.00  0.00    -0.453 OA
ATOM     12  C   LIG    1       25.313 -28.122   6.967  0.00  0.00    +0.166 A 
ATOM     13  C   LIG    1       26.107 -27.110   7.430  0.00  0.00    +0.050 A 
ATOM     14  C   LIG    1       25.953 -25.845   6.857  0.00  0.00    +0.007 A 
ENDBRANCH   5   6
ENDBRANCH   4   5
ENDBRANCH   1   4
BRANCH   1  15
ATOM     15  C   LIG    1       26.263 -20.983   6.593  0.00  0.00    +0.117 C 
BRANCH  15  16
ATOM     16  C   LIG    1       27.412 -21.614   7.428  0.00  0.00    +0.158 C 
BRANCH  16  17
ATOM     17  C   LIG    1       28.705 -20.819   7.414  0.00  0.00    -0.014 A 
ATOM     18  C   LIG    1       29.758 -21.168   8.279  0.00  0.00    +0.055 A 
ATOM     19  C   LIG    1       30.918 -20.402   8.301  0.00  0.00    +0.159 A 
ATOM     20  C   LIG    1       31.046 -19.273   7.501  0.00  0.00    +0.158 A 
ATOM     21  C   LIG    1       30.019 -18.900   6.647  0.00  0.00    +0.049 A 
ATOM     22  C   LIG    1       28.853 -19.673   6.609  0.00  0.00    +0.010 A 
BRANCH  19  23
ATOM     23  O   LIG    1       31.938 -20.768   9.133  0.00  0.00    -0.503 OA
ATOM     24  H   LIG    1       31.500 -20.944   9.989  0.00  0.00    +0.292 HD
ENDBRANCH  19  23
BRANCH  20  25
ATOM     25  O   LIG    1       32.203 -18.549   7.593  0.00  0.00    -0.503 OA
ATOM     26  H   LIG    1       32.945 -19.152   7.415  0.00  0.00    +0.292 HD
ENDBRANCH  20  25
ENDBRANCH  16  17
BRANCH  16  27
ATOM     27  O   LIG    1       26.954 -21.797   8.774  0.00  0.00    -0.386 OA
ATOM     28  H   LIG    1       26.335 -22.544   8.751  0.00  0.00    +0.210 HD
ENDBRANCH  16  27
ENDBRANCH  15  16
ENDBRANCH   1  15
TORSDOF 9
ENDMDL
MODEL 5
REMARK VINA RESULT:      -9.1      1.593      2.390
REMARK  Name = *****
REMARK                            x       y       z     vdW  Elec       q    Type
REMARK                         _______ _______ _______ _____ _____    ______ ____
ROOT
ATOM      1  N   LIG    1       26.178 -22.319   6.493  0.00  0.00    -0.310 NA
ATOM      2  H   LIG    1       27.045 -22.764   6.788  0.00  0.00    +0.122 HD
ENDROOT
BRANCH   1   4
ATOM      3  C   LIG    1       26.192 -20.515   8.150  0.00  0.00    +0.024 C 
ATOM      4  C   LIG    1       26.236 -20.850   6.650  0.00  0.00    +0.055 C 
BRANCH   4   5
ATOM      5  C   LIG    1       27.488 -20.260   5.952  0.00  0.00    +0.053 C 
BRANCH   5   6
ATOM      6  C   LIG    1       28.700 -20.106   6.843  0.00  0.00    -0.042 A 
ATOM      7  C   LIG    1       29.322 -18.860   6.992  0.00  0.00    +0.053 A 
ATOM      8  C   LIG    1       30.423 -18.782   7.823  0.00  0.00    +0.167 A 
ATOM      9  O   LIG    1       31.140 -17.663   8.089  0.00  0.00    -0.453 OA
ATOM     10  C   LIG    1       32.096 -18.176   9.042  0.00  0.00    +0.466 C 
ATOM     11  O   LIG    1       31.982 -19.599   9.260  0.00  0.00    -0.453 OA
ATOM     12  C   LIG    1       30.902 -19.891   8.486  0.00  0.00    +0.166 A 
ATOM     13  C   LIG    1       30.326 -21.125   8.353  0.00  0.00    +0.050 A 
ATOM     14  C   LIG    1       29.211 -21.238   7.519  0.00  0.00    +0.007 A 
ENDBRANCH   5   6
ENDBRANCH   4   5
ENDBRANCH   1   4
BRANCH   1  15
ATOM     15  C   LIG    1       25.009 -22.967   7.136  0.00  0.00    +0.117 C 
BRANCH  15  16
ATOM     16  C   LIG    1       24.208 -23.935   6.222  0.00  0.00    +0.158 C 
BRANCH  16  17
ATOM     17  C   LIG    1       24.671 -25.380   6.282  0.00  0.00    -0.014 A 
ATOM     18  C   LIG    1       23.958 -26.380   5.598  0.00  0.00    +0.055 A 
ATOM     19  C   LIG    1       24.355 -27.708   5.704  0.00  0.00    +0.159 A 
ATOM     20  C   LIG    1       25.434 -28.072   6.501  0.00  0.00    +0.158 A 
ATOM     21  C   LIG    1       26.148 -27.107   7.195  0.00  0.00    +0.049 A 
ATOM     22  C   LIG    1       25.762 -25.766   7.084  0.00  0.00    +0.010 A 
BRANCH  19  23
ATOM     23  O   LIG    1       23.663 -28.663   5.015  0.00  0.00    -0.503 OA
ATOM     24  H   LIG    1       24.350 -29.291   4.716  0.00  0.00    +0.292 HD
ENDBRANCH  19  23
BRANCH  20  25
ATOM     25  O   LIG    1       25.754 -29.399   6.580  0.00  0.00    -0.503 OA
ATOM     26  H   LIG    1       24.934 -29.893   6.749  0.00  0.00    +0.292 HD
ENDBRANCH  20  25
ENDBRANCH  16  17
BRANCH  16  27
ATOM     27  O   LIG    1       22.818 -23.843   6.563  0.00  0.00    -0.386 OA
ATOM     28  H   LIG    1       22.777 -23.379   7.414  0.00  0.00    +0.210 HD
ENDBRANCH  16  27
ENDBRANCH  15  16
ENDBRANCH   1  15
TORSDOF 9
ENDMDL
MODEL 6
REMARK VINA RESULT:      -9.1      1.771      2.414
REMARK  Name = *****
REMARK                            x       y       z     vdW  Elec       q    Type
REMARK                         _______ _______ _______ _____ _____    ______ ____
ROOT
ATOM      1  N   LIG    1       24.429 -21.747   4.621  0.00  0.00    -0.310 NA
ATOM      2  H   LIG    1       24.789 -22.688   4.764  0.00  0.00    +0.122 HD
ENDROOT
BRANCH   1   4
ATOM      3  C   LIG    1       25.103 -19.527   3.831  0.00  0.00    +0.024 C 
ATOM      4  C   LIG    1       25.502 -20.733   4.698  0.00  0.00    +0.055 C 
BRANCH   4   5
ATOM      5  C   LIG    1       25.793 -20.332   6.166  0.00  0.00    +0.053 C 
BRANCH   5   6
ATOM      6  C   LIG    1       27.259 -20.254   6.527  0.00  0.00    -0.042 A 
ATOM      7  C   LIG    1       27.765 -20.974   7.615  0.00  0.00    +0.053 A 
ATOM      8  C   LIG    1       29.115 -20.866   7.892  0.00  0.00    +0.167 A 
ATOM      9  O   LIG    1       29.773 -21.494   8.897  0.00  0.00    -0.453 OA
ATOM     10  C   LIG    1       31.126 -21.056   8.647  0.00  0.00    +0.466 C 
ATOM     11  O   LIG    1       31.233 -20.115   7.557  0.00  0.00    -0.453 OA
ATOM     12  C   LIG    1       29.943 -20.074   7.127  0.00  0.00    +0.166 A 
ATOM     13  C   LIG    1       29.479 -19.348   6.064  0.00  0.00    +0.050 A 
ATOM     14  C   LIG    1       28.118 -19.435   5.759  0.00  0.00    +0.007 A 
ENDBRANCH   5   6
ENDBRANCH   4   5
ENDBRANCH   1   4
BRANCH   1  15
ATOM     15  C   LIG    1       23.265 -21.488   5.503  0.00  0.00    +0.117 C 
BRANCH  15  16
ATOM     16  C   LIG    1       23.070 -22.515   6.652  0.00  0.00    +0.158 C 
BRANCH  16  17
ATOM     17  C   LIG    1       23.993 -23.718   6.580  0.00  0.00    -0.014 A 
ATOM     18  C   LIG    1       23.503 -24.959   6.135  0.00  0.00    +0.055 A 
ATOM     19  C   LIG    1       24.339 -26.069   6.126  0.00  0.00    +0.159 A 
ATOM     20  C   LIG    1       25.650 -25.983   6.578  0.00  0.00    +0.158 A 
ATOM     21  C   LIG    1       26.155 -24.774   7.033  0.00  0.00    +0.049 A 
ATOM     22  C   LIG    1       25.324 -23.649   7.034  0.00  0.00    +0.010 A 
BRANCH  19  23
ATOM     23  O   LIG    1       23.852 -27.262   5.670  0.00  0.00    -0.503 OA
ATOM     24  H   LIG    1       23.568 -27.072   4.753  0.00  0.00    +0.292 HD
ENDBRANCH  19  23
BRANCH  20  25
ATOM     25  O   LIG    1       26.409 -27.121   6.566  0.00  0.00    -0.503 OA
ATOM     26  H   LIG    1       26.778 -27.240   7.457  0.00  0.00    +0.292 HD
ENDBRANCH  20  25
ENDBRANCH  16  17
BRANCH  16  27
ATOM     27  O   LIG    1       23.231 -21.837   7.905  0.00  0.00    -0.386 OA
ATOM     28  H   LIG    1       23.952 -22.292   8.369  0.00  0.00    +0.210 HD
ENDBRANCH  16  27
ENDBRANCH  15  16
ENDBRANCH   1  15
TORSDOF 9
ENDMDL
MODEL 7
REMARK VINA RESULT:      -9.0      1.330      8.244
REMARK  Name = *****
REMARK                            x       y       z     vdW  Elec       q    Type
REMARK                         _______ _______ _______ _____ _____    ______ ____
ROOT
ATOM      1  N   LIG    1       25.134 -22.709   5.307  0.00  0.00    -0.310 NA
ATOM      2  H   LIG    1       24.522 -22.646   4.496  0.00  0.00    +0.122 HD
ENDROOT
BRANCH   1   4
ATOM      3  C   LIG    1       23.491 -23.883   6.695  0.00  0.00    +0.024 C 
ATOM      4  C   LIG    1       24.897 -23.950   6.075  0.00  0.00    +0.055 C 
BRANCH   4   5
ATOM      5  C   LIG    1       25.091 -25.206   5.189  0.00  0.00    +0.053 C 
BRANCH   5   6
ATOM      6  C   LIG    1       25.118 -26.518   5.941  0.00  0.00    -0.042 A 
ATOM      7  C   LIG    1       24.286 -27.577   5.557  0.00  0.00    +0.053 A 
ATOM      8  C   LIG    1       24.360 -28.752   6.281  0.00  0.00    +0.167 A 
ATOM      9  O   LIG    1       23.638 -29.876   6.047  0.00  0.00    -0.453 OA
ATOM     10  C   LIG    1       24.180 -30.758   7.054  0.00  0.00    +0.466 C 
ATOM     11  O   LIG    1       25.147 -30.119   7.916  0.00  0.00    -0.453 OA
ATOM     12  C   LIG    1       25.220 -28.884   7.349  0.00  0.00    +0.166 A 
ATOM     13  C   LIG    1       26.036 -27.866   7.758  0.00  0.00    +0.050 A 
ATOM     14  C   LIG    1       25.985 -26.664   7.048  0.00  0.00    +0.007 A 
ENDBRANCH   5   6
ENDBRANCH   4   5
ENDBRANCH   1   4
BRANCH   1  15
ATOM     15  C   LIG    1       25.079 -21.463   6.108  0.00  0.00    +0.117 C 
BRANCH  15  16
ATOM     16  C   LIG    1       26.035 -20.334   5.635  0.00  0.00    +0.158 C 
BRANCH  16  17
ATOM     17  C   LIG    1       27.402 -20.353   6.295  0.00  0.00    -0.014 A 
ATOM     18  C   LIG    1       28.403 -19.458   5.876  0.00  0.00    +0.055 A 
ATOM     19  C   LIG    1       29.669 -19.519   6.447  0.00  0.00    +0.159 A 
ATOM     20  C   LIG    1       29.976 -20.474   7.409  0.00  0.00    +0.158 A 
ATOM     21  C   LIG    1       29.011 -21.376   7.832  0.00  0.00    +0.049 A 
ATOM     22  C   LIG    1       27.730 -21.313   7.272  0.00  0.00    +0.010 A 
BRANCH  19  23
ATOM     23  O   LIG    1       30.622 -18.628   6.042  0.00  0.00    -0.503 OA
ATOM     24  H   LIG    1       30.139 -18.005   5.463  0.00  0.00    +0.292 HD
ENDBRANCH  19  23
BRANCH  20  25
ATOM     25  O   LIG    1       31.249 -20.495   7.908  0.00  0.00    -0.503 OA
ATOM     26  H   LIG    1       31.527 -19.575   8.051  0.00  0.00    +0.292 HD
ENDBRANCH  20  25
ENDBRANCH  16  17
BRANCH  16  27
ATOM     27  O   LIG    1       26.169 -20.413   4.209  0.00  0.00    -0.386 OA
ATOM     28  H   LIG    1       25.285 -20.612   3.864  0.00  0.00    +0.210 HD
ENDBRANCH  16  27
ENDBRANCH  15  16
ENDBRANCH   1  15
TORSDOF 9
ENDMDL
MODEL 8
REMARK VINA RESULT:      -8.9      1.791      7.458
REMARK  Name = *****
REMARK                            x       y       z     vdW  Elec       q    Type
REMARK                         _______ _______ _______ _____ _____    ______ ____
ROOT
ATOM      1  N   LIG    1       25.073 -20.693   5.898  0.00  0.00    -0.310 NA
ATOM      2  H   LIG    1       25.143 -20.140   5.045  0.00  0.00    +0.122 HD
ENDROOT
BRANCH   1   4
ATOM      3  C   LIG    1       22.709 -20.760   5.258  0.00  0.00    +0.024 C 
ATOM      4  C   LIG    1       23.696 -20.695   6.436  0.00  0.00    +0.055 C 
BRANCH   4   5
ATOM      5  C   LIG    1       23.487 -21.855   7.442  0.00  0.00    +0.053 C 
BRANCH   5   6
ATOM      6  C   LIG    1       24.175 -23.150   7.073  0.00  0.00    -0.042 A 
ATOM      7  C   LIG    1       23.462 -24.184   6.453  0.00  0.00    +0.053 A 
ATOM      8  C   LIG    1       24.147 -25.342   6.135  0.00  0.00    +0.167 A 
ATOM      9  O   LIG    1       23.621 -26.435   5.529  0.00  0.00    -0.453 OA
ATOM     10  C   LIG    1       24.796 -27.266   5.409  0.00  0.00    +0.466 C 
ATOM     11  O   LIG    1       25.972 -26.689   6.017  0.00  0.00    -0.453 OA
ATOM     12  C   LIG    1       25.488 -25.483   6.419  0.00  0.00    +0.166 A 
ATOM     13  C   LIG    1       26.210 -24.498   7.036  0.00  0.00    +0.050 A 
ATOM     14  C   LIG    1       25.547 -23.315   7.370  0.00  0.00    +0.007 A 
ENDBRANCH   5   6
ENDBRANCH   4   5
ENDBRANCH   1   4
BRANCH   1  15
ATOM     15  C   LIG    1       26.119 -20.295   6.871  0.00  0.00    +0.117 C 
BRANCH  15  16
ATOM     16  C   LIG    1       27.441 -19.776   6.240  0.00  0.00    +0.158 C 
BRANCH  16  17
ATOM     17  C   LIG    1       28.676 -20.015   7.090  0.00  0.00    -0.014 A 
ATOM     18  C   LIG    1       29.705 -19.057   7.126  0.00  0.00    +0.055 A 
ATOM     19  C   LIG    1       30.858 -19.308   7.862  0.00  0.00    +0.159 A 
ATOM     20  C   LIG    1       31.026 -20.507   8.544  0.00  0.00    +0.158 A 
ATOM     21  C   LIG    1       30.031 -21.473   8.516  0.00  0.00    +0.049 A 
ATOM     22  C   LIG    1       28.863 -21.224   7.788  0.00  0.00    +0.010 A 
BRANCH  19  23
ATOM     23  O   LIG    1       31.838 -18.357   7.903  0.00  0.00    -0.503 OA
ATOM     24  H   LIG    1       31.382 -17.553   8.223  0.00  0.00    +0.292 HD
ENDBRANCH  19  23
BRANCH  20  25
ATOM     25  O   LIG    1       32.196 -20.699   9.226  0.00  0.00    -0.503 OA
ATOM     26  H   LIG    1       32.920 -20.357   8.675  0.00  0.00    +0.292 HD
ENDBRANCH  20  25
ENDBRANCH  16  17
BRANCH  16  27
ATOM     27  O   LIG    1       27.601 -20.378   4.949  0.00  0.00    -0.386 OA
ATOM     28  H   LIG    1       26.813 -20.925   4.805  0.00  0.00    +0.210 HD
ENDBRANCH  16  27
ENDBRANCH  15  16
ENDBRANCH   1  15
TORSDOF 9
ENDMDL
MODEL 9
REMARK VINA RESULT:      -8.8      0.794      1.494
REMARK  Name = *****
REMARK                            x       y       z     vdW  Elec       q    Type
REMARK                         _______ _______ _______ _____ _____    ______ ____
ROOT
ATOM      1  N   LIG    1       24.138 -22.677   5.685  0.00  0.00    -0.310 NA
ATOM      2  H   LIG    1       24.224 -22.811   4.680  0.00  0.00    +0.122 HD
ENDROOT
BRANCH   1   4
ATOM      3  C   LIG    1       23.125 -20.550   6.360  0.00  0.00    +0.024 C 
ATOM      4  C   LIG    1       24.447 -21.286   6.079  0.00  0.00    +0.055 C 
BRANCH   4   5
ATOM      5  C   LIG    1       25.411 -21.245   7.291  0.00  0.00    +0.053 C 
BRANCH   5   6
ATOM      6  C   LIG    1       26.734 -20.560   7.029  0.00  0.00    -0.042 A 
ATOM      7  C   LIG    1       27.656 -20.369   8.065  0.00  0.00    +0.053 A 
ATOM      8  C   LIG    1       28.849 -19.741   7.761  0.00  0.00    +0.167 A 
ATOM      9  O   LIG    1       29.854 -19.480   8.633  0.00  0.00    -0.453 OA
ATOM     10  C   LIG    1       30.830 -18.887   7.750  0.00  0.00    +0.466 C 
ATOM     11  O   LIG    1       30.356 -18.731   6.394  0.00  0.00    -0.453 OA
ATOM     12  C   LIG    1       29.129 -19.311   6.483  0.00  0.00    +0.166 A 
ATOM     13  C   LIG    1       28.246 -19.471   5.450  0.00  0.00    +0.050 A 
ATOM     14  C   LIG    1       27.030 -20.102   5.724  0.00  0.00    +0.007 A 
ENDBRANCH   5   6
ENDBRANCH   4   5
ENDBRANCH   1   4
BRANCH   1  15
ATOM     15  C   LIG    1       24.899 -23.714   6.422  0.00  0.00    +0.117 C 
BRANCH  15  16
ATOM     16  C   LIG    1       25.432 -24.884   5.550  0.00  0.00    +0.158 C 
BRANCH  16  17
ATOM     17  C   LIG    1       25.269 -26.258   6.176  0.00  0.00    -0.014 A 
ATOM     18  C   LIG    1       26.151 -26.684   7.185  0.00  0.00    +0.055 A 
ATOM     19  C   LIG    1       26.030 -27.964   7.714  0.00  0.00    +0.159 A 
ATOM     20  C   LIG    1       25.067 -28.846   7.242  0.00  0.00    +0.158 A 
ATOM     21  C   LIG    1       24.191 -28.455   6.240  0.00  0.00    +0.049 A 
ATOM     22  C   LIG    1       24.297 -27.165   5.711  0.00  0.00    +0.010 A 
BRANCH  19  23
ATOM     23  O   LIG    1       26.883 -28.353   8.709  0.00  0.00    -0.503 OA
ATOM     24  H   LIG    1       27.425 -27.558   8.886  0.00  0.00    +0.292 HD
ENDBRANCH  19  23
BRANCH  20  25
ATOM     25  O   LIG    1       25.021 -30.099   7.789  0.00  0.00    -0.503 OA
ATOM     26  H   LIG    1       24.921 -30.000   8.750  0.00  0.00    +0.292 HD
ENDBRANCH  20  25
ENDBRANCH  16  17
BRANCH  16  27
ATOM     27  O   LIG    1       24.780 -24.838   4.273  0.00  0.00    -0.386 OA
ATOM     28  H   LIG    1       23.863 -25.116   4.427  0.00  0.00    +0.210 HD
ENDBRANCH  16  27
ENDBRANCH  15  16
ENDBRANCH   1  15
TORSDOF 9
ENDMDL
