MODEL 1
REMARK VINA RESULT:       9.5      0.000      0.000
REMARK  Name = *****
REMARK                            x       y       z     vdW  Elec       q    Type
REMARK                         _______ _______ _______ _____ _____    ______ ____
ROOT
ATOM      1  C   LIG    1       22.132 -17.254   5.137  0.00  0.00    -0.008 A 
ATOM      2  C   LIG    1       22.578 -17.299   3.817  0.00  0.00    +0.008 A 
ATOM      3  C   LIG    1       23.244 -16.197   3.242  0.00  0.00    +0.009 A 
ATOM      4  C   LIG    1       23.472 -14.988   3.936  0.00  0.00    -0.017 A 
ATOM      5  C   LIG    1       22.897 -14.943   5.216  0.00  0.00    +0.009 A 
ATOM      6  C   LIG    1       22.171 -16.017   5.786  0.00  0.00    +0.008 A 
ENDROOT
BRANCH   4   7
ATOM      7  C   LIG    1       24.338 -13.892   3.344  0.00  0.00    -0.007 A 
ATOM      8  C   LIG    1       25.763 -13.877   3.219  0.00  0.00    +0.030 A 
ATOM      9  C   LIG    1       26.397 -12.706   2.700  0.00  0.00    +0.012 A 
ATOM     10  C   LIG    1       25.698 -11.567   2.315  0.00  0.00    +0.001 A 
ATOM     11  C   LIG    1       24.323 -11.571   2.405  0.00  0.00    +0.001 A 
ATOM     12  C   LIG    1       23.665 -12.711   2.890  0.00  0.00    +0.009 A 
BRANCH   8  13
ATOM     13  C   LIG    1       26.710 -14.931   3.629  0.00  0.00    +0.205 A 
ATOM     14  N   LIG    1       27.847 -14.789   4.322  0.00  0.00    -0.133 NA
ATOM     15  N   LIG    1       28.313 -16.036   4.334  0.00  0.00    -0.176 N 
ATOM     16  H   LIG    1       29.209 -16.269   4.752  0.00  0.00    +0.214 HD
ATOM     17  N   LIG    1       27.550 -16.950   3.735  0.00  0.00    -0.049 NA
ATOM     18  N   LIG    1       26.518 -16.260   3.277  0.00  0.00    -0.108 NA
ENDBRANCH   8  13
ENDBRANCH   4   7
BRANCH   1  19
ATOM     19  C   LIG    1       21.817 -18.521   5.894  0.00  0.00    +0.270 C 
BRANCH  19  21
ATOM     20  C   LIG    1       22.557 -20.848   5.129  0.00  0.00    +0.292 C 
ATOM     21  N   LIG    1       22.727 -19.655   5.678  0.00  0.00    -0.153 N 
ATOM     22  C   LIG    1       24.068 -19.513   6.039  0.00  0.00    +0.356 C 
ATOM     23  O   LIG    1       24.613 -18.583   6.546  0.00  0.00    -0.242 OA
ATOM     24  C   LIG    1       24.736 -20.838   5.673  0.00  0.00    +0.249 C 
ATOM     25  C   LIG    1       25.319 -21.572   6.886  0.00  0.00    +0.069 C 
ATOM     26  C   LIG    1       26.842 -21.484   6.710  0.00  0.00    +0.005 C 
ATOM     27  C   LIG    1       27.072 -20.561   5.518  0.00  0.00    +0.005 C 
ATOM     28  C   LIG    1       25.852 -20.767   4.652  0.00  0.00    +0.069 C 
ATOM     29  N   LIG    1       23.646 -21.534   5.058  0.00  0.00    -0.069 NA
BRANCH  20  30
ATOM     30  C   LIG    1       21.308 -21.571   4.670  0.00  0.00    +0.128 C 
BRANCH  30  31
ATOM     31  C   LIG    1       20.406 -20.959   3.593  0.00  0.00    +0.012 C 
BRANCH  31  33
ATOM     32  C   LIG    1       19.467 -18.637   2.919  0.00  0.00    +0.004 C 
ATOM     33  C   LIG    1       19.653 -19.691   3.990  0.00  0.00    -0.003 C 
ENDBRANCH  31  33
ENDBRANCH  30  31
ENDBRANCH  20  30
ENDBRANCH  19  21
ENDBRANCH   1  19
TORSDOF 7
ENDMDL
MODEL 2
REMARK VINA RESULT:       9.8      2.324      4.875
REMARK  Name = *****
REMARK                            x       y       z     vdW  Elec       q    Type
REMARK                         _______ _______ _______ _____ _____    ______ ____
ROOT
ATOM      1  C   LIG    1       26.100 -18.222   4.151  0.00  0.00    -0.008 A 
ATOM      2  C   LIG    1       25.222 -17.225   3.726  0.00  0.00    +0.008 A 
ATOM      3  C   LIG    1       25.659 -15.891   3.587  0.00  0.00    +0.009 A 
ATOM      4  C   LIG    1       26.975 -15.476   3.892  0.00  0.00    -0.017 A 
ATOM      5  C   LIG    1       27.785 -16.487   4.435  0.00  0.00    +0.009 A 
ATOM      6  C   LIG    1       27.344 -17.817   4.639  0.00  0.00    +0.008 A 
ENDROOT
BRANCH   4   7
ATOM      7  C   LIG    1       27.452 -14.073   3.569  0.00  0.00    -0.007 A 
ATOM      8  C   LIG    1       26.651 -12.921   3.289  0.00  0.00    +0.030 A 
ATOM      9  C   LIG    1       27.302 -11.701   2.928  0.00  0.00    +0.012 A 
ATOM     10  C   LIG    1       28.683 -11.574   2.824  0.00  0.00    +0.001 A 
ATOM     11  C   LIG    1       29.473 -12.665   3.115  0.00  0.00    +0.001 A 
ATOM     12  C   LIG    1       28.870 -13.874   3.493  0.00  0.00    +0.009 A 
BRANCH   8  13
ATOM     13  C   LIG    1       25.179 -12.837   3.263  0.00  0.00    +0.205 A 
ATOM     14  N   LIG    1       24.389 -12.600   2.208  0.00  0.00    -0.133 NA
ATOM     15  N   LIG    1       23.185 -12.567   2.775  0.00  0.00    -0.176 N 
ATOM     16  H   LIG    1       22.348 -12.354   2.242  0.00  0.00    +0.214 HD
ATOM     17  N   LIG    1       23.152 -12.794   4.088  0.00  0.00    -0.049 NA
ATOM     18  N   LIG    1       24.421 -12.970   4.418  0.00  0.00    -0.108 NA
ENDBRANCH   8  13
ENDBRANCH   4   7
BRANCH   1  19
ATOM     19  C   LIG    1       25.797 -19.679   3.902  0.00  0.00    +0.270 C 
BRANCH  19  21
ATOM     20  C   LIG    1       24.218 -20.876   5.522  0.00  0.00    +0.292 C 
ATOM     21  N   LIG    1       24.523 -20.183   4.434  0.00  0.00    -0.153 N 
ATOM     22  C   LIG    1       23.345 -19.866   3.757  0.00  0.00    +0.356 C 
ATOM     23  O   LIG    1       23.202 -19.246   2.750  0.00  0.00    -0.242 OA
ATOM     24  C   LIG    1       22.219 -20.512   4.564  0.00  0.00    +0.249 C 
ATOM     25  C   LIG    1       21.443 -21.571   3.773  0.00  0.00    +0.069 C 
ATOM     26  C   LIG    1       20.058 -20.952   3.533  0.00  0.00    +0.005 C 
ATOM     27  C   LIG    1       20.151 -19.513   4.029  0.00  0.00    +0.005 C 
ATOM     28  C   LIG    1       21.178 -19.571   5.135  0.00  0.00    +0.069 C 
ATOM     29  N   LIG    1       22.950 -21.052   5.671  0.00  0.00    -0.069 NA
BRANCH  20  30
ATOM     30  C   LIG    1       25.091 -21.569   6.546  0.00  0.00    +0.128 C 
BRANCH  30  31
ATOM     31  C   LIG    1       26.384 -20.911   7.039  0.00  0.00    +0.012 C 
BRANCH  31  33
ATOM     32  C   LIG    1       28.825 -20.448   6.298  0.00  0.00    +0.004 C 
ATOM     33  C   LIG    1       27.680 -21.429   6.420  0.00  0.00    -0.003 C 
ENDBRANCH  31  33
ENDBRANCH  30  31
ENDBRANCH  20  30
ENDBRANCH  19  21
ENDBRANCH   1  19
TORSDOF 7
ENDMDL
