MODEL 1
REMARK VINA RESULT:      -2.7      0.000      0.000
REMARK  Name = *****
REMARK                            x       y       z     vdW  Elec       q    Type
REMARK                         _______ _______ _______ _____ _____    ______ ____
ROOT
ATOM      1  C   LIG    1       25.781 -15.706   2.695  0.00  0.00    +0.049 C 
ATOM      2  C   LIG    1       24.611 -15.664   3.641  0.00  0.00    +0.013 A 
ATOM      3  C   LIG    1       23.795 -16.777   3.904  0.00  0.00    +0.060 A 
ATOM      4  N   LIG    1       22.741 -16.715   4.761  0.00  0.00    -0.259 NA
ATOM      5  C   LIG    1       22.497 -15.545   5.382  0.00  0.00    +0.114 A 
ATOM      6  C   LIG    1       23.260 -14.407   5.211  0.00  0.00    +0.065 A 
ATOM      7  C   LIG    1       24.335 -14.464   4.330  0.00  0.00    +0.127 A 
ENDROOT
BRANCH   3   8
ATOM      8  C   LIG    1       24.030 -18.139   3.295  0.00  0.00    +0.167 C 
BRANCH   8   9
ATOM      9  S   LIG    1       23.524 -19.492   4.400  0.00  0.00    +0.095 S 
ATOM     10  O   LIG    1       23.085 -20.684   3.597  0.00  0.00    -0.249 OA
BRANCH   9  11
ATOM     11  C   LIG    1       25.123 -19.888   4.957  0.00  0.00    +0.198 A 
ATOM     12  N   LIG    1       26.251 -19.277   4.474  0.00  0.00    -0.331 N 
ATOM     13  H   LIG    1       26.254 -18.580   3.744  0.00  0.00    +0.168 HD
ATOM     14  C   LIG    1       27.314 -19.698   5.228  0.00  0.00    +0.067 A 
ATOM     15  C   LIG    1       26.765 -20.635   6.099  0.00  0.00    +0.090 A 
ATOM     16  C   LIG    1       27.600 -21.281   7.022  0.00  0.00    +0.030 A 
ATOM     17  C   LIG    1       28.956 -20.931   7.061  0.00  0.00    +0.002 A 
ATOM     18  C   LIG    1       29.475 -19.973   6.186  0.00  0.00    +0.002 A 
ATOM     19  C   LIG    1       28.665 -19.342   5.236  0.00  0.00    +0.028 A 
ATOM     20  N   LIG    1       25.406 -20.748   5.910  0.00  0.00    -0.220 NA
ENDBRANCH   9  11
ENDBRANCH   8   9
ENDBRANCH   3   8
BRANCH   7  21
ATOM     21  O   LIG    1       25.180 -13.414   4.068  0.00  0.00    -0.483 OA
BRANCH  21  22
ATOM     22  C   LIG    1       26.066 -12.991   5.113  0.00  0.00    +0.342 C 
BRANCH  22  23
ATOM     23  C   LIG    1       27.532 -13.195   4.735  0.00  0.00    +0.424 C 
ATOM     24  F   LIG    1       27.886 -14.495   4.870  0.00  0.00    -0.167 F 
ATOM     25  F   LIG    1       28.340 -12.476   5.553  0.00  0.00    -0.167 F 
ATOM     26  F   LIG    1       27.811 -12.829   3.466  0.00  0.00    -0.167 F 
ENDBRANCH  22  23
ENDBRANCH  21  22
ENDBRANCH   7  21
TORSDOF 6
ENDMDL
MODEL 2
REMARK VINA RESULT:      -2.4      3.904      7.704
REMARK  Name = *****
REMARK                            x       y       z     vdW  Elec       q    Type
REMARK                         _______ _______ _______ _____ _____    ______ ____
ROOT
ATOM      1  C   LIG    1       24.975 -19.310   3.249  0.00  0.00    +0.049 C 
ATOM      2  C   LIG    1       26.103 -19.422   4.239  0.00  0.00    +0.013 A 
ATOM      3  C   LIG    1       27.125 -18.464   4.350  0.00  0.00    +0.060 A 
ATOM      4  N   LIG    1       28.137 -18.587   5.252  0.00  0.00    -0.259 NA
ATOM      5  C   LIG    1       28.132 -19.658   6.067  0.00  0.00    +0.114 A 
ATOM      6  C   LIG    1       27.156 -20.634   6.054  0.00  0.00    +0.065 A 
ATOM      7  C   LIG    1       26.124 -20.516   5.129  0.00  0.00    +0.127 A 
ENDROOT
BRANCH   3   8
ATOM      8  C   LIG    1       27.178 -17.208   3.514  0.00  0.00    +0.167 C 
BRANCH   8   9
ATOM      9  S   LIG    1       27.788 -15.774   4.452  0.00  0.00    +0.095 S 
ATOM     10  O   LIG    1       29.063 -15.259   3.846  0.00  0.00    -0.249 OA
BRANCH   9  11
ATOM     11  C   LIG    1       26.559 -14.665   3.921  0.00  0.00    +0.198 A 
ATOM     12  N   LIG    1       25.594 -14.169   4.759  0.00  0.00    -0.331 N 
ATOM     13  H   LIG    1       25.495 -14.425   5.730  0.00  0.00    +0.168 HD
ATOM     14  C   LIG    1       24.894 -13.211   4.074  0.00  0.00    +0.067 A 
ATOM     15  C   LIG    1       25.436 -13.242   2.793  0.00  0.00    +0.090 A 
ATOM     16  C   LIG    1       24.930 -12.372   1.816  0.00  0.00    +0.030 A 
ATOM     17  C   LIG    1       23.917 -11.473   2.175  0.00  0.00    +0.002 A 
ATOM     18  C   LIG    1       23.405 -11.454   3.475  0.00  0.00    +0.002 A 
ATOM     19  C   LIG    1       23.874 -12.336   4.455  0.00  0.00    +0.028 A 
ATOM     20  N   LIG    1       26.462 -14.156   2.713  0.00  0.00    -0.220 NA
ENDBRANCH   9  11
ENDBRANCH   8   9
ENDBRANCH   3   8
BRANCH   7  21
ATOM     21  O   LIG    1       25.085 -21.407   5.008  0.00  0.00    -0.483 OA
BRANCH  21  22
ATOM     22  C   LIG    1       24.040 -21.354   5.988  0.00  0.00    +0.342 C 
BRANCH  22  23
ATOM     23  C   LIG    1       22.772 -20.705   5.436  0.00  0.00    +0.424 C 
ATOM     24  F   LIG    1       22.483 -19.567   6.111  0.00  0.00    -0.167 F 
ATOM     25  F   LIG    1       21.710 -21.534   5.581  0.00  0.00    -0.167 F 
ATOM     26  F   LIG    1       22.862 -20.388   4.128  0.00  0.00    -0.167 F 
ENDBRANCH  22  23
ENDBRANCH  21  22
ENDBRANCH   7  21
TORSDOF 6
ENDMDL
MODEL 3
REMARK VINA RESULT:      -2.0      3.844      6.689
REMARK  Name = *****
REMARK                            x       y       z     vdW  Elec       q    Type
REMARK                         _______ _______ _______ _____ _____    ______ ____
ROOT
ATOM      1  C   LIG    1       24.525 -20.262   2.747  0.00  0.00    +0.049 C 
ATOM      2  C   LIG    1       24.710 -20.465   4.227  0.00  0.00    +0.013 A 
ATOM      3  C   LIG    1       25.894 -20.132   4.906  0.00  0.00    +0.060 A 
ATOM      4  N   LIG    1       26.039 -20.326   6.244  0.00  0.00    -0.259 NA
ATOM      5  C   LIG    1       24.998 -20.839   6.927  0.00  0.00    +0.114 A 
ATOM      6  C   LIG    1       23.786 -21.167   6.353  0.00  0.00    +0.065 A 
ATOM      7  C   LIG    1       23.635 -20.977   4.984  0.00  0.00    +0.127 A 
ENDROOT
BRANCH   3   8
ATOM      8  C   LIG    1       27.088 -19.503   4.229  0.00  0.00    +0.167 C 
BRANCH   8   9
ATOM      9  S   LIG    1       27.992 -18.369   5.326  0.00  0.00    +0.095 S 
ATOM     10  O   LIG    1       29.474 -18.535   5.142  0.00  0.00    -0.249 OA
BRANCH   9  11
ATOM     11  C   LIG    1       27.592 -16.913   4.463  0.00  0.00    +0.198 A 
ATOM     12  N   LIG    1       26.490 -16.808   3.655  0.00  0.00    -0.331 N 
ATOM     13  H   LIG    1       25.843 -17.561   3.470  0.00  0.00    +0.168 HD
ATOM     14  C   LIG    1       26.380 -15.500   3.261  0.00  0.00    +0.067 A 
ATOM     15  C   LIG    1       27.506 -14.885   3.801  0.00  0.00    +0.090 A 
ATOM     16  C   LIG    1       27.711 -13.517   3.575  0.00  0.00    +0.030 A 
ATOM     17  C   LIG    1       26.751 -12.805   2.843  0.00  0.00    +0.002 A 
ATOM     18  C   LIG    1       25.621 -13.446   2.329  0.00  0.00    +0.002 A 
ATOM     19  C   LIG    1       25.416 -14.818   2.516  0.00  0.00    +0.028 A 
ATOM     20  N   LIG    1       28.253 -15.779   4.535  0.00  0.00    -0.220 NA
ENDBRANCH   9  11
ENDBRANCH   8   9
ENDBRANCH   3   8
BRANCH   7  21
ATOM     21  O   LIG    1       22.486 -21.254   4.284  0.00  0.00    -0.483 OA
BRANCH  21  22
ATOM     22  C   LIG    1       21.332 -20.444   4.544  0.00  0.00    +0.342 C 
BRANCH  22  23
ATOM     23  C   LIG    1       21.568 -18.980   4.178  0.00  0.00    +0.424 C 
ATOM     24  F   LIG    1       21.971 -18.273   5.260  0.00  0.00    -0.167 F 
ATOM     25  F   LIG    1       20.421 -18.409   3.735  0.00  0.00    -0.167 F 
ATOM     26  F   LIG    1       22.500 -18.814   3.216  0.00  0.00    -0.167 F 
ENDBRANCH  22  23
ENDBRANCH  21  22
ENDBRANCH   7  21
TORSDOF 6
ENDMDL
MODEL 4
REMARK VINA RESULT:      -1.6      3.023      4.438
REMARK  Name = *****
REMARK                            x       y       z     vdW  Elec       q    Type
REMARK                         _______ _______ _______ _____ _____    ______ ____
ROOT
ATOM      1  C   LIG    1       25.331 -15.824   3.370  0.00  0.00    +0.049 C 
ATOM      2  C   LIG    1       26.546 -14.942   3.480  0.00  0.00    +0.013 A 
ATOM      3  C   LIG    1       27.626 -15.225   4.333  0.00  0.00    +0.060 A 
ATOM      4  N   LIG    1       28.713 -14.412   4.418  0.00  0.00    -0.259 NA
ATOM      5  C   LIG    1       28.746 -13.314   3.639  0.00  0.00    +0.114 A 
ATOM      6  C   LIG    1       27.749 -12.971   2.748  0.00  0.00    +0.065 A 
ATOM      7  C   LIG    1       26.632 -13.795   2.663  0.00  0.00    +0.127 A 
ENDROOT
BRANCH   3   8
ATOM      8  C   LIG    1       27.695 -16.460   5.199  0.00  0.00    +0.167 C 
BRANCH   8   9
ATOM      9  S   LIG    1       28.370 -17.896   4.310  0.00  0.00    +0.095 S 
ATOM     10  O   LIG    1       29.428 -18.571   5.137  0.00  0.00    -0.249 OA
BRANCH   9  11
ATOM     11  C   LIG    1       26.961 -18.900   4.477  0.00  0.00    +0.198 A 
ATOM     12  N   LIG    1       26.876 -19.914   5.395  0.00  0.00    -0.331 N 
ATOM     13  H   LIG    1       27.622 -20.182   6.021  0.00  0.00    +0.168 HD
ATOM     14  C   LIG    1       25.592 -20.393   5.376  0.00  0.00    +0.067 A 
ATOM     15  C   LIG    1       24.975 -19.676   4.355  0.00  0.00    +0.090 A 
ATOM     16  C   LIG    1       23.629 -19.932   4.058  0.00  0.00    +0.030 A 
ATOM     17  C   LIG    1       22.938 -20.878   4.827  0.00  0.00    +0.002 A 
ATOM     18  C   LIG    1       23.580 -21.569   5.858  0.00  0.00    +0.002 A 
ATOM     19  C   LIG    1       24.931 -21.352   6.148  0.00  0.00    +0.028 A 
ATOM     20  N   LIG    1       25.842 -18.761   3.801  0.00  0.00    -0.220 NA
ENDBRANCH   9  11
ENDBRANCH   8   9
ENDBRANCH   3   8
BRANCH   7  21
ATOM     21  O   LIG    1       25.570 -13.579   1.819  0.00  0.00    -0.483 OA
BRANCH  21  22
ATOM     22  C   LIG    1       24.814 -12.373   1.990  0.00  0.00    +0.342 C 
BRANCH  22  23
ATOM     23  C   LIG    1       23.978 -12.399   3.269  0.00  0.00    +0.424 C 
ATOM     24  F   LIG    1       24.763 -12.222   4.359  0.00  0.00    -0.167 F 
ATOM     25  F   LIG    1       23.363 -13.598   3.412  0.00  0.00    -0.167 F 
ATOM     26  F   LIG    1       23.022 -11.447   3.299  0.00  0.00    -0.167 F 
ENDBRANCH  22  23
ENDBRANCH  21  22
ENDBRANCH   7  21
TORSDOF 6
ENDMDL
MODEL 5
REMARK VINA RESULT:      -0.7      3.317      6.300
REMARK  Name = *****
REMARK                            x       y       z     vdW  Elec       q    Type
REMARK                         _______ _______ _______ _____ _____    ______ ____
ROOT
ATOM      1  C   LIG    1       25.598 -17.340   3.703  0.00  0.00    +0.049 C 
ATOM      2  C   LIG    1       24.198 -17.805   4.002  0.00  0.00    +0.013 A 
ATOM      3  C   LIG    1       23.159 -16.930   4.361  0.00  0.00    +0.060 A 
ATOM      4  N   LIG    1       21.901 -17.373   4.629  0.00  0.00    -0.259 NA
ATOM      5  C   LIG    1       21.658 -18.693   4.525  0.00  0.00    +0.114 A 
ATOM      6  C   LIG    1       22.606 -19.624   4.150  0.00  0.00    +0.065 A 
ATOM      7  C   LIG    1       23.895 -19.177   3.882  0.00  0.00    +0.127 A 
ENDROOT
BRANCH   3   8
ATOM      8  C   LIG    1       23.329 -15.432   4.448  0.00  0.00    +0.167 C 
BRANCH   8   9
ATOM      9  S   LIG    1       23.904 -14.706   2.882  0.00  0.00    +0.095 S 
ATOM     10  O   LIG    1       23.121 -13.463   2.566  0.00  0.00    -0.249 OA
BRANCH   9  11
ATOM     11  C   LIG    1       25.430 -14.134   3.489  0.00  0.00    +0.198 A 
ATOM     12  N   LIG    1       26.512 -13.905   2.680  0.00  0.00    -0.331 N 
ATOM     13  H   LIG    1       26.527 -14.076   1.685  0.00  0.00    +0.168 HD
ATOM     14  C   LIG    1       27.488 -13.314   3.438  0.00  0.00    +0.067 A 
ATOM     15  C   LIG    1       26.955 -13.294   4.724  0.00  0.00    +0.090 A 
ATOM     16  C   LIG    1       27.715 -12.751   5.770  0.00  0.00    +0.030 A 
ATOM     17  C   LIG    1       28.975 -12.211   5.476  0.00  0.00    +0.002 A 
ATOM     18  C   LIG    1       29.475 -12.229   4.171  0.00  0.00    +0.002 A 
ATOM     19  C   LIG    1       28.745 -12.796   3.120  0.00  0.00    +0.028 A 
ATOM     20  N   LIG    1       25.682 -13.816   4.739  0.00  0.00    -0.220 NA
ENDBRANCH   9  11
ENDBRANCH   8   9
ENDBRANCH   3   8
BRANCH   7  21
ATOM     21  O   LIG    1       24.933 -19.989   3.493  0.00  0.00    -0.483 OA
BRANCH  21  22
ATOM     22  C   LIG    1       25.288 -21.079   4.354  0.00  0.00    +0.342 C 
BRANCH  22  23
ATOM     23  C   LIG    1       25.902 -20.593   5.666  0.00  0.00    +0.424 C 
ATOM     24  F   LIG    1       24.951 -20.067   6.475  0.00  0.00    -0.167 F 
ATOM     25  F   LIG    1       26.812 -19.617   5.435  0.00  0.00    -0.167 F 
ATOM     26  F   LIG    1       26.525 -21.572   6.357  0.00  0.00    -0.167 F 
ENDBRANCH  22  23
ENDBRANCH  21  22
ENDBRANCH   7  21
TORSDOF 6
ENDMDL
MODEL 6
REMARK VINA RESULT:      -0.2      2.659      3.355
REMARK  Name = *****
REMARK                            x       y       z     vdW  Elec       q    Type
REMARK                         _______ _______ _______ _____ _____    ______ ____
ROOT
ATOM      1  C   LIG    1       25.679 -16.038   3.678  0.00  0.00    +0.049 C 
ATOM      2  C   LIG    1       25.019 -14.694   3.522  0.00  0.00    +0.013 A 
ATOM      3  C   LIG    1       23.830 -14.341   4.183  0.00  0.00    +0.060 A 
ATOM      4  N   LIG    1       23.250 -13.121   4.025  0.00  0.00    -0.259 NA
ATOM      5  C   LIG    1       23.857 -12.229   3.219  0.00  0.00    +0.114 A 
ATOM      6  C   LIG    1       25.041 -12.474   2.553  0.00  0.00    +0.065 A 
ATOM      7  C   LIG    1       25.635 -13.723   2.705  0.00  0.00    +0.127 A 
ENDROOT
BRANCH   3   8
ATOM      8  C   LIG    1       23.114 -15.258   5.145  0.00  0.00    +0.167 C 
BRANCH   8   9
ATOM      9  S   LIG    1       21.815 -16.240   4.334  0.00  0.00    +0.095 S 
ATOM     10  O   LIG    1       21.895 -16.077   2.842  0.00  0.00    -0.249 OA
BRANCH   9  11
ATOM     11  C   LIG    1       22.526 -17.794   4.655  0.00  0.00    +0.198 A 
ATOM     12  N   LIG    1       23.406 -18.400   3.797  0.00  0.00    -0.331 N 
ATOM     13  H   LIG    1       23.689 -18.019   2.906  0.00  0.00    +0.168 HD
ATOM     14  C   LIG    1       23.894 -19.520   4.417  0.00  0.00    +0.067 A 
ATOM     15  C   LIG    1       23.196 -19.577   5.619  0.00  0.00    +0.090 A 
ATOM     16  C   LIG    1       23.452 -20.630   6.509  0.00  0.00    +0.030 A 
ATOM     17  C   LIG    1       24.434 -21.571   6.172  0.00  0.00    +0.002 A 
ATOM     18  C   LIG    1       25.132 -21.478   4.965  0.00  0.00    +0.002 A 
ATOM     19  C   LIG    1       24.867 -20.453   4.049  0.00  0.00    +0.028 A 
ATOM     20  N   LIG    1       22.344 -18.504   5.747  0.00  0.00    -0.220 NA
ENDBRANCH   9  11
ENDBRANCH   8   9
ENDBRANCH   3   8
BRANCH   7  21
ATOM     21  O   LIG    1       26.812 -14.100   2.108  0.00  0.00    -0.483 OA
BRANCH  21  22
ATOM     22  C   LIG    1       28.000 -13.375   2.453  0.00  0.00    +0.342 C 
BRANCH  22  23
ATOM     23  C   LIG    1       28.280 -13.418   3.954  0.00  0.00    +0.424 C 
ATOM     24  F   LIG    1       29.392 -12.705   4.256  0.00  0.00    -0.167 F 
ATOM     25  F   LIG    1       28.502 -14.691   4.362  0.00  0.00    -0.167 F 
ATOM     26  F   LIG    1       27.269 -12.925   4.699  0.00  0.00    -0.167 F 
ENDBRANCH  22  23
ENDBRANCH  21  22
ENDBRANCH   7  21
TORSDOF 6
ENDMDL
MODEL 7
REMARK VINA RESULT:      -0.0      3.901      7.069
REMARK  Name = *****
REMARK                            x       y       z     vdW  Elec       q    Type
REMARK                         _______ _______ _______ _____ _____    ______ ____
ROOT
ATOM      1  C   LIG    1       24.311 -19.926   3.261  0.00  0.00    +0.049 C 
ATOM      2  C   LIG    1       25.340 -19.936   4.359  0.00  0.00    +0.013 A 
ATOM      3  C   LIG    1       26.468 -19.098   4.363  0.00  0.00    +0.060 A 
ATOM      4  N   LIG    1       27.387 -19.127   5.366  0.00  0.00    -0.259 NA
ATOM      5  C   LIG    1       27.183 -19.979   6.389  0.00  0.00    +0.114 A 
ATOM      6  C   LIG    1       26.091 -20.817   6.488  0.00  0.00    +0.065 A 
ATOM      7  C   LIG    1       25.153 -20.797   5.461  0.00  0.00    +0.127 A 
ENDROOT
BRANCH   3   8
ATOM      8  C   LIG    1       26.744 -18.077   3.286  0.00  0.00    +0.167 C 
BRANCH   8   9
ATOM      9  S   LIG    1       25.376 -16.897   3.079  0.00  0.00    +0.095 S 
ATOM     10  O   LIG    1       24.387 -17.044   4.200  0.00  0.00    -0.249 OA
BRANCH   9  11
ATOM     11  C   LIG    1       26.293 -15.473   3.472  0.00  0.00    +0.198 A 
ATOM     12  N   LIG    1       26.206 -14.845   4.687  0.00  0.00    -0.331 N 
ATOM     13  H   LIG    1       25.589 -15.131   5.434  0.00  0.00    +0.168 HD
ATOM     14  C   LIG    1       27.165 -13.868   4.726  0.00  0.00    +0.067 A 
ATOM     15  C   LIG    1       27.741 -13.905   3.459  0.00  0.00    +0.090 A 
ATOM     16  C   LIG    1       28.775 -13.007   3.153  0.00  0.00    +0.030 A 
ATOM     17  C   LIG    1       29.218 -12.127   4.149  0.00  0.00    +0.002 A 
ATOM     18  C   LIG    1       28.632 -12.126   5.417  0.00  0.00    +0.002 A 
ATOM     19  C   LIG    1       27.578 -12.991   5.732  0.00  0.00    +0.028 A 
ATOM     20  N   LIG    1       27.182 -14.900   2.691  0.00  0.00    -0.220 NA
ENDBRANCH   9  11
ENDBRANCH   8   9
ENDBRANCH   3   8
BRANCH   7  21
ATOM     21  O   LIG    1       24.018 -21.571   5.432  0.00  0.00    -0.483 OA
BRANCH  21  22
ATOM     22  C   LIG    1       22.801 -20.993   5.921  0.00  0.00    +0.342 C 
BRANCH  22  23
ATOM     23  C   LIG    1       21.753 -20.851   4.819  0.00  0.00    +0.424 C 
ATOM     24  F   LIG    1       22.215 -21.352   3.649  0.00  0.00    -0.167 F 
ATOM     25  F   LIG    1       21.460 -19.545   4.604  0.00  0.00    -0.167 F 
ATOM     26  F   LIG    1       20.594 -21.483   5.101  0.00  0.00    -0.167 F 
ENDBRANCH  22  23
ENDBRANCH  21  22
ENDBRANCH   7  21
TORSDOF 6
ENDMDL
MODEL 8
REMARK VINA RESULT:       0.1      4.001      7.314
REMARK  Name = *****
REMARK                            x       y       z     vdW  Elec       q    Type
REMARK                         _______ _______ _______ _____ _____    ______ ____
ROOT
ATOM      1  C   LIG    1       23.344 -17.249   3.987  0.00  0.00    +0.049 C 
ATOM      2  C   LIG    1       24.177 -18.483   4.209  0.00  0.00    +0.013 A 
ATOM      3  C   LIG    1       25.525 -18.579   3.824  0.00  0.00    +0.060 A 
ATOM      4  N   LIG    1       26.258 -19.705   4.033  0.00  0.00    -0.259 NA
ATOM      5  C   LIG    1       25.662 -20.746   4.645  0.00  0.00    +0.114 A 
ATOM      6  C   LIG    1       24.354 -20.734   5.086  0.00  0.00    +0.065 A 
ATOM      7  C   LIG    1       23.598 -19.587   4.868  0.00  0.00    +0.127 A 
ENDROOT
BRANCH   3   8
ATOM      8  C   LIG    1       26.286 -17.444   3.183  0.00  0.00    +0.167 C 
BRANCH   8   9
ATOM      9  S   LIG    1       27.148 -16.407   4.404  0.00  0.00    +0.095 S 
ATOM     10  O   LIG    1       28.563 -16.153   3.965  0.00  0.00    -0.249 OA
BRANCH   9  11
ATOM     11  C   LIG    1       26.294 -14.937   4.039  0.00  0.00    +0.198 A 
ATOM     12  N   LIG    1       26.399 -14.297   2.832  0.00  0.00    -0.331 N 
ATOM     13  H   LIG    1       26.994 -14.599   2.075  0.00  0.00    +0.168 HD
ATOM     14  C   LIG    1       25.485 -13.276   2.816  0.00  0.00    +0.067 A 
ATOM     15  C   LIG    1       24.920 -13.304   4.088  0.00  0.00    +0.090 A 
ATOM     16  C   LIG    1       23.932 -12.365   4.417  0.00  0.00    +0.030 A 
ATOM     17  C   LIG    1       23.520 -11.451   3.438  0.00  0.00    +0.002 A 
ATOM     18  C   LIG    1       24.093 -11.459   2.164  0.00  0.00    +0.002 A 
ATOM     19  C   LIG    1       25.103 -12.367   1.826  0.00  0.00    +0.028 A 
ATOM     20  N   LIG    1       25.440 -14.335   4.837  0.00  0.00    -0.220 NA
ENDBRANCH   9  11
ENDBRANCH   8   9
ENDBRANCH   3   8
BRANCH   7  21
ATOM     21  O   LIG    1       22.290 -19.434   5.258  0.00  0.00    -0.483 OA
BRANCH  21  22
ATOM     22  C   LIG    1       21.270 -19.965   4.402  0.00  0.00    +0.342 C 
BRANCH  22  23
ATOM     23  C   LIG    1       20.591 -18.873   3.577  0.00  0.00    +0.424 C 
ATOM     24  F   LIG    1       20.446 -17.741   4.306  0.00  0.00    -0.167 F 
ATOM     25  F   LIG    1       19.350 -19.264   3.197  0.00  0.00    -0.167 F 
ATOM     26  F   LIG    1       21.273 -18.550   2.458  0.00  0.00    -0.167 F 
ENDBRANCH  22  23
ENDBRANCH  21  22
ENDBRANCH   7  21
TORSDOF 6
ENDMDL
MODEL 9
REMARK VINA RESULT:       0.1      3.785      7.486
REMARK  Name = *****
REMARK                            x       y       z     vdW  Elec       q    Type
REMARK                         _______ _______ _______ _____ _____    ______ ____
ROOT
ATOM      1  C   LIG    1       25.623 -18.891   4.522  0.00  0.00    +0.049 C 
ATOM      2  C   LIG    1       26.956 -19.196   5.152  0.00  0.00    +0.013 A 
ATOM      3  C   LIG    1       28.030 -18.289   5.155  0.00  0.00    +0.060 A 
ATOM      4  N   LIG    1       29.226 -18.588   5.729  0.00  0.00    -0.259 NA
ATOM      5  C   LIG    1       29.362 -19.788   6.324  0.00  0.00    +0.114 A 
ATOM      6  C   LIG    1       28.356 -20.730   6.398  0.00  0.00    +0.065 A 
ATOM      7  C   LIG    1       27.133 -20.433   5.807  0.00  0.00    +0.127 A 
ENDROOT
BRANCH   3   8
ATOM      8  C   LIG    1       27.946 -16.904   4.560  0.00  0.00    +0.167 C 
BRANCH   8   9
ATOM      9  S   LIG    1       27.087 -16.888   2.956  0.00  0.00    +0.095 S 
ATOM     10  O   LIG    1       25.969 -17.891   2.953  0.00  0.00    -0.249 OA
BRANCH   9  11
ATOM     11  C   LIG    1       26.310 -15.348   3.175  0.00  0.00    +0.198 A 
ATOM     12  N   LIG    1       26.178 -14.432   2.164  0.00  0.00    -0.331 N 
ATOM     13  H   LIG    1       26.542 -14.556   1.230  0.00  0.00    +0.168 HD
ATOM     14  C   LIG    1       25.386 -13.411   2.620  0.00  0.00    +0.067 A 
ATOM     15  C   LIG    1       25.146 -13.736   3.952  0.00  0.00    +0.090 A 
ATOM     16  C   LIG    1       24.358 -12.877   4.733  0.00  0.00    +0.030 A 
ATOM     17  C   LIG    1       23.808 -11.737   4.132  0.00  0.00    +0.002 A 
ATOM     18  C   LIG    1       24.052 -11.448   2.787  0.00  0.00    +0.002 A 
ATOM     19  C   LIG    1       24.862 -12.274   2.001  0.00  0.00    +0.028 A 
ATOM     20  N   LIG    1       25.734 -14.935   4.283  0.00  0.00    -0.220 NA
ENDBRANCH   9  11
ENDBRANCH   8   9
ENDBRANCH   3   8
BRANCH   7  21
ATOM     21  O   LIG    1       26.046 -21.271   5.810  0.00  0.00    -0.483 OA
BRANCH  21  22
ATOM     22  C   LIG    1       25.053 -21.077   6.826  0.00  0.00    +0.342 C 
BRANCH  22  23
ATOM     23  C   LIG    1       23.649 -20.957   6.237  0.00  0.00    +0.424 C 
ATOM     24  F   LIG    1       22.740 -21.566   7.037  0.00  0.00    -0.167 F 
ATOM     25  F   LIG    1       23.585 -21.565   5.028  0.00  0.00    -0.167 F 
ATOM     26  F   LIG    1       23.249 -19.679   6.070  0.00  0.00    -0.167 F 
ENDBRANCH  22  23
ENDBRANCH  21  22
ENDBRANCH   7  21
TORSDOF 6
ENDMDL
