MODEL 1
REMARK VINA RESULT:      -8.7      0.000      0.000
REMARK  Name = *****
REMARK                            x       y       z     vdW  Elec       q    Type
REMARK                         _______ _______ _______ _____ _____    ______ ____
ROOT
ATOM      1  C   LIG    1       30.770 -19.013   7.660  0.00  0.00    +0.157 A 
ATOM      2  C   LIG    1       30.606 -20.134   8.452  0.00  0.00    +0.161 A 
ATOM      3  N   LIG    1       29.698 -21.107   8.221  0.00  0.00    -0.218 NA
ATOM      4  C   LIG    1       28.977 -20.943   7.114  0.00  0.00    +0.235 A 
ATOM      5  N   LIG    1       29.065 -19.945   6.233  0.00  0.00    -0.218 NA
ATOM      6  C   LIG    1       29.956 -18.977   6.547  0.00  0.00    +0.161 A 
ENDROOT
BRANCH   4   7
ATOM      7  N   LIG    1       27.945 -21.845   6.883  0.00  0.00    -0.184 N 
ATOM      8  H   LIG    1       27.816 -22.014   5.891  0.00  0.00    +0.177 HD
BRANCH   7   9
ATOM      9  S   LIG    1       26.481 -21.352   7.534  0.00  0.00    +0.075 S 
ATOM     10  O   LIG    1       26.030 -20.261   6.692  0.00  0.00    -0.150 OA
ATOM     11  O   LIG    1       26.600 -21.165   8.964  0.00  0.00    -0.150 OA
BRANCH   9  12
ATOM     12  C   LIG    1       25.355 -22.695   7.233  0.00  0.00    +0.109 A 
ATOM     13  C   LIG    1       23.978 -22.449   7.191  0.00  0.00    +0.029 A 
ATOM     14  C   LIG    1       23.106 -23.469   6.809  0.00  0.00    +0.002 A 
ATOM     15  C   LIG    1       23.608 -24.729   6.478  0.00  0.00    +0.000 A 
ATOM     16  C   LIG    1       24.982 -24.974   6.534  0.00  0.00    +0.002 A 
ATOM     17  C   LIG    1       25.860 -23.957   6.905  0.00  0.00    +0.029 A 
ENDBRANCH   9  12
ENDBRANCH   7   9
ENDBRANCH   4   7
BRANCH   1  18
ATOM     18  O   LIG    1       31.687 -18.092   8.062  0.00  0.00    -0.487 OA
BRANCH  18  19
ATOM     19  C   LIG    1       31.641 -17.700   9.436  0.00  0.00    +0.257 C 
BRANCH  19  20
ATOM     20  C   LIG    1       30.385 -16.864   9.672  0.00  0.00    +0.200 C 
BRANCH  20  22
ATOM     21  C   LIG    1       31.554 -16.783  11.717  0.00  0.00    +0.194 C 
ATOM     22  O   LIG    1       30.359 -16.431  11.031  0.00  0.00    -0.380 OA
ENDBRANCH  20  22
ENDBRANCH  19  20
ENDBRANCH  18  19
ENDBRANCH   1  18
TORSDOF 7
ENDMDL
MODEL 2
REMARK VINA RESULT:      -8.7      1.787      2.181
REMARK  Name = *****
REMARK                            x       y       z     vdW  Elec       q    Type
REMARK                         _______ _______ _______ _____ _____    ______ ____
ROOT
ATOM      1  C   LIG    1       30.884 -19.013   7.742  0.00  0.00    +0.157 A 
ATOM      2  C   LIG    1       30.737 -20.144   8.522  0.00  0.00    +0.161 A 
ATOM      3  N   LIG    1       29.775 -21.076   8.345  0.00  0.00    -0.218 NA
ATOM      4  C   LIG    1       28.975 -20.859   7.302  0.00  0.00    +0.235 A 
ATOM      5  N   LIG    1       29.035 -19.845   6.436  0.00  0.00    -0.218 NA
ATOM      6  C   LIG    1       29.986 -18.920   6.698  0.00  0.00    +0.161 A 
ENDROOT
BRANCH   4   7
ATOM      7  N   LIG    1       27.893 -21.714   7.136  0.00  0.00    -0.184 N 
ATOM      8  H   LIG    1       27.616 -21.776   6.162  0.00  0.00    +0.177 HD
BRANCH   7   9
ATOM      9  S   LIG    1       26.555 -21.268   8.042  0.00  0.00    +0.075 S 
ATOM     10  O   LIG    1       26.949 -20.063   8.748  0.00  0.00    -0.150 OA
ATOM     11  O   LIG    1       26.039 -22.403   8.775  0.00  0.00    -0.150 OA
BRANCH   9  12
ATOM     12  C   LIG    1       25.332 -20.757   6.857  0.00  0.00    +0.109 A 
ATOM     13  C   LIG    1       25.716 -20.474   5.542  0.00  0.00    +0.029 A 
ATOM     14  C   LIG    1       24.741 -20.218   4.578  0.00  0.00    +0.002 A 
ATOM     15  C   LIG    1       23.390 -20.238   4.930  0.00  0.00    +0.000 A 
ATOM     16  C   LIG    1       23.011 -20.508   6.246  0.00  0.00    +0.002 A 
ATOM     17  C   LIG    1       23.979 -20.774   7.213  0.00  0.00    +0.029 A 
ENDBRANCH   9  12
ENDBRANCH   7   9
ENDBRANCH   4   7
BRANCH   1  18
ATOM     18  O   LIG    1       31.865 -18.138   8.087  0.00  0.00    -0.487 OA
BRANCH  18  19
ATOM     19  C   LIG    1       31.855 -17.663   9.436  0.00  0.00    +0.257 C 
BRANCH  19  20
ATOM     20  C   LIG    1       30.733 -16.640   9.593  0.00  0.00    +0.200 C 
BRANCH  20  22
ATOM     21  C   LIG    1       31.495 -16.684  11.823  0.00  0.00    +0.194 C 
ATOM     22  O   LIG    1       30.365 -16.554  10.968  0.00  0.00    -0.380 OA
ENDBRANCH  20  22
ENDBRANCH  19  20
ENDBRANCH  18  19
ENDBRANCH   1  18
TORSDOF 7
ENDMDL
MODEL 3
REMARK VINA RESULT:      -8.0      5.477      8.494
REMARK  Name = *****
REMARK                            x       y       z     vdW  Elec       q    Type
REMARK                         _______ _______ _______ _____ _____    ______ ____
ROOT
ATOM      1  C   LIG    1       25.488 -26.843   5.520  0.00  0.00    +0.157 A 
ATOM      2  C   LIG    1       25.859 -26.374   6.766  0.00  0.00    +0.161 A 
ATOM      3  N   LIG    1       25.917 -25.067   7.104  0.00  0.00    -0.218 NA
ATOM      4  C   LIG    1       25.531 -24.227   6.146  0.00  0.00    +0.235 A 
ATOM      5  N   LIG    1       25.099 -24.540   4.923  0.00  0.00    -0.218 NA
ATOM      6  C   LIG    1       25.113 -25.860   4.628  0.00  0.00    +0.161 A 
ENDROOT
BRANCH   4   7
ATOM      7  N   LIG    1       25.681 -22.867   6.389  0.00  0.00    -0.184 N 
ATOM      8  H   LIG    1       26.403 -22.692   7.081  0.00  0.00    +0.177 HD
BRANCH   7   9
ATOM      9  S   LIG    1       24.265 -22.129   6.900  0.00  0.00    +0.075 S 
ATOM     10  O   LIG    1       24.632 -21.352   8.068  0.00  0.00    -0.150 OA
ATOM     11  O   LIG    1       23.190 -23.094   6.978  0.00  0.00    -0.150 OA
BRANCH   9  12
ATOM     12  C   LIG    1       23.868 -20.944   5.635  0.00  0.00    +0.109 A 
ATOM     13  C   LIG    1       22.729 -20.143   5.768  0.00  0.00    +0.029 A 
ATOM     14  C   LIG    1       22.497 -19.114   4.855  0.00  0.00    +0.002 A 
ATOM     15  C   LIG    1       23.397 -18.893   3.810  0.00  0.00    +0.000 A 
ATOM     16  C   LIG    1       24.527 -19.702   3.673  0.00  0.00    +0.002 A 
ATOM     17  C   LIG    1       24.770 -20.726   4.588  0.00  0.00    +0.029 A 
ENDBRANCH   9  12
ENDBRANCH   7   9
ENDBRANCH   4   7
BRANCH   1  18
ATOM     18  O   LIG    1       25.541 -28.187   5.317  0.00  0.00    -0.487 OA
BRANCH  18  19
ATOM     19  C   LIG    1       24.293 -28.885   5.318  0.00  0.00    +0.257 C 
BRANCH  19  20
ATOM     20  C   LIG    1       24.403 -30.095   6.244  0.00  0.00    +0.200 C 
BRANCH  20  22
ATOM     21  C   LIG    1       24.970 -29.735   8.504  0.00  0.00    +0.194 C 
ATOM     22  O   LIG    1       23.924 -29.739   7.539  0.00  0.00    -0.380 OA
ENDBRANCH  20  22
ENDBRANCH  19  20
ENDBRANCH  18  19
ENDBRANCH   1  18
TORSDOF 7
ENDMDL
MODEL 4
REMARK VINA RESULT:      -8.0      5.378      8.911
REMARK  Name = *****
REMARK                            x       y       z     vdW  Elec       q    Type
REMARK                         _______ _______ _______ _____ _____    ______ ____
ROOT
ATOM      1  C   LIG    1       25.420 -26.943   5.616  0.00  0.00    +0.157 A 
ATOM      2  C   LIG    1       25.787 -26.406   6.836  0.00  0.00    +0.161 A 
ATOM      3  N   LIG    1       25.864 -25.083   7.096  0.00  0.00    -0.218 NA
ATOM      4  C   LIG    1       25.504 -24.295   6.085  0.00  0.00    +0.235 A 
ATOM      5  N   LIG    1       25.079 -24.674   4.878  0.00  0.00    -0.218 NA
ATOM      6  C   LIG    1       25.072 -26.009   4.663  0.00  0.00    +0.161 A 
ENDROOT
BRANCH   4   7
ATOM      7  N   LIG    1       25.675 -22.926   6.247  0.00  0.00    -0.184 N 
ATOM      8  H   LIG    1       26.463 -22.721   6.854  0.00  0.00    +0.177 HD
BRANCH   7   9
ATOM      9  S   LIG    1       24.317 -22.159   6.861  0.00  0.00    +0.075 S 
ATOM     10  O   LIG    1       24.741 -21.559   8.110  0.00  0.00    -0.150 OA
ATOM     11  O   LIG    1       23.177 -23.051   6.833  0.00  0.00    -0.150 OA
BRANCH   9  12
ATOM     12  C   LIG    1       24.000 -20.804   5.755  0.00  0.00    +0.109 A 
ATOM     13  C   LIG    1       24.920 -20.504   4.745  0.00  0.00    +0.029 A 
ATOM     14  C   LIG    1       24.604 -19.539   3.787  0.00  0.00    +0.002 A 
ATOM     15  C   LIG    1       23.377 -18.874   3.845  0.00  0.00    +0.000 A 
ATOM     16  C   LIG    1       22.467 -19.167   4.863  0.00  0.00    +0.002 A 
ATOM     17  C   LIG    1       22.772 -20.136   5.817  0.00  0.00    +0.029 A 
ENDBRANCH   9  12
ENDBRANCH   7   9
ENDBRANCH   4   7
BRANCH   1  18
ATOM     18  O   LIG    1       25.451 -28.298   5.495  0.00  0.00    -0.487 OA
BRANCH  18  19
ATOM     19  C   LIG    1       24.241 -28.996   5.798  0.00  0.00    +0.257 C 
BRANCH  19  20
ATOM     20  C   LIG    1       24.427 -29.769   7.102  0.00  0.00    +0.200 C 
BRANCH  20  22
ATOM     21  C   LIG    1       23.873 -31.834   6.110  0.00  0.00    +0.194 C 
ATOM     22  O   LIG    1       23.540 -30.885   7.116  0.00  0.00    -0.380 OA
ENDBRANCH  20  22
ENDBRANCH  19  20
ENDBRANCH  18  19
ENDBRANCH   1  18
TORSDOF 7
ENDMDL
MODEL 5
REMARK VINA RESULT:      -8.0      2.734      3.353
REMARK  Name = *****
REMARK                            x       y       z     vdW  Elec       q    Type
REMARK                         _______ _______ _______ _____ _____    ______ ____
ROOT
ATOM      1  C   LIG    1       29.181 -20.399   7.305  0.00  0.00    +0.157 A 
ATOM      2  C   LIG    1       28.729 -21.262   8.286  0.00  0.00    +0.161 A 
ATOM      3  N   LIG    1       27.428 -21.550   8.510  0.00  0.00    -0.218 NA
ATOM      4  C   LIG    1       26.576 -20.973   7.665  0.00  0.00    +0.235 A 
ATOM      5  N   LIG    1       26.873 -20.166   6.644  0.00  0.00    -0.218 NA
ATOM      6  C   LIG    1       28.187 -19.876   6.504  0.00  0.00    +0.161 A 
ENDROOT
BRANCH   4   7
ATOM      7  N   LIG    1       25.219 -21.133   7.915  0.00  0.00    -0.184 N 
ATOM      8  H   LIG    1       25.057 -21.546   8.828  0.00  0.00    +0.177 HD
BRANCH   7   9
ATOM      9  S   LIG    1       24.442 -22.069   6.762  0.00  0.00    +0.075 S 
ATOM     10  O   LIG    1       23.243 -22.566   7.409  0.00  0.00    -0.150 OA
ATOM     11  O   LIG    1       25.373 -22.992   6.149  0.00  0.00    -0.150 OA
BRANCH   9  12
ATOM     12  C   LIG    1       23.884 -20.924   5.522  0.00  0.00    +0.109 A 
ATOM     13  C   LIG    1       22.810 -20.071   5.798  0.00  0.00    +0.029 A 
ATOM     14  C   LIG    1       22.467 -19.074   4.885  0.00  0.00    +0.002 A 
ATOM     15  C   LIG    1       23.191 -18.935   3.699  0.00  0.00    +0.000 A 
ATOM     16  C   LIG    1       24.255 -19.796   3.420  0.00  0.00    +0.002 A 
ATOM     17  C   LIG    1       24.609 -20.789   4.333  0.00  0.00    +0.029 A 
ENDBRANCH   9  12
ENDBRANCH   7   9
ENDBRANCH   4   7
BRANCH   1  18
ATOM     18  O   LIG    1       30.519 -20.164   7.247  0.00  0.00    -0.487 OA
BRANCH  18  19
ATOM     19  C   LIG    1       31.207 -20.068   8.496  0.00  0.00    +0.257 C 
BRANCH  19  20
ATOM     20  C   LIG    1       31.688 -18.632   8.688  0.00  0.00    +0.200 C 
BRANCH  20  22
ATOM     21  C   LIG    1       30.984 -17.616  10.696  0.00  0.00    +0.194 C 
ATOM     22  O   LIG    1       31.980 -18.415  10.068  0.00  0.00    -0.380 OA
ENDBRANCH  20  22
ENDBRANCH  19  20
ENDBRANCH  18  19
ENDBRANCH   1  18
TORSDOF 7
ENDMDL
MODEL 6
REMARK VINA RESULT:      -7.8      2.919      4.180
REMARK  Name = *****
REMARK                            x       y       z     vdW  Elec       q    Type
REMARK                         _______ _______ _______ _____ _____    ______ ____
ROOT
ATOM      1  C   LIG    1       27.694 -20.397   8.048  0.00  0.00    +0.157 A 
ATOM      2  C   LIG    1       27.845 -21.535   7.279  0.00  0.00    +0.161 A 
ATOM      3  N   LIG    1       26.897 -22.486   7.128  0.00  0.00    -0.218 NA
ATOM      4  C   LIG    1       25.746 -22.229   7.745  0.00  0.00    +0.235 A 
ATOM      5  N   LIG    1       25.443 -21.151   8.472  0.00  0.00    -0.218 NA
ATOM      6  C   LIG    1       26.450 -20.261   8.628  0.00  0.00    +0.161 A 
ENDROOT
BRANCH   4   7
ATOM      7  N   LIG    1       24.774 -23.221   7.728  0.00  0.00    -0.184 N 
ATOM      8  H   LIG    1       25.149 -24.111   8.040  0.00  0.00    +0.177 HD
BRANCH   7   9
ATOM      9  S   LIG    1       24.078 -23.436   6.219  0.00  0.00    +0.075 S 
ATOM     10  O   LIG    1       22.740 -23.933   6.476  0.00  0.00    -0.150 OA
ATOM     11  O   LIG    1       24.971 -24.171   5.349  0.00  0.00    -0.150 OA
BRANCH   9  12
ATOM     12  C   LIG    1       23.868 -21.799   5.559  0.00  0.00    +0.109 A 
ATOM     13  C   LIG    1       24.643 -21.386   4.470  0.00  0.00    +0.029 A 
ATOM     14  C   LIG    1       24.377 -20.160   3.858  0.00  0.00    +0.002 A 
ATOM     15  C   LIG    1       23.346 -19.349   4.339  0.00  0.00    +0.000 A 
ATOM     16  C   LIG    1       22.583 -19.759   5.434  0.00  0.00    +0.002 A 
ATOM     17  C   LIG    1       22.837 -20.987   6.044  0.00  0.00    +0.029 A 
ENDBRANCH   9  12
ENDBRANCH   7   9
ENDBRANCH   4   7
BRANCH   1  18
ATOM     18  O   LIG    1       28.765 -19.565   8.150  0.00  0.00    -0.487 OA
BRANCH  18  19
ATOM     19  C   LIG    1       29.960 -19.974   7.480  0.00  0.00    +0.257 C 
BRANCH  19  20
ATOM     20  C   LIG    1       31.149 -19.770   8.416  0.00  0.00    +0.200 C 
BRANCH  20  22
ATOM     21  C   LIG    1       31.117 -21.995   9.194  0.00  0.00    +0.194 C 
ATOM     22  O   LIG    1       31.003 -20.622   9.551  0.00  0.00    -0.380 OA
ENDBRANCH  20  22
ENDBRANCH  19  20
ENDBRANCH  18  19
ENDBRANCH   1  18
TORSDOF 7
ENDMDL
MODEL 7
REMARK VINA RESULT:      -7.8      5.745      9.079
REMARK  Name = *****
REMARK                            x       y       z     vdW  Elec       q    Type
REMARK                         _______ _______ _______ _____ _____    ______ ____
ROOT
ATOM      1  C   LIG    1       25.356 -27.561   6.436  0.00  0.00    +0.157 A 
ATOM      2  C   LIG    1       24.225 -27.139   5.765  0.00  0.00    +0.161 A 
ATOM      3  N   LIG    1       24.062 -25.903   5.242  0.00  0.00    -0.218 NA
ATOM      4  C   LIG    1       25.117 -25.101   5.372  0.00  0.00    +0.235 A 
ATOM      5  N   LIG    1       26.287 -25.391   5.945  0.00  0.00    -0.218 NA
ATOM      6  C   LIG    1       26.368 -26.625   6.493  0.00  0.00    +0.161 A 
ENDROOT
BRANCH   4   7
ATOM      7  N   LIG    1       24.971 -23.781   4.963  0.00  0.00    -0.184 N 
ATOM      8  H   LIG    1       25.807 -23.444   4.497  0.00  0.00    +0.177 HD
BRANCH   7   9
ATOM      9  S   LIG    1       24.606 -22.737   6.223  0.00  0.00    +0.075 S 
ATOM     10  O   LIG    1       25.871 -22.458   6.874  0.00  0.00    -0.150 OA
ATOM     11  O   LIG    1       23.489 -23.243   6.991  0.00  0.00    -0.150 OA
BRANCH   9  12
ATOM     12  C   LIG    1       24.115 -21.215   5.447  0.00  0.00    +0.109 A 
ATOM     13  C   LIG    1       24.796 -20.764   4.312  0.00  0.00    +0.029 A 
ATOM     14  C   LIG    1       24.320 -19.651   3.617  0.00  0.00    +0.002 A 
ATOM     15  C   LIG    1       23.172 -18.991   4.061  0.00  0.00    +0.000 A 
ATOM     16  C   LIG    1       22.502 -19.436   5.202  0.00  0.00    +0.002 A 
ATOM     17  C   LIG    1       22.967 -20.552   5.895  0.00  0.00    +0.029 A 
ENDBRANCH   9  12
ENDBRANCH   7   9
ENDBRANCH   4   7
BRANCH   1  18
ATOM     18  O   LIG    1       25.341 -28.816   6.959  0.00  0.00    -0.487 OA
BRANCH  18  19
ATOM     19  C   LIG    1       25.181 -29.894   6.033  0.00  0.00    +0.257 C 
BRANCH  19  20
ATOM     20  C   LIG    1       24.103 -30.841   6.555  0.00  0.00    +0.200 C 
BRANCH  20  22
ATOM     21  C   LIG    1       23.759 -31.301   8.841  0.00  0.00    +0.194 C 
ATOM     22  O   LIG    1       23.606 -30.346   7.797  0.00  0.00    -0.380 OA
ENDBRANCH  20  22
ENDBRANCH  19  20
ENDBRANCH  18  19
ENDBRANCH   1  18
TORSDOF 7
ENDMDL
MODEL 8
REMARK VINA RESULT:      -7.6      2.634      7.752
REMARK  Name = *****
REMARK                            x       y       z     vdW  Elec       q    Type
REMARK                         _______ _______ _______ _____ _____    ______ ____
ROOT
ATOM      1  C   LIG    1       25.975 -20.489   6.740  0.00  0.00    +0.157 A 
ATOM      2  C   LIG    1       26.356 -20.368   8.063  0.00  0.00    +0.161 A 
ATOM      3  N   LIG    1       27.636 -20.274   8.484  0.00  0.00    -0.218 NA
ATOM      4  C   LIG    1       28.543 -20.253   7.509  0.00  0.00    +0.235 A 
ATOM      5  N   LIG    1       28.317 -20.307   6.195  0.00  0.00    -0.218 NA
ATOM      6  C   LIG    1       27.020 -20.451   5.839  0.00  0.00    +0.161 A 
ENDROOT
BRANCH   4   7
ATOM      7  N   LIG    1       29.881 -20.279   7.879  0.00  0.00    -0.184 N 
ATOM      8  H   LIG    1       29.986 -20.382   8.883  0.00  0.00    +0.177 HD
BRANCH   7   9
ATOM      9  S   LIG    1       30.727 -18.916   7.393  0.00  0.00    +0.075 S 
ATOM     10  O   LIG    1       29.765 -18.096   6.682  0.00  0.00    -0.150 OA
ATOM     11  O   LIG    1       31.971 -19.292   6.757  0.00  0.00    -0.150 OA
BRANCH   9  12
ATOM     12  C   LIG    1       31.102 -18.034   8.890  0.00  0.00    +0.109 A 
ATOM     13  C   LIG    1       32.281 -17.286   8.977  0.00  0.00    +0.029 A 
ATOM     14  C   LIG    1       32.504 -16.476  10.092  0.00  0.00    +0.002 A 
ATOM     15  C   LIG    1       31.557 -16.423  11.116  0.00  0.00    +0.000 A 
ATOM     16  C   LIG    1       30.388 -17.182  11.032  0.00  0.00    +0.002 A 
ATOM     17  C   LIG    1       30.153 -17.985   9.917  0.00  0.00    +0.029 A 
ENDBRANCH   9  12
ENDBRANCH   7   9
ENDBRANCH   4   7
BRANCH   1  18
ATOM     18  O   LIG    1       24.647 -20.636   6.482  0.00  0.00    -0.487 OA
BRANCH  18  19
ATOM     19  C   LIG    1       24.298 -21.162   5.199  0.00  0.00    +0.257 C 
BRANCH  19  20
ATOM     20  C   LIG    1       22.830 -20.851   4.918  0.00  0.00    +0.200 C 
BRANCH  20  22
ATOM     21  C   LIG    1       22.276 -18.593   4.525  0.00  0.00    +0.194 C 
ATOM     22  O   LIG    1       22.495 -19.597   5.510  0.00  0.00    -0.380 OA
ENDBRANCH  20  22
ENDBRANCH  19  20
ENDBRANCH  18  19
ENDBRANCH   1  18
TORSDOF 7
ENDMDL
MODEL 9
REMARK VINA RESULT:      -7.6      5.085      8.256
REMARK  Name = *****
REMARK                            x       y       z     vdW  Elec       q    Type
REMARK                         _______ _______ _______ _____ _____    ______ ____
ROOT
ATOM      1  C   LIG    1       25.667 -26.058   5.402  0.00  0.00    +0.157 A 
ATOM      2  C   LIG    1       24.959 -25.026   4.817  0.00  0.00    +0.161 A 
ATOM      3  N   LIG    1       24.581 -23.898   5.459  0.00  0.00    -0.218 NA
ATOM      4  C   LIG    1       24.990 -23.813   6.723  0.00  0.00    +0.235 A 
ATOM      5  N   LIG    1       25.722 -24.704   7.396  0.00  0.00    -0.218 NA
ATOM      6  C   LIG    1       26.025 -25.832   6.715  0.00  0.00    +0.161 A 
ENDROOT
BRANCH   4   7
ATOM      7  N   LIG    1       24.534 -22.736   7.472  0.00  0.00    -0.184 N 
ATOM      8  H   LIG    1       23.547 -22.565   7.310  0.00  0.00    +0.177 HD
BRANCH   7   9
ATOM      9  S   LIG    1       25.378 -21.319   7.172  0.00  0.00    +0.075 S 
ATOM     10  O   LIG    1       26.649 -21.736   6.613  0.00  0.00    -0.150 OA
ATOM     11  O   LIG    1       25.341 -20.454   8.331  0.00  0.00    -0.150 OA
BRANCH   9  12
ATOM     12  C   LIG    1       24.504 -20.522   5.845  0.00  0.00    +0.109 A 
ATOM     13  C   LIG    1       23.153 -20.194   6.003  0.00  0.00    +0.029 A 
ATOM     14  C   LIG    1       22.507 -19.438   5.023  0.00  0.00    +0.002 A 
ATOM     15  C   LIG    1       23.207 -19.020   3.890  0.00  0.00    +0.000 A 
ATOM     16  C   LIG    1       24.552 -19.361   3.730  0.00  0.00    +0.002 A 
ATOM     17  C   LIG    1       25.206 -20.107   4.708  0.00  0.00    +0.029 A 
ENDBRANCH   9  12
ENDBRANCH   7   9
ENDBRANCH   4   7
BRANCH   1  18
ATOM     18  O   LIG    1       25.918 -27.156   4.639  0.00  0.00    -0.487 OA
BRANCH  18  19
ATOM     19  C   LIG    1       25.632 -28.426   5.229  0.00  0.00    +0.257 C 
BRANCH  19  20
ATOM     20  C   LIG    1       24.119 -28.574   5.378  0.00  0.00    +0.200 C 
BRANCH  20  22
ATOM     21  C   LIG    1       24.336 -29.535   7.520  0.00  0.00    +0.194 C 
ATOM     22  O   LIG    1       23.837 -29.707   6.198  0.00  0.00    -0.380 OA
ENDBRANCH  20  22
ENDBRANCH  19  20
ENDBRANCH  18  19
ENDBRANCH   1  18
TORSDOF 7
ENDMDL
