MODEL 1
REMARK VINA RESULT:      -3.6      0.000      0.000
REMARK  Name = *****
REMARK                            x       y       z     vdW  Elec       q    Type
REMARK                         _______ _______ _______ _____ _____    ______ ____
ROOT
ATOM      1  O   LIG    1       30.692 -22.142  10.119  0.00  0.00    -0.203 OA
ATOM      2  C   LIG    1       31.591 -21.872   9.351  0.00  0.00    +0.505 C 
ENDROOT
BRANCH   2   3
ATOM      3  O   LIG    1       32.172 -20.675   9.248  0.00  0.00    -0.450 OA
ATOM      4  H   LIG    1       32.662 -20.714   8.405  0.00  0.00    +0.299 HD
ENDBRANCH   2   3
BRANCH   2   5
ATOM      5  O   LIG    1       32.140 -22.728   8.488  0.00  0.00    -0.450 OA
ATOM      6  H   LIG    1       32.374 -22.178   7.717  0.00  0.00    +0.299 HD
ENDBRANCH   2   5
TORSDOF 2
ENDMDL
MODEL 2
REMARK VINA RESULT:      -3.6      0.006      1.548
REMARK  Name = *****
REMARK                            x       y       z     vdW  Elec       q    Type
REMARK                         _______ _______ _______ _____ _____    ______ ____
ROOT
ATOM      1  O   LIG    1       30.687 -22.142  10.118  0.00  0.00    -0.203 OA
ATOM      2  C   LIG    1       31.589 -21.872   9.353  0.00  0.00    +0.505 C 
ENDROOT
BRANCH   2   3
ATOM      3  O   LIG    1       32.137 -22.727   8.489  0.00  0.00    -0.450 OA
ATOM      4  H   LIG    1       32.496 -23.442   9.049  0.00  0.00    +0.299 HD
ENDBRANCH   2   3
BRANCH   2   5
ATOM      5  O   LIG    1       32.173 -20.677   9.256  0.00  0.00    -0.450 OA
ATOM      6  H   LIG    1       33.083 -20.876   8.963  0.00  0.00    +0.299 HD
ENDBRANCH   2   5
TORSDOF 2
ENDMDL
MODEL 3
REMARK VINA RESULT:      -3.3      1.295      1.461
REMARK  Name = *****
REMARK                            x       y       z     vdW  Elec       q    Type
REMARK                         _______ _______ _______ _____ _____    ______ ____
ROOT
ATOM      1  O   LIG    1       30.000 -21.533   8.987  0.00  0.00    -0.203 OA
ATOM      2  C   LIG    1       31.145 -21.204   8.761  0.00  0.00    +0.505 C 
ENDROOT
BRANCH   2   3
ATOM      3  O   LIG    1       31.538 -20.490   7.705  0.00  0.00    -0.450 OA
ATOM      4  H   LIG    1       30.718 -20.330   7.201  0.00  0.00    +0.299 HD
ENDBRANCH   2   3
BRANCH   2   5
ATOM      5  O   LIG    1       32.190 -21.503   9.533  0.00  0.00    -0.450 OA
ATOM      6  H   LIG    1       32.292 -20.726  10.115  0.00  0.00    +0.299 HD
ENDBRANCH   2   5
TORSDOF 2
ENDMDL
MODEL 4
REMARK VINA RESULT:      -3.3      1.284      1.560
REMARK  Name = *****
REMARK                            x       y       z     vdW  Elec       q    Type
REMARK                         _______ _______ _______ _____ _____    ______ ____
ROOT
ATOM      1  O   LIG    1       30.023 -21.460   9.054  0.00  0.00    -0.203 OA
ATOM      2  C   LIG    1       31.169 -21.172   8.783  0.00  0.00    +0.505 C 
ENDROOT
BRANCH   2   3
ATOM      3  O   LIG    1       32.230 -21.486   9.527  0.00  0.00    -0.450 OA
ATOM      4  H   LIG    1       31.902 -21.453  10.446  0.00  0.00    +0.299 HD
ENDBRANCH   2   3
BRANCH   2   5
ATOM      5  O   LIG    1       31.549 -20.496   7.698  0.00  0.00    -0.450 OA
ATOM      6  H   LIG    1       31.217 -21.030   6.951  0.00  0.00    +0.299 HD
ENDBRANCH   2   5
TORSDOF 2
ENDMDL
MODEL 5
REMARK VINA RESULT:      -3.2      2.762      3.535
REMARK  Name = *****
REMARK                            x       y       z     vdW  Elec       q    Type
REMARK                         _______ _______ _______ _____ _____    ______ ____
ROOT
ATOM      1  O   LIG    1       31.499 -17.771   8.043  0.00  0.00    -0.203 OA
ATOM      2  C   LIG    1       31.709 -18.963   8.124  0.00  0.00    +0.505 C 
ENDROOT
BRANCH   2   3
ATOM      3  O   LIG    1       31.641 -19.820   7.105  0.00  0.00    -0.450 OA
ATOM      4  H   LIG    1       31.383 -20.667   7.516  0.00  0.00    +0.299 HD
ENDBRANCH   2   3
BRANCH   2   5
ATOM      5  O   LIG    1       32.041 -19.603   9.246  0.00  0.00    -0.450 OA
ATOM      6  H   LIG    1       33.002 -19.753   9.165  0.00  0.00    +0.299 HD
ENDBRANCH   2   5
TORSDOF 2
ENDMDL
MODEL 6
REMARK VINA RESULT:      -3.2      2.774      3.371
REMARK  Name = *****
REMARK                            x       y       z     vdW  Elec       q    Type
REMARK                         _______ _______ _______ _____ _____    ______ ____
ROOT
ATOM      1  O   LIG    1       31.422 -17.788   8.025  0.00  0.00    -0.203 OA
ATOM      2  C   LIG    1       31.675 -18.970   8.125  0.00  0.00    +0.505 C 
ENDROOT
BRANCH   2   3
ATOM      3  O   LIG    1       32.056 -19.575   9.250  0.00  0.00    -0.450 OA
ATOM      4  H   LIG    1       31.580 -19.098   9.957  0.00  0.00    +0.299 HD
ENDBRANCH   2   3
BRANCH   2   5
ATOM      5  O   LIG    1       31.611 -19.850   7.125  0.00  0.00    -0.450 OA
ATOM      6  H   LIG    1       32.382 -20.431   7.264  0.00  0.00    +0.299 HD
ENDBRANCH   2   5
TORSDOF 2
ENDMDL
MODEL 7
REMARK VINA RESULT:      -3.2      4.184      4.539
REMARK  Name = *****
REMARK                            x       y       z     vdW  Elec       q    Type
REMARK                         _______ _______ _______ _____ _____    ______ ____
ROOT
ATOM      1  O   LIG    1       32.265 -17.989  10.130  0.00  0.00    -0.203 OA
ATOM      2  C   LIG    1       32.211 -17.458   9.041  0.00  0.00    +0.505 C 
ENDROOT
BRANCH   2   3
ATOM      3  O   LIG    1       32.569 -16.198   8.789  0.00  0.00    -0.450 OA
ATOM      4  H   LIG    1       31.931 -15.658   9.293  0.00  0.00    +0.299 HD
ENDBRANCH   2   3
BRANCH   2   5
ATOM      5  O   LIG    1       31.785 -18.050   7.925  0.00  0.00    -0.450 OA
ATOM      6  H   LIG    1       30.983 -17.552   7.677  0.00  0.00    +0.299 HD
ENDBRANCH   2   5
TORSDOF 2
ENDMDL
MODEL 8
REMARK VINA RESULT:      -3.1      2.707      3.119
REMARK  Name = *****
REMARK                            x       y       z     vdW  Elec       q    Type
REMARK                         _______ _______ _______ _____ _____    ______ ____
ROOT
ATOM      1  O   LIG    1       32.031 -19.613   9.251  0.00  0.00    -0.203 OA
ATOM      2  C   LIG    1       31.729 -19.127   8.181  0.00  0.00    +0.505 C 
ENDROOT
BRANCH   2   3
ATOM      3  O   LIG    1       31.527 -17.827   7.965  0.00  0.00    -0.450 OA
ATOM      4  H   LIG    1       32.423 -17.441   7.949  0.00  0.00    +0.299 HD
ENDBRANCH   2   3
BRANCH   2   5
ATOM      5  O   LIG    1       31.551 -19.817   7.054  0.00  0.00    -0.450 OA
ATOM      6  H   LIG    1       32.455 -20.040   6.762  0.00  0.00    +0.299 HD
ENDBRANCH   2   5
TORSDOF 2
ENDMDL
MODEL 9
REMARK VINA RESULT:      -2.8      5.887      6.600
REMARK  Name = *****
REMARK                            x       y       z     vdW  Elec       q    Type
REMARK                         _______ _______ _______ _____ _____    ______ ____
ROOT
ATOM      1  O   LIG    1       32.570 -16.859  11.716  0.00  0.00    -0.203 OA
ATOM      2  C   LIG    1       31.568 -16.249  12.023  0.00  0.00    +0.505 C 
ENDROOT
BRANCH   2   3
ATOM      3  O   LIG    1       30.404 -16.319  11.376  0.00  0.00    -0.450 OA
ATOM      4  H   LIG    1       30.016 -15.428  11.475  0.00  0.00    +0.299 HD
ENDBRANCH   2   3
BRANCH   2   5
ATOM      5  O   LIG    1       31.472 -15.412  13.057  0.00  0.00    -0.450 OA
ATOM      6  H   LIG    1       30.514 -15.346  13.228  0.00  0.00    +0.299 HD
ENDBRANCH   2   5
TORSDOF 2
ENDMDL
