MODEL 1
REMARK VINA RESULT:      -3.4      0.000      0.000
REMARK  Name = *****
REMARK                            x       y       z     vdW  Elec       q    Type
REMARK                         _______ _______ _______ _____ _____    ______ ____
ROOT
ATOM      1  C   LIG    1       25.513 -18.897   4.545  0.00  0.00    +0.165 C 
ATOM      2  C   LIG    1       26.518 -19.550   5.464  0.00  0.00    +0.013 A 
ATOM      3  C   LIG    1       26.293 -20.871   5.869  0.00  0.00    +0.133 A 
ATOM      4  C   LIG    1       27.274 -21.571   6.566  0.00  0.00    +0.046 A 
ATOM      5  C   LIG    1       28.460 -20.931   6.925  0.00  0.00    +0.004 A 
ATOM      6  C   LIG    1       28.657 -19.589   6.597  0.00  0.00    +0.001 A 
ATOM      7  O   LIG    1       25.116 -21.537   5.609  0.00  0.00    -0.455 OA
ATOM      8  C   LIG    1       24.020 -20.776   5.264  0.00  0.00    +0.133 A 
ATOM      9  C   LIG    1       22.766 -21.365   5.421  0.00  0.00    +0.046 A 
ATOM     10  C   LIG    1       21.619 -20.659   5.060  0.00  0.00    +0.004 A 
ATOM     11  C   LIG    1       21.724 -19.373   4.530  0.00  0.00    +0.001 A 
ATOM     12  C   LIG    1       22.979 -18.781   4.372  0.00  0.00    +0.008 A 
ATOM     13  C   LIG    1       27.693 -18.899   5.860  0.00  0.00    +0.008 A 
ATOM     14  C   LIG    1       24.134 -19.480   4.750  0.00  0.00    +0.013 A 
ENDROOT
BRANCH   1  15
ATOM     15  C   LIG    1       25.930 -19.072   3.093  0.00  0.00    +0.319 C 
ATOM     16  O   LIG    1       25.772 -20.114   2.439  0.00  0.00    -0.250 OA
BRANCH  15  17
ATOM     17  O   LIG    1       26.516 -17.954   2.561  0.00  0.00    -0.459 OA
BRANCH  17  18
ATOM     18  C   LIG    1       26.528 -16.821   3.421  0.00  0.00    +0.282 C 
BRANCH  18  19
ATOM     19  C   LIG    1       25.648 -15.647   2.987  0.00  0.00    +0.175 C 
BRANCH  19  20
ATOM     20  N   LIG    1       25.936 -14.200   3.543  0.00  0.00    +0.247 N 
ATOM     21  C   LIG    1       26.152 -13.349   2.250  0.00  0.00    +0.193 C 
BRANCH  20  23
ATOM     22  C   LIG    1       28.424 -13.338   3.702  0.00  0.00    +0.063 C 
ATOM     23  C   LIG    1       27.282 -14.090   4.386  0.00  0.00    +0.060 C 
ATOM     24  C   LIG    1       27.053 -13.496   5.791  0.00  0.00    +0.063 C 
ENDBRANCH  20  23
BRANCH  20  25
ATOM     25  C   LIG    1       24.662 -13.623   4.337  0.00  0.00    +0.060 C 
ATOM     26  C   LIG    1       23.564 -14.683   4.544  0.00  0.00    +0.063 C 
ATOM     27  C   LIG    1       24.019 -12.397   3.665  0.00  0.00    +0.063 C 
ENDBRANCH  20  25
ENDBRANCH  19  20
ENDBRANCH  18  19
ENDBRANCH  17  18
ENDBRANCH  15  17
ENDBRANCH   1  15
TORSDOF 7
ENDMDL
MODEL 2
REMARK VINA RESULT:      -2.8      1.210      4.112
REMARK  Name = *****
REMARK                            x       y       z     vdW  Elec       q    Type
REMARK                         _______ _______ _______ _____ _____    ______ ____
ROOT
ATOM      1  C   LIG    1       25.572 -19.602   3.782  0.00  0.00    +0.165 C 
ATOM      2  C   LIG    1       24.340 -20.345   4.240  0.00  0.00    +0.013 A 
ATOM      3  C   LIG    1       24.138 -20.521   5.613  0.00  0.00    +0.133 A 
ATOM      4  C   LIG    1       22.935 -21.039   6.088  0.00  0.00    +0.046 A 
ATOM      5  C   LIG    1       21.953 -21.449   5.187  0.00  0.00    +0.004 A 
ATOM      6  C   LIG    1       22.180 -21.353   3.813  0.00  0.00    +0.001 A 
ATOM      7  O   LIG    1       25.094 -20.203   6.551  0.00  0.00    -0.455 OA
ATOM      8  C   LIG    1       26.389 -20.048   6.109  0.00  0.00    +0.133 A 
ATOM      9  C   LIG    1       27.401 -20.157   7.061  0.00  0.00    +0.046 A 
ATOM     10  C   LIG    1       28.732 -19.979   6.683  0.00  0.00    +0.004 A 
ATOM     11  C   LIG    1       29.050 -19.679   5.358  0.00  0.00    +0.001 A 
ATOM     12  C   LIG    1       28.039 -19.570   4.402  0.00  0.00    +0.008 A 
ATOM     13  C   LIG    1       23.368 -20.794   3.337  0.00  0.00    +0.008 A 
ATOM     14  C   LIG    1       26.701 -19.765   4.774  0.00  0.00    +0.013 A 
ENDROOT
BRANCH   1  15
ATOM     15  C   LIG    1       25.264 -18.125   3.599  0.00  0.00    +0.319 C 
ATOM     16  O   LIG    1       24.228 -17.570   3.996  0.00  0.00    -0.250 OA
BRANCH  15  17
ATOM     17  O   LIG    1       26.251 -17.446   2.936  0.00  0.00    -0.459 OA
BRANCH  17  18
ATOM     18  C   LIG    1       26.675 -16.244   3.567  0.00  0.00    +0.282 C 
BRANCH  18  19
ATOM     19  C   LIG    1       26.354 -14.948   2.817  0.00  0.00    +0.175 C 
BRANCH  19  20
ATOM     20  N   LIG    1       25.692 -13.739   3.583  0.00  0.00    +0.247 N 
ATOM     21  C   LIG    1       24.631 -14.428   4.502  0.00  0.00    +0.193 C 
BRANCH  20  23
ATOM     22  C   LIG    1       23.817 -11.902   3.333  0.00  0.00    +0.063 C 
ATOM     23  C   LIG    1       24.891 -12.739   2.639  0.00  0.00    +0.060 C 
ATOM     24  C   LIG    1       25.824 -11.806   1.840  0.00  0.00    +0.063 C 
ENDBRANCH  20  23
BRANCH  20  25
ATOM     25  C   LIG    1       26.770 -12.985   4.509  0.00  0.00    +0.060 C 
ATOM     26  C   LIG    1       28.197 -13.060   3.937  0.00  0.00    +0.063 C 
ATOM     27  C   LIG    1       26.809 -13.503   5.957  0.00  0.00    +0.063 C 
ENDBRANCH  20  25
ENDBRANCH  19  20
ENDBRANCH  18  19
ENDBRANCH  17  18
ENDBRANCH  15  17
ENDBRANCH   1  15
TORSDOF 7
ENDMDL
MODEL 3
REMARK VINA RESULT:      -1.5      1.217      3.680
REMARK  Name = *****
REMARK                            x       y       z     vdW  Elec       q    Type
REMARK                         _______ _______ _______ _____ _____    ______ ____
ROOT
ATOM      1  C   LIG    1       25.513 -19.682   3.901  0.00  0.00    +0.165 C 
ATOM      2  C   LIG    1       24.333 -20.440   4.460  0.00  0.00    +0.013 A 
ATOM      3  C   LIG    1       24.228 -20.582   5.849  0.00  0.00    +0.133 A 
ATOM      4  C   LIG    1       23.073 -21.113   6.418  0.00  0.00    +0.046 A 
ATOM      5  C   LIG    1       22.043 -21.572   5.596  0.00  0.00    +0.004 A 
ATOM      6  C   LIG    1       22.176 -21.510   4.208  0.00  0.00    +0.001 A 
ATOM      7  O   LIG    1       25.236 -20.215   6.711  0.00  0.00    -0.455 OA
ATOM      8  C   LIG    1       26.495 -20.042   6.177  0.00  0.00    +0.133 A 
ATOM      9  C   LIG    1       27.571 -20.100   7.062  0.00  0.00    +0.046 A 
ATOM     10  C   LIG    1       28.868 -19.902   6.590  0.00  0.00    +0.004 A 
ATOM     11  C   LIG    1       29.090 -19.632   5.239  0.00  0.00    +0.001 A 
ATOM     12  C   LIG    1       28.014 -19.574   4.351  0.00  0.00    +0.008 A 
ATOM     13  C   LIG    1       23.314 -20.938   3.638  0.00  0.00    +0.008 A 
ATOM     14  C   LIG    1       26.709 -19.790   4.818  0.00  0.00    +0.013 A 
ENDROOT
BRANCH   1  15
ATOM     15  C   LIG    1       25.156 -18.218   3.699  0.00  0.00    +0.319 C 
ATOM     16  O   LIG    1       24.088 -17.700   4.061  0.00  0.00    -0.250 OA
BRANCH  15  17
ATOM     17  O   LIG    1       26.137 -17.506   3.062  0.00  0.00    -0.459 OA
BRANCH  17  18
ATOM     18  C   LIG    1       26.485 -16.278   3.690  0.00  0.00    +0.282 C 
BRANCH  18  19
ATOM     19  C   LIG    1       26.314 -15.021   2.833  0.00  0.00    +0.175 C 
BRANCH  19  20
ATOM     20  N   LIG    1       26.015 -13.634   3.523  0.00  0.00    +0.247 N 
ATOM     21  C   LIG    1       25.771 -12.673   2.315  0.00  0.00    +0.193 C 
BRANCH  20  23
ATOM     22  C   LIG    1       27.332 -13.458   5.801  0.00  0.00    +0.063 C 
ATOM     23  C   LIG    1       27.249 -13.039   4.333  0.00  0.00    +0.060 C 
ATOM     24  C   LIG    1       28.600 -13.324   3.647  0.00  0.00    +0.063 C 
ENDBRANCH  20  23
BRANCH  20  25
ATOM     25  C   LIG    1       24.674 -13.708   4.407  0.00  0.00    +0.060 C 
ATOM     26  C   LIG    1       23.507 -14.379   3.659  0.00  0.00    +0.063 C 
ATOM     27  C   LIG    1       24.191 -12.336   4.911  0.00  0.00    +0.063 C 
ENDBRANCH  20  25
ENDBRANCH  19  20
ENDBRANCH  18  19
ENDBRANCH  17  18
ENDBRANCH  15  17
ENDBRANCH   1  15
TORSDOF 7
ENDMDL
