MODEL 1
REMARK VINA RESULT:      -4.6      0.000      0.000
REMARK  Name = *****
REMARK                            x       y       z     vdW  Elec       q    Type
REMARK                         _______ _______ _______ _____ _____    ______ ____
ROOT
ATOM      1  C   LIG    1       25.860 -15.525   3.668  0.00  0.00    +0.046 C 
ATOM      2  C   LIG    1       24.774 -14.694   2.904  0.00  0.00    +0.031 C 
ATOM      3  C   LIG    1       25.558 -13.501   2.284  0.00  0.00    +0.121 C 
ATOM      4  C   LIG    1       26.874 -13.415   3.033  0.00  0.00    +0.063 C 
ATOM      5  C   LIG    1       27.212 -14.855   3.324  0.00  0.00    +0.124 C 
ENDROOT
BRANCH   5   6
ATOM      6  O   LIG    1       28.143 -14.926   4.393  0.00  0.00    -0.391 OA
ATOM      7  H   LIG    1       28.988 -15.238   4.022  0.00  0.00    +0.210 HD
ENDBRANCH   5   6
BRANCH   3   8
ATOM      8  O   LIG    1       24.890 -12.255   2.350  0.00  0.00    -0.391 OA
ATOM      9  H   LIG    1       24.746 -11.958   1.433  0.00  0.00    +0.210 HD
ENDBRANCH   3   8
BRANCH   1  11
ATOM     10  C   LIG    1       25.273 -18.011   4.038  0.00  0.00    -0.000 C 
ATOM     11  C   LIG    1       25.840 -17.018   3.317  0.00  0.00    -0.022 C 
BRANCH  10  12
ATOM     12  C   LIG    1       25.402 -19.494   3.767  0.00  0.00    +0.137 C 
BRANCH  12  13
ATOM     13  O   LIG    1       25.760 -19.608   2.393  0.00  0.00    -0.388 OA
ATOM     14  H   LIG    1       26.696 -19.375   2.299  0.00  0.00    +0.210 HD
ENDBRANCH  12  13
BRANCH  12  15
ATOM     15  C   LIG    1       26.505 -20.191   4.593  0.00  0.00    +0.035 C 
BRANCH  15  16
ATOM     16  C   LIG    1       26.246 -20.271   6.115  0.00  0.00    +0.003 C 
BRANCH  16  17
ATOM     17  C   LIG    1       27.463 -20.420   7.044  0.00  0.00    -0.000 C 
BRANCH  17  19
ATOM     18  C   LIG    1       29.475 -19.015   6.438  0.00  0.00    +0.004 C 
ATOM     19  C   LIG    1       28.821 -20.390   6.336  0.00  0.00    -0.003 C 
ENDBRANCH  17  19
ENDBRANCH  16  17
ENDBRANCH  15  16
ENDBRANCH  12  15
ENDBRANCH  10  12
ENDBRANCH   1  11
BRANCH   2  20
ATOM     20  C   LIG    1       23.512 -14.265   3.722  0.00  0.00    +0.033 C 
BRANCH  20  21
ATOM     21  C   LIG    1       23.128 -15.195   4.865  0.00  0.00    -0.031 C 
ATOM     22  C   LIG    1       22.480 -16.380   4.950  0.00  0.00    -0.031 C 
BRANCH  22  23
ATOM     23  C   LIG    1       21.792 -17.235   3.904  0.00  0.00    +0.027 C 
BRANCH  23  24
ATOM     24  C   LIG    1       21.788 -18.780   4.143  0.00  0.00    +0.015 C 
BRANCH  24  25
ATOM     25  C   LIG    1       22.439 -19.314   5.424  0.00  0.00    +0.121 C 
BRANCH  25  26
ATOM     26  C   LIG    1       22.478 -20.859   5.419  0.00  0.00    +0.305 C 
ATOM     27  O   LIG    1       23.345 -21.524   5.929  0.00  0.00    -0.251 OA
BRANCH  26  28
ATOM     28  O   LIG    1       21.401 -21.409   4.775  0.00  0.00    -0.481 OA
ATOM     29  H   LIG    1       20.924 -22.093   5.264  0.00  0.00    +0.295 HD
ENDBRANCH  26  28
ENDBRANCH  25  26
ENDBRANCH  24  25
ENDBRANCH  23  24
ENDBRANCH  22  23
ENDBRANCH  20  21
ENDBRANCH   2  20
TORSDOF 16
ENDMDL
MODEL 2
REMARK VINA RESULT:      -4.1      1.883      6.724
REMARK  Name = *****
REMARK                            x       y       z     vdW  Elec       q    Type
REMARK                         _______ _______ _______ _____ _____    ______ ____
ROOT
ATOM      1  C   LIG    1       24.655 -18.328   4.062  0.00  0.00    +0.046 C 
ATOM      2  C   LIG    1       24.805 -19.806   3.564  0.00  0.00    +0.031 C 
ATOM      3  C   LIG    1       23.356 -20.249   3.210  0.00  0.00    +0.121 C 
ATOM      4  C   LIG    1       22.426 -19.269   3.899  0.00  0.00    +0.063 C 
ATOM      5  C   LIG    1       23.171 -17.961   3.827  0.00  0.00    +0.124 C 
ENDROOT
BRANCH   5   6
ATOM      6  O   LIG    1       22.669 -17.064   4.806  0.00  0.00    -0.391 OA
ATOM      7  H   LIG    1       22.770 -16.162   4.453  0.00  0.00    +0.210 HD
ENDBRANCH   5   6
BRANCH   3   8
ATOM      8  O   LIG    1       23.028 -21.570   3.599  0.00  0.00    -0.391 OA
ATOM      9  H   LIG    1       22.060 -21.657   3.528  0.00  0.00    +0.210 HD
ENDBRANCH   3   8
BRANCH   1  11
ATOM     10  C   LIG    1       26.031 -16.155   3.837  0.00  0.00    -0.000 C 
ATOM     11  C   LIG    1       25.617 -17.354   3.368  0.00  0.00    -0.022 C 
BRANCH  10  12
ATOM     12  C   LIG    1       26.845 -15.134   3.072  0.00  0.00    +0.137 C 
BRANCH  12  13
ATOM     13  O   LIG    1       25.973 -14.607   2.078  0.00  0.00    -0.388 OA
ATOM     14  H   LIG    1       25.949 -15.225   1.331  0.00  0.00    +0.210 HD
ENDBRANCH  12  13
BRANCH  12  15
ATOM     15  C   LIG    1       27.338 -13.950   3.933  0.00  0.00    +0.035 C 
BRANCH  15  16
ATOM     16  C   LIG    1       26.485 -13.636   5.184  0.00  0.00    +0.003 C 
BRANCH  16  17
ATOM     17  C   LIG    1       25.327 -12.636   5.030  0.00  0.00    -0.000 C 
BRANCH  17  19
ATOM     18  C   LIG    1       23.876 -11.849   3.115  0.00  0.00    +0.004 C 
ATOM     19  C   LIG    1       24.267 -13.031   3.997  0.00  0.00    -0.003 C 
ENDBRANCH  17  19
ENDBRANCH  16  17
ENDBRANCH  15  16
ENDBRANCH  12  15
ENDBRANCH  10  12
ENDBRANCH   1  11
BRANCH   2  20
ATOM     20  C   LIG    1       25.555 -20.796   4.516  0.00  0.00    +0.033 C 
BRANCH  20  21
ATOM     21  C   LIG    1       25.635 -20.364   5.974  0.00  0.00    -0.031 C 
ATOM     22  C   LIG    1       26.522 -20.562   6.976  0.00  0.00    -0.031 C 
BRANCH  22  23
ATOM     23  C   LIG    1       27.793 -21.384   7.056  0.00  0.00    +0.027 C 
BRANCH  23  24
ATOM     24  C   LIG    1       29.072 -20.780   6.390  0.00  0.00    +0.015 C 
BRANCH  24  25
ATOM     25  C   LIG    1       29.473 -19.348   6.764  0.00  0.00    +0.121 C 
BRANCH  25  26
ATOM     26  C   LIG    1       29.075 -18.355   5.650  0.00  0.00    +0.305 C 
ATOM     27  O   LIG    1       29.260 -17.164   5.695  0.00  0.00    -0.251 OA
BRANCH  26  28
ATOM     28  O   LIG    1       28.489 -18.976   4.578  0.00  0.00    -0.481 OA
ATOM     29  H   LIG    1       27.792 -18.476   4.133  0.00  0.00    +0.295 HD
ENDBRANCH  26  28
ENDBRANCH  25  26
ENDBRANCH  24  25
ENDBRANCH  23  24
ENDBRANCH  22  23
ENDBRANCH  20  21
ENDBRANCH   2  20
TORSDOF 16
ENDMDL
MODEL 3
REMARK VINA RESULT:      -3.7      1.641      6.142
REMARK  Name = *****
REMARK                            x       y       z     vdW  Elec       q    Type
REMARK                         _______ _______ _______ _____ _____    ______ ____
ROOT
ATOM      1  C   LIG    1       24.758 -19.981   4.975  0.00  0.00    +0.046 C 
ATOM      2  C   LIG    1       23.386 -20.265   5.677  0.00  0.00    +0.031 C 
ATOM      3  C   LIG    1       22.783 -21.462   4.885  0.00  0.00    +0.121 C 
ATOM      4  C   LIG    1       23.530 -21.528   3.567  0.00  0.00    +0.063 C 
ATOM      5  C   LIG    1       24.932 -21.110   3.932  0.00  0.00    +0.124 C 
ENDROOT
BRANCH   5   6
ATOM      6  O   LIG    1       25.625 -20.678   2.771  0.00  0.00    -0.391 OA
ATOM      7  H   LIG    1       25.851 -19.740   2.899  0.00  0.00    +0.210 HD
ENDBRANCH   5   6
BRANCH   3   8
ATOM      8  O   LIG    1       21.392 -21.371   4.640  0.00  0.00    -0.391 OA
ATOM      9  H   LIG    1       21.210 -20.454   4.365  0.00  0.00    +0.210 HD
ENDBRANCH   3   8
BRANCH   1  11
ATOM     10  C   LIG    1       27.247 -20.045   5.658  0.00  0.00    -0.000 C 
ATOM     11  C   LIG    1       25.935 -19.902   5.955  0.00  0.00    -0.022 C 
BRANCH  10  12
ATOM     12  C   LIG    1       28.382 -20.130   6.655  0.00  0.00    +0.137 C 
BRANCH  12  13
ATOM     13  O   LIG    1       28.988 -21.402   6.446  0.00  0.00    -0.388 OA
ATOM     14  H   LIG    1       28.715 -21.994   7.164  0.00  0.00    +0.210 HD
ENDBRANCH  12  13
BRANCH  12  15
ATOM     15  C   LIG    1       29.475 -19.057   6.457  0.00  0.00    +0.035 C 
BRANCH  15  16
ATOM     16  C   LIG    1       29.407 -18.274   5.126  0.00  0.00    +0.003 C 
BRANCH  16  17
ATOM     17  C   LIG    1       28.571 -16.983   5.094  0.00  0.00    -0.000 C 
BRANCH  17  19
ATOM     18  C   LIG    1       27.227 -15.460   3.591  0.00  0.00    +0.004 C 
ATOM     19  C   LIG    1       27.548 -16.906   3.957  0.00  0.00    -0.003 C 
ENDBRANCH  17  19
ENDBRANCH  16  17
ENDBRANCH  15  16
ENDBRANCH  12  15
ENDBRANCH  10  12
ENDBRANCH   1  11
BRANCH   2  20
ATOM     20  C   LIG    1       22.410 -19.053   5.831  0.00  0.00    +0.033 C 
BRANCH  20  21
ATOM     21  C   LIG    1       22.138 -18.269   4.554  0.00  0.00    -0.031 C 
ATOM     22  C   LIG    1       22.355 -16.993   4.158  0.00  0.00    -0.031 C 
BRANCH  22  23
ATOM     23  C   LIG    1       22.907 -15.785   4.890  0.00  0.00    +0.027 C 
BRANCH  23  24
ATOM     24  C   LIG    1       23.951 -14.909   4.124  0.00  0.00    +0.015 C 
BRANCH  24  25
ATOM     25  C   LIG    1       23.822 -13.384   4.219  0.00  0.00    +0.121 C 
BRANCH  25  26
ATOM     26  C   LIG    1       24.277 -12.710   2.906  0.00  0.00    +0.305 C 
ATOM     27  O   LIG    1       25.084 -13.174   2.140  0.00  0.00    -0.251 OA
BRANCH  26  28
ATOM     28  O   LIG    1       23.650 -11.512   2.687  0.00  0.00    -0.481 OA
ATOM     29  H   LIG    1       24.189 -10.824   2.273  0.00  0.00    +0.295 HD
ENDBRANCH  26  28
ENDBRANCH  25  26
ENDBRANCH  24  25
ENDBRANCH  23  24
ENDBRANCH  22  23
ENDBRANCH  20  21
ENDBRANCH   2  20
TORSDOF 16
ENDMDL
MODEL 4
REMARK VINA RESULT:      -3.3      1.885      4.664
REMARK  Name = *****
REMARK                            x       y       z     vdW  Elec       q    Type
REMARK                         _______ _______ _______ _____ _____    ______ ____
ROOT
ATOM      1  C   LIG    1       24.960 -14.429   3.308  0.00  0.00    +0.046 C 
ATOM      2  C   LIG    1       26.374 -14.427   3.984  0.00  0.00    +0.031 C 
ATOM      3  C   LIG    1       26.846 -12.946   3.902  0.00  0.00    +0.121 C 
ATOM      4  C   LIG    1       25.981 -12.276   2.850  0.00  0.00    +0.063 C 
ATOM      5  C   LIG    1       24.640 -12.944   3.016  0.00  0.00    +0.124 C 
ENDROOT
BRANCH   5   6
ATOM      6  O   LIG    1       23.867 -12.774   1.838  0.00  0.00    -0.391 OA
ATOM      7  H   LIG    1       23.634 -11.831   1.775  0.00  0.00    +0.210 HD
ENDBRANCH   5   6
BRANCH   3   8
ATOM      8  O   LIG    1       28.212 -12.776   3.573  0.00  0.00    -0.391 OA
ATOM      9  H   LIG    1       28.665 -12.474   4.382  0.00  0.00    +0.210 HD
ENDBRANCH   3   8
BRANCH   1  11
ATOM     10  C   LIG    1       23.672 -16.433   4.301  0.00  0.00    -0.000 C 
ATOM     11  C   LIG    1       23.881 -15.104   4.163  0.00  0.00    -0.022 C 
BRANCH  10  12
ATOM     12  C   LIG    1       22.506 -17.082   5.013  0.00  0.00    +0.137 C 
BRANCH  12  13
ATOM     13  O   LIG    1       21.603 -16.025   5.323  0.00  0.00    -0.388 OA
ATOM     14  H   LIG    1       21.862 -15.640   6.174  0.00  0.00    +0.210 HD
ENDBRANCH  12  13
BRANCH  12  15
ATOM     15  C   LIG    1       21.738 -18.111   4.154  0.00  0.00    +0.035 C 
BRANCH  15  16
ATOM     16  C   LIG    1       21.835 -19.579   4.629  0.00  0.00    +0.003 C 
BRANCH  16  17
ATOM     17  C   LIG    1       23.145 -20.032   5.297  0.00  0.00    -0.000 C 
BRANCH  17  19
ATOM     18  C   LIG    1       24.682 -19.850   3.299  0.00  0.00    +0.004 C 
ATOM     19  C   LIG    1       24.116 -20.774   4.373  0.00  0.00    -0.003 C 
ENDBRANCH  17  19
ENDBRANCH  16  17
ENDBRANCH  15  16
ENDBRANCH  12  15
ENDBRANCH  10  12
ENDBRANCH   1  11
BRANCH   2  20
ATOM     20  C   LIG    1       27.418 -15.454   3.434  0.00  0.00    +0.033 C 
BRANCH  20  21
ATOM     21  C   LIG    1       27.056 -16.920   3.630  0.00  0.00    -0.031 C 
ATOM     22  C   LIG    1       27.557 -17.931   4.377  0.00  0.00    -0.031 C 
BRANCH  22  23
ATOM     23  C   LIG    1       28.767 -18.015   5.286  0.00  0.00    +0.027 C 
BRANCH  23  24
ATOM     24  C   LIG    1       29.179 -19.438   5.787  0.00  0.00    +0.015 C 
BRANCH  24  25
ATOM     25  C   LIG    1       28.458 -20.009   7.013  0.00  0.00    +0.121 C 
BRANCH  25  26
ATOM     26  C   LIG    1       27.050 -20.520   6.636  0.00  0.00    +0.305 C 
ATOM     27  O   LIG    1       26.018 -20.064   7.061  0.00  0.00    -0.251 OA
BRANCH  26  28
ATOM     28  O   LIG    1       27.091 -21.559   5.743  0.00  0.00    -0.481 OA
ATOM     29  H   LIG    1       26.267 -22.054   5.637  0.00  0.00    +0.295 HD
ENDBRANCH  26  28
ENDBRANCH  25  26
ENDBRANCH  24  25
ENDBRANCH  23  24
ENDBRANCH  22  23
ENDBRANCH  20  21
ENDBRANCH   2  20
TORSDOF 16
ENDMDL
MODEL 5
REMARK VINA RESULT:      -2.5      2.434      3.950
REMARK  Name = *****
REMARK                            x       y       z     vdW  Elec       q    Type
REMARK                         _______ _______ _______ _____ _____    ______ ____
ROOT
ATOM      1  C   LIG    1       26.568 -14.129   4.043  0.00  0.00    +0.046 C 
ATOM      2  C   LIG    1       27.331 -13.439   2.861  0.00  0.00    +0.031 C 
ATOM      3  C   LIG    1       28.624 -12.866   3.511  0.00  0.00    +0.121 C 
ATOM      4  C   LIG    1       28.373 -12.826   5.006  0.00  0.00    +0.063 C 
ATOM      5  C   LIG    1       27.523 -14.046   5.257  0.00  0.00    +0.124 C 
ENDROOT
BRANCH   5   6
ATOM      6  O   LIG    1       26.830 -13.907   6.487  0.00  0.00    -0.391 OA
ATOM      7  H   LIG    1       25.951 -14.310   6.373  0.00  0.00    +0.210 HD
ENDBRANCH   5   6
BRANCH   3   8
ATOM      8  O   LIG    1       28.996 -11.579   3.056  0.00  0.00    -0.391 OA
ATOM      9  H   LIG    1       28.173 -11.094   2.865  0.00  0.00    +0.210 HD
ENDBRANCH   3   8
BRANCH   1  11
ATOM     10  C   LIG    1       26.867 -16.691   3.939  0.00  0.00    -0.000 C 
ATOM     11  C   LIG    1       26.141 -15.569   3.730  0.00  0.00    -0.022 C 
BRANCH  10  12
ATOM     12  C   LIG    1       26.503 -18.085   3.476  0.00  0.00    +0.137 C 
BRANCH  12  13
ATOM     13  O   LIG    1       27.133 -18.975   4.391  0.00  0.00    -0.388 OA
ATOM     14  H   LIG    1       26.584 -19.770   4.475  0.00  0.00    +0.210 HD
ENDBRANCH  12  13
BRANCH  12  15
ATOM     15  C   LIG    1       24.988 -18.383   3.506  0.00  0.00    +0.035 C 
BRANCH  15  16
ATOM     16  C   LIG    1       24.606 -19.869   3.693  0.00  0.00    +0.003 C 
BRANCH  16  17
ATOM     17  C   LIG    1       23.240 -20.185   4.326  0.00  0.00    -0.000 C 
BRANCH  17  19
ATOM     18  C   LIG    1       24.543 -20.771   6.410  0.00  0.00    +0.004 C 
ATOM     19  C   LIG    1       23.232 -20.221   5.857  0.00  0.00    -0.003 C 
ENDBRANCH  17  19
ENDBRANCH  16  17
ENDBRANCH  15  16
ENDBRANCH  12  15
ENDBRANCH  10  12
ENDBRANCH   1  11
BRANCH   2  20
ATOM     20  C   LIG    1       26.528 -12.392   2.021  0.00  0.00    +0.033 C 
BRANCH  20  21
ATOM     21  C   LIG    1       25.048 -12.699   1.837  0.00  0.00    -0.031 C 
ATOM     22  C   LIG    1       23.968 -12.692   2.652  0.00  0.00    -0.031 C 
BRANCH  22  23
ATOM     23  C   LIG    1       23.823 -12.435   4.139  0.00  0.00    +0.027 C 
BRANCH  23  24
ATOM     24  C   LIG    1       23.539 -13.675   5.048  0.00  0.00    +0.015 C 
BRANCH  24  25
ATOM     25  C   LIG    1       23.179 -15.001   4.369  0.00  0.00    +0.121 C 
BRANCH  25  26
ATOM     26  C   LIG    1       22.269 -15.857   5.277  0.00  0.00    +0.305 C 
ATOM     27  O   LIG    1       21.790 -15.481   6.318  0.00  0.00    -0.251 OA
BRANCH  26  28
ATOM     28  O   LIG    1       22.047 -17.109   4.767  0.00  0.00    -0.481 OA
ATOM     29  H   LIG    1       22.314 -17.241   3.846  0.00  0.00    +0.295 HD
ENDBRANCH  26  28
ENDBRANCH  25  26
ENDBRANCH  24  25
ENDBRANCH  23  24
ENDBRANCH  22  23
ENDBRANCH  20  21
ENDBRANCH   2  20
TORSDOF 16
ENDMDL
MODEL 6
REMARK VINA RESULT:      -2.5      1.761      5.329
REMARK  Name = *****
REMARK                            x       y       z     vdW  Elec       q    Type
REMARK                         _______ _______ _______ _____ _____    ______ ____
ROOT
ATOM      1  C   LIG    1       23.192 -18.297   3.707  0.00  0.00    +0.046 C 
ATOM      2  C   LIG    1       23.959 -17.046   4.256  0.00  0.00    +0.031 C 
ATOM      3  C   LIG    1       22.869 -16.203   4.980  0.00  0.00    +0.121 C 
ATOM      4  C   LIG    1       21.530 -16.702   4.470  0.00  0.00    +0.063 C 
ATOM      5  C   LIG    1       21.755 -18.179   4.268  0.00  0.00    +0.124 C 
ENDROOT
BRANCH   5   6
ATOM      6  O   LIG    1       20.778 -18.699   3.380  0.00  0.00    -0.391 OA
ATOM      7  H   LIG    1       20.798 -19.669   3.461  0.00  0.00    +0.210 HD
ENDBRANCH   5   6
BRANCH   3   8
ATOM      8  O   LIG    1       22.966 -14.806   4.775  0.00  0.00    -0.391 OA
ATOM      9  H   LIG    1       23.792 -14.645   4.285  0.00  0.00    +0.210 HD
ENDBRANCH   3   8
BRANCH   1  11
ATOM     10  C   LIG    1       23.863 -20.219   5.294  0.00  0.00    -0.000 C 
ATOM     11  C   LIG    1       23.858 -19.627   4.078  0.00  0.00    -0.022 C 
BRANCH  10  12
ATOM     12  C   LIG    1       24.661 -21.443   5.685  0.00  0.00    +0.137 C 
BRANCH  12  13
ATOM     13  O   LIG    1       25.683 -21.572   4.702  0.00  0.00    -0.388 OA
ATOM     14  H   LIG    1       26.466 -21.962   5.121  0.00  0.00    +0.210 HD
ENDBRANCH  12  13
BRANCH  12  15
ATOM     15  C   LIG    1       25.352 -21.331   7.062  0.00  0.00    +0.035 C 
BRANCH  15  16
ATOM     16  C   LIG    1       26.894 -21.443   7.044  0.00  0.00    +0.003 C 
BRANCH  16  17
ATOM     17  C   LIG    1       27.670 -20.526   6.083  0.00  0.00    -0.000 C 
BRANCH  17  19
ATOM     18  C   LIG    1       29.318 -18.637   5.764  0.00  0.00    +0.004 C 
ATOM     19  C   LIG    1       28.441 -19.389   6.760  0.00  0.00    -0.003 C 
ENDBRANCH  17  19
ENDBRANCH  16  17
ENDBRANCH  15  16
ENDBRANCH  12  15
ENDBRANCH  10  12
ENDBRANCH   1  11
BRANCH   2  20
ATOM     20  C   LIG    1       24.805 -16.230   3.222  0.00  0.00    +0.033 C 
BRANCH  20  21
ATOM     21  C   LIG    1       26.315 -16.364   3.366  0.00  0.00    -0.031 C 
ATOM     22  C   LIG    1       27.312 -15.530   3.743  0.00  0.00    -0.031 C 
BRANCH  22  23
ATOM     23  C   LIG    1       27.317 -14.060   4.112  0.00  0.00    +0.027 C 
BRANCH  23  24
ATOM     24  C   LIG    1       26.151 -13.554   5.023  0.00  0.00    +0.015 C 
BRANCH  24  25
ATOM     25  C   LIG    1       25.238 -12.449   4.480  0.00  0.00    +0.121 C 
BRANCH  25  26
ATOM     26  C   LIG    1       24.890 -12.699   2.997  0.00  0.00    +0.305 C 
ATOM     27  O   LIG    1       25.689 -12.688   2.094  0.00  0.00    -0.251 OA
BRANCH  26  28
ATOM     28  O   LIG    1       23.557 -12.953   2.806  0.00  0.00    -0.481 OA
ATOM     29  H   LIG    1       23.350 -13.722   2.258  0.00  0.00    +0.295 HD
ENDBRANCH  26  28
ENDBRANCH  25  26
ENDBRANCH  24  25
ENDBRANCH  23  24
ENDBRANCH  22  23
ENDBRANCH  20  21
ENDBRANCH   2  20
TORSDOF 16
ENDMDL
MODEL 7
REMARK VINA RESULT:      -1.9      2.145      6.224
REMARK  Name = *****
REMARK                            x       y       z     vdW  Elec       q    Type
REMARK                         _______ _______ _______ _____ _____    ______ ____
ROOT
ATOM      1  C   LIG    1       23.424 -17.429   4.556  0.00  0.00    +0.046 C 
ATOM      2  C   LIG    1       22.899 -18.639   3.711  0.00  0.00    +0.031 C 
ATOM      3  C   LIG    1       21.434 -18.258   3.350  0.00  0.00    +0.121 C 
ATOM      4  C   LIG    1       21.027 -17.155   4.308  0.00  0.00    +0.063 C 
ATOM      5  C   LIG    1       22.298 -16.369   4.506  0.00  0.00    +0.124 C 
ENDROOT
BRANCH   5   6
ATOM      6  O   LIG    1       22.214 -15.606   5.700  0.00  0.00    -0.391 OA
ATOM      7  H   LIG    1       21.508 -14.948   5.575  0.00  0.00    +0.210 HD
ENDBRANCH   5   6
BRANCH   3   8
ATOM      8  O   LIG    1       20.506 -19.324   3.430  0.00  0.00    -0.391 OA
ATOM      9  H   LIG    1       20.039 -19.361   2.576  0.00  0.00    +0.210 HD
ENDBRANCH   3   8
BRANCH   1  11
ATOM     10  C   LIG    1       25.182 -15.594   4.101  0.00  0.00    -0.000 C 
ATOM     11  C   LIG    1       24.768 -16.881   4.059  0.00  0.00    -0.022 C 
BRANCH  10  12
ATOM     12  C   LIG    1       26.436 -15.041   3.460  0.00  0.00    +0.137 C 
BRANCH  12  13
ATOM     13  O   LIG    1       27.236 -16.172   3.132  0.00  0.00    -0.388 OA
ATOM     14  H   LIG    1       28.022 -16.168   3.700  0.00  0.00    +0.210 HD
ENDBRANCH  12  13
BRANCH  12  15
ATOM     15  C   LIG    1       26.181 -14.258   2.153  0.00  0.00    +0.035 C 
BRANCH  15  16
ATOM     16  C   LIG    1       25.813 -12.767   2.331  0.00  0.00    +0.003 C 
BRANCH  16  17
ATOM     17  C   LIG    1       24.338 -12.366   2.157  0.00  0.00    -0.000 C 
BRANCH  17  19
ATOM     18  C   LIG    1       24.121 -12.211   4.670  0.00  0.00    +0.004 C 
ATOM     19  C   LIG    1       23.740 -11.586   3.331  0.00  0.00    -0.003 C 
ENDBRANCH  17  19
ENDBRANCH  16  17
ENDBRANCH  15  16
ENDBRANCH  12  15
ENDBRANCH  10  12
ENDBRANCH   1  11
BRANCH   2  20
ATOM     20  C   LIG    1       23.043 -20.060   4.351  0.00  0.00    +0.033 C 
BRANCH  20  21
ATOM     21  C   LIG    1       22.803 -20.125   5.854  0.00  0.00    -0.031 C 
ATOM     22  C   LIG    1       23.590 -20.340   6.933  0.00  0.00    -0.031 C 
BRANCH  22  23
ATOM     23  C   LIG    1       25.060 -20.686   7.062  0.00  0.00    +0.027 C 
BRANCH  23  24
ATOM     24  C   LIG    1       25.799 -21.137   5.759  0.00  0.00    +0.015 C 
BRANCH  24  25
ATOM     25  C   LIG    1       26.452 -20.057   4.889  0.00  0.00    +0.121 C 
BRANCH  25  26
ATOM     26  C   LIG    1       27.823 -19.640   5.463  0.00  0.00    +0.305 C 
ATOM     27  O   LIG    1       28.402 -20.222   6.347  0.00  0.00    -0.251 OA
BRANCH  26  28
ATOM     28  O   LIG    1       28.333 -18.527   4.849  0.00  0.00    -0.481 OA
ATOM     29  H   LIG    1       28.368 -17.726   5.391  0.00  0.00    +0.295 HD
ENDBRANCH  26  28
ENDBRANCH  25  26
ENDBRANCH  24  25
ENDBRANCH  23  24
ENDBRANCH  22  23
ENDBRANCH  20  21
ENDBRANCH   2  20
TORSDOF 16
ENDMDL
MODEL 8
REMARK VINA RESULT:      -1.8      2.086      5.522
REMARK  Name = *****
REMARK                            x       y       z     vdW  Elec       q    Type
REMARK                         _______ _______ _______ _____ _____    ______ ____
ROOT
ATOM      1  C   LIG    1       24.106 -14.748   4.038  0.00  0.00    +0.046 C 
ATOM      2  C   LIG    1       23.477 -13.411   3.516  0.00  0.00    +0.031 C 
ATOM      3  C   LIG    1       24.253 -13.099   2.203  0.00  0.00    +0.121 C 
ATOM      4  C   LIG    1       25.520 -13.931   2.244  0.00  0.00    +0.063 C 
ATOM      5  C   LIG    1       25.090 -15.201   2.933  0.00  0.00    +0.124 C 
ENDROOT
BRANCH   5   6
ATOM      6  O   LIG    1       26.223 -15.876   3.456  0.00  0.00    -0.391 OA
ATOM      7  H   LIG    1       26.963 -15.242   3.460  0.00  0.00    +0.210 HD
ENDBRANCH   5   6
BRANCH   3   8
ATOM      8  O   LIG    1       24.584 -11.736   2.020  0.00  0.00    -0.391 OA
ATOM      9  H   LIG    1       24.081 -11.227   2.682  0.00  0.00    +0.210 HD
ENDBRANCH   3   8
BRANCH   1  11
ATOM     10  C   LIG    1       23.257 -17.159   4.398  0.00  0.00    -0.000 C 
ATOM     11  C   LIG    1       23.061 -15.821   4.369  0.00  0.00    -0.022 C 
BRANCH  10  12
ATOM     12  C   LIG    1       22.183 -18.212   4.562  0.00  0.00    +0.137 C 
BRANCH  12  13
ATOM     13  O   LIG    1       21.363 -18.116   3.402  0.00  0.00    -0.388 OA
ATOM     14  H   LIG    1       21.343 -18.982   2.967  0.00  0.00    +0.210 HD
ENDBRANCH  12  13
BRANCH  12  15
ATOM     15  C   LIG    1       22.724 -19.657   4.630  0.00  0.00    +0.035 C 
BRANCH  15  16
ATOM     16  C   LIG    1       22.893 -20.239   6.052  0.00  0.00    +0.003 C 
BRANCH  16  17
ATOM     17  C   LIG    1       24.296 -20.709   6.473  0.00  0.00    -0.000 C 
BRANCH  17  19
ATOM     18  C   LIG    1       26.637 -20.204   5.665  0.00  0.00    +0.004 C 
ATOM     19  C   LIG    1       25.299 -20.853   5.325  0.00  0.00    -0.003 C 
ENDBRANCH  17  19
ENDBRANCH  16  17
ENDBRANCH  15  16
ENDBRANCH  12  15
ENDBRANCH  10  12
ENDBRANCH   1  11
BRANCH   2  20
ATOM     20  C   LIG    1       23.432 -12.215   4.523  0.00  0.00    +0.033 C 
BRANCH  20  21
ATOM     21  C   LIG    1       24.784 -11.614   4.883  0.00  0.00    -0.031 C 
ATOM     22  C   LIG    1       25.925 -12.099   5.426  0.00  0.00    -0.031 C 
BRANCH  22  23
ATOM     23  C   LIG    1       26.284 -13.465   5.976  0.00  0.00    +0.027 C 
BRANCH  23  24
ATOM     24  C   LIG    1       27.713 -14.008   5.647  0.00  0.00    +0.015 C 
BRANCH  24  25
ATOM     25  C   LIG    1       28.325 -13.652   4.287  0.00  0.00    +0.121 C 
BRANCH  25  26
ATOM     26  C   LIG    1       28.989 -12.258   4.329  0.00  0.00    +0.305 C 
ATOM     27  O   LIG    1       29.254 -11.596   3.357  0.00  0.00    -0.251 OA
BRANCH  26  28
ATOM     28  O   LIG    1       29.241 -11.836   5.607  0.00  0.00    -0.481 OA
ATOM     29  H   LIG    1       28.723 -12.266   6.302  0.00  0.00    +0.295 HD
ENDBRANCH  26  28
ENDBRANCH  25  26
ENDBRANCH  24  25
ENDBRANCH  23  24
ENDBRANCH  22  23
ENDBRANCH  20  21
ENDBRANCH   2  20
TORSDOF 16
ENDMDL
