MODEL 1
REMARK VINA RESULT:      -9.1      0.000      0.000
REMARK  Name = *****
REMARK                            x       y       z     vdW  Elec       q    Type
REMARK                         _______ _______ _______ _____ _____    ______ ____
ROOT
ATOM      1  O   LIG    1       25.960 -21.217   9.258  0.00  0.00    -0.247 OA
ATOM      2  C   LIG    1       25.738 -20.885   8.104  0.00  0.00    +0.349 C 
ENDROOT
BRANCH   2   3
ATOM      3  C   LIG    1       24.565 -21.465   7.248  0.00  0.00    +0.213 C 
BRANCH   3   4
ATOM      4  C   LIG    1       24.758 -22.974   6.981  0.00  0.00    -0.001 A 
ATOM      5  C   LIG    1       26.027 -23.583   6.949  0.00  0.00    +0.007 A 
ATOM      6  C   LIG    1       26.165 -24.940   6.636  0.00  0.00    +0.000 A 
ATOM      7  C   LIG    1       25.045 -25.711   6.337  0.00  0.00    +0.000 A 
ATOM      8  C   LIG    1       23.782 -25.132   6.361  0.00  0.00    +0.000 A 
ATOM      9  C   LIG    1       23.639 -23.780   6.681  0.00  0.00    +0.007 A 
ENDBRANCH   3   4
BRANCH   3  10
ATOM     10  C   LIG    1       24.281 -20.621   5.991  0.00  0.00    -0.001 A 
ATOM     11  C   LIG    1       23.049 -19.948   5.841  0.00  0.00    +0.007 A 
ATOM     12  C   LIG    1       22.780 -19.171   4.708  0.00  0.00    +0.000 A 
ATOM     13  C   LIG    1       23.727 -19.060   3.693  0.00  0.00    +0.000 A 
ATOM     14  C   LIG    1       24.942 -19.724   3.811  0.00  0.00    +0.000 A 
ATOM     15  C   LIG    1       25.217 -20.489   4.949  0.00  0.00    +0.007 A 
ENDBRANCH   3  10
BRANCH   3  16
ATOM     16  O   LIG    1       23.398 -21.345   8.094  0.00  0.00    -0.370 OA
ATOM     17  H   LIG    1       23.320 -20.395   8.307  0.00  0.00    +0.212 HD
ENDBRANCH   3  16
ENDBRANCH   2   3
BRANCH   2  18
ATOM     18  O   LIG    1       26.522 -19.992   7.425  0.00  0.00    -0.459 OA
BRANCH  18  19
ATOM     19  C   LIG    1       27.918 -20.329   7.239  0.00  0.00    +0.187 C 
ATOM     20  C   LIG    1       28.464 -20.817   8.588  0.00  0.00    +0.099 C 
ATOM     21  C   LIG    1       29.958 -20.538   8.800  0.00  0.00    +0.070 C 
ATOM     22  N   LIG    1       30.224 -19.037   8.603  0.00  0.00    +0.248 N 
ATOM     23  C   LIG    1       30.085 -18.946   7.070  0.00  0.00    +0.070 C 
ATOM     24  C   LIG    1       30.909 -20.148   6.586  0.00  0.00    +0.060 C 
ATOM     25  C   LIG    1       31.666 -18.630   9.061  0.00  0.00    +0.134 C 
ATOM     26  C   LIG    1       31.476 -17.576  10.136  0.00  0.00    +0.056 C 
ATOM     27  C   LIG    1       30.172 -16.917   9.762  0.00  0.00    +0.056 C 
ATOM     28  C   LIG    1       29.307 -18.111   9.426  0.00  0.00    +0.134 C 
ATOM     29  C   LIG    1       30.817 -21.186   7.705  0.00  0.00    +0.060 C 
ATOM     30  C   LIG    1       28.616 -19.091   6.660  0.00  0.00    +0.099 C 
ENDBRANCH  18  19
ENDBRANCH   2  18
TORSDOF 6
ENDMDL
MODEL 2
REMARK VINA RESULT:      -9.0      0.759      3.697
REMARK  Name = *****
REMARK                            x       y       z     vdW  Elec       q    Type
REMARK                         _______ _______ _______ _____ _____    ______ ____
ROOT
ATOM      1  O   LIG    1       25.628 -21.611   9.006  0.00  0.00    -0.247 OA
ATOM      2  C   LIG    1       26.019 -21.068   7.985  0.00  0.00    +0.349 C 
ENDROOT
BRANCH   2   3
ATOM      3  C   LIG    1       25.707 -21.603   6.548  0.00  0.00    +0.213 C 
BRANCH   3   4
ATOM      4  C   LIG    1       24.745 -20.658   5.795  0.00  0.00    -0.001 A 
ATOM      5  C   LIG    1       23.442 -20.380   6.251  0.00  0.00    +0.007 A 
ATOM      6  C   LIG    1       22.576 -19.572   5.505  0.00  0.00    +0.000 A 
ATOM      7  C   LIG    1       22.987 -19.038   4.286  0.00  0.00    +0.000 A 
ATOM      8  C   LIG    1       24.268 -19.299   3.814  0.00  0.00    +0.000 A 
ATOM      9  C   LIG    1       25.138 -20.099   4.561  0.00  0.00    +0.007 A 
ENDBRANCH   3   4
BRANCH   3  10
ATOM     10  C   LIG    1       25.283 -23.083   6.551  0.00  0.00    -0.001 A 
ATOM     11  C   LIG    1       26.252 -24.108   6.620  0.00  0.00    +0.007 A 
ATOM     12  C   LIG    1       25.881 -25.458   6.631  0.00  0.00    +0.000 A 
ATOM     13  C   LIG    1       24.538 -25.816   6.559  0.00  0.00    +0.000 A 
ATOM     14  C   LIG    1       23.566 -24.826   6.477  0.00  0.00    +0.000 A 
ATOM     15  C   LIG    1       23.934 -23.477   6.480  0.00  0.00    +0.007 A 
ENDBRANCH   3  10
BRANCH   3  16
ATOM     16  O   LIG    1       26.972 -21.540   5.850  0.00  0.00    -0.370 OA
ATOM     17  H   LIG    1       27.658 -21.511   6.544  0.00  0.00    +0.212 HD
ENDBRANCH   3  16
ENDBRANCH   2   3
BRANCH   2  18
ATOM     18  O   LIG    1       26.807 -19.949   7.994  0.00  0.00    -0.459 OA
BRANCH  18  19
ATOM     19  C   LIG    1       28.196 -20.103   7.611  0.00  0.00    +0.187 C 
ATOM     20  C   LIG    1       28.947 -20.696   8.812  0.00  0.00    +0.099 C 
ATOM     21  C   LIG    1       30.423 -20.283   8.898  0.00  0.00    +0.070 C 
ATOM     22  N   LIG    1       30.517 -18.749   8.885  0.00  0.00    +0.248 N 
ATOM     23  C   LIG    1       30.184 -18.478   7.404  0.00  0.00    +0.070 C 
ATOM     24  C   LIG    1       31.053 -19.510   6.670  0.00  0.00    +0.060 C 
ATOM     25  C   LIG    1       31.960 -18.246   9.236  0.00  0.00    +0.134 C 
ATOM     26  C   LIG    1       31.803 -17.366  10.463  0.00  0.00    +0.056 C 
ATOM     27  C   LIG    1       30.406 -16.814  10.329  0.00  0.00    +0.056 C 
ATOM     28  C   LIG    1       29.624 -18.043   9.924  0.00  0.00    +0.134 C 
ATOM     29  C   LIG    1       31.198 -20.685   7.636  0.00  0.00    +0.060 C 
ATOM     30  C   LIG    1       28.696 -18.732   7.140  0.00  0.00    +0.099 C 
ENDBRANCH  18  19
ENDBRANCH   2  18
TORSDOF 6
ENDMDL
MODEL 3
REMARK VINA RESULT:      -8.6      2.975      7.475
REMARK  Name = *****
REMARK                            x       y       z     vdW  Elec       q    Type
REMARK                         _______ _______ _______ _____ _____    ______ ____
ROOT
ATOM      1  O   LIG    1       24.664 -23.125   4.290  0.00  0.00    -0.247 OA
ATOM      2  C   LIG    1       25.055 -23.040   5.443  0.00  0.00    +0.349 C 
ENDROOT
BRANCH   2   3
ATOM      3  C   LIG    1       25.112 -21.694   6.239  0.00  0.00    +0.213 C 
BRANCH   3   4
ATOM      4  C   LIG    1       24.282 -20.595   5.542  0.00  0.00    -0.001 A 
ATOM      5  C   LIG    1       23.008 -20.201   5.995  0.00  0.00    +0.007 A 
ATOM      6  C   LIG    1       22.258 -19.249   5.296  0.00  0.00    +0.000 A 
ATOM      7  C   LIG    1       22.756 -18.682   4.126  0.00  0.00    +0.000 A 
ATOM      8  C   LIG    1       24.010 -19.055   3.657  0.00  0.00    +0.000 A 
ATOM      9  C   LIG    1       24.765 -19.999   4.357  0.00  0.00    +0.007 A 
ENDBRANCH   3   4
BRANCH   3  10
ATOM     10  C   LIG    1       26.553 -21.283   6.597  0.00  0.00    -0.001 A 
ATOM     11  C   LIG    1       27.198 -21.835   7.725  0.00  0.00    +0.007 A 
ATOM     12  C   LIG    1       28.510 -21.476   8.057  0.00  0.00    +0.000 A 
ATOM     13  C   LIG    1       29.201 -20.549   7.282  0.00  0.00    +0.000 A 
ATOM     14  C   LIG    1       28.582 -19.981   6.174  0.00  0.00    +0.000 A 
ATOM     15  C   LIG    1       27.277 -20.350   5.833  0.00  0.00    +0.007 A 
ENDBRANCH   3  10
BRANCH   3  16
ATOM     16  O   LIG    1       24.445 -21.979   7.490  0.00  0.00    -0.370 OA
ATOM     17  H   LIG    1       25.141 -21.961   8.174  0.00  0.00    +0.212 HD
ENDBRANCH   3  16
ENDBRANCH   2   3
BRANCH   2  18
ATOM     18  O   LIG    1       25.523 -24.114   6.150  0.00  0.00    -0.459 OA
BRANCH  18  19
ATOM     19  C   LIG    1       25.286 -25.434   5.601  0.00  0.00    +0.187 C 
ATOM     20  C   LIG    1       24.112 -26.056   6.372  0.00  0.00    +0.099 C 
ATOM     21  C   LIG    1       24.165 -27.586   6.470  0.00  0.00    +0.070 C 
ATOM     22  N   LIG    1       25.513 -28.005   7.078  0.00  0.00    +0.248 N 
ATOM     23  C   LIG    1       26.440 -27.720   5.879  0.00  0.00    +0.070 C 
ATOM     24  C   LIG    1       25.670 -28.340   4.704  0.00  0.00    +0.060 C 
ATOM     25  C   LIG    1       25.540 -29.526   7.457  0.00  0.00    +0.134 C 
ATOM     26  C   LIG    1       25.833 -29.575   8.945  0.00  0.00    +0.056 C 
ATOM     27  C   LIG    1       26.642 -28.326   9.190  0.00  0.00    +0.056 C 
ATOM     28  C   LIG    1       25.870 -27.296   8.398  0.00  0.00    +0.134 C 
ATOM     29  C   LIG    1       24.193 -28.243   5.084  0.00  0.00    +0.060 C 
ATOM     30  C   LIG    1       26.606 -26.209   5.685  0.00  0.00    +0.099 C 
ENDBRANCH  18  19
ENDBRANCH   2  18
TORSDOF 6
ENDMDL
MODEL 4
REMARK VINA RESULT:      -8.6      1.288      2.338
REMARK  Name = *****
REMARK                            x       y       z     vdW  Elec       q    Type
REMARK                         _______ _______ _______ _____ _____    ______ ____
ROOT
ATOM      1  O   LIG    1       25.150 -20.723   8.777  0.00  0.00    -0.247 OA
ATOM      2  C   LIG    1       25.244 -21.126   7.629  0.00  0.00    +0.349 C 
ENDROOT
BRANCH   2   3
ATOM      3  C   LIG    1       24.012 -21.503   6.742  0.00  0.00    +0.213 C 
BRANCH   3   4
ATOM      4  C   LIG    1       24.109 -22.961   6.239  0.00  0.00    -0.001 A 
ATOM      5  C   LIG    1       23.455 -24.030   6.879  0.00  0.00    +0.007 A 
ATOM      6  C   LIG    1       23.623 -25.346   6.433  0.00  0.00    +0.000 A 
ATOM      7  C   LIG    1       24.455 -25.622   5.351  0.00  0.00    +0.000 A 
ATOM      8  C   LIG    1       25.114 -24.583   4.704  0.00  0.00    +0.000 A 
ATOM      9  C   LIG    1       24.942 -23.267   5.142  0.00  0.00    +0.007 A 
ENDBRANCH   3   4
BRANCH   3  10
ATOM     10  C   LIG    1       23.738 -20.461   5.642  0.00  0.00    -0.001 A 
ATOM     11  C   LIG    1       24.719 -20.168   4.669  0.00  0.00    +0.007 A 
ATOM     12  C   LIG    1       24.481 -19.228   3.659  0.00  0.00    +0.000 A 
ATOM     13  C   LIG    1       23.266 -18.549   3.605  0.00  0.00    +0.000 A 
ATOM     14  C   LIG    1       22.290 -18.810   4.560  0.00  0.00    +0.000 A 
ATOM     15  C   LIG    1       22.521 -19.759   5.561  0.00  0.00    +0.007 A 
ENDBRANCH   3  10
BRANCH   3  16
ATOM     16  O   LIG    1       22.882 -21.456   7.643  0.00  0.00    -0.370 OA
ATOM     17  H   LIG    1       23.099 -22.064   8.375  0.00  0.00    +0.212 HD
ENDBRANCH   3  16
ENDBRANCH   2   3
BRANCH   2  18
ATOM     18  O   LIG    1       26.447 -21.325   7.008  0.00  0.00    -0.459 OA
BRANCH  18  19
ATOM     19  C   LIG    1       27.405 -20.239   7.035  0.00  0.00    +0.187 C 
ATOM     20  C   LIG    1       28.590 -20.640   6.144  0.00  0.00    +0.099 C 
ATOM     21  C   LIG    1       29.934 -20.038   6.575  0.00  0.00    +0.070 C 
ATOM     22  N   LIG    1       30.198 -20.399   8.045  0.00  0.00    +0.248 N 
ATOM     23  C   LIG    1       29.182 -19.464   8.732  0.00  0.00    +0.070 C 
ATOM     24  C   LIG    1       29.410 -18.130   8.004  0.00  0.00    +0.060 C 
ATOM     25  C   LIG    1       31.663 -20.053   8.482  0.00  0.00    +0.134 C 
ATOM     26  C   LIG    1       32.275 -21.361   8.949  0.00  0.00    +0.056 C 
ATOM     27  C   LIG    1       31.091 -22.147   9.455  0.00  0.00    +0.056 C 
ATOM     28  C   LIG    1       30.068 -21.900   8.371  0.00  0.00    +0.134 C 
ATOM     29  C   LIG    1       29.887 -18.505   6.601  0.00  0.00    +0.060 C 
ATOM     30  C   LIG    1       27.755 -19.972   8.504  0.00  0.00    +0.099 C 
ENDBRANCH  18  19
ENDBRANCH   2  18
TORSDOF 6
ENDMDL
MODEL 5
REMARK VINA RESULT:      -7.9      3.130      7.169
REMARK  Name = *****
REMARK                            x       y       z     vdW  Elec       q    Type
REMARK                         _______ _______ _______ _____ _____    ______ ____
ROOT
ATOM      1  O   LIG    1       22.429 -22.864   6.619  0.00  0.00    -0.247 OA
ATOM      2  C   LIG    1       23.636 -23.044   6.577  0.00  0.00    +0.349 C 
ENDROOT
BRANCH   2   3
ATOM      3  C   LIG    1       24.639 -22.035   5.927  0.00  0.00    +0.213 C 
BRANCH   3   4
ATOM      4  C   LIG    1       25.750 -21.631   6.920  0.00  0.00    -0.001 A 
ATOM      5  C   LIG    1       25.520 -20.767   8.008  0.00  0.00    +0.007 A 
ATOM      6  C   LIG    1       26.568 -20.370   8.846  0.00  0.00    +0.000 A 
ATOM      7  C   LIG    1       27.866 -20.816   8.609  0.00  0.00    +0.000 A 
ATOM      8  C   LIG    1       28.119 -21.668   7.541  0.00  0.00    +0.000 A 
ATOM      9  C   LIG    1       27.073 -22.072   6.707  0.00  0.00    +0.007 A 
ENDBRANCH   3   4
BRANCH   3  10
ATOM     10  C   LIG    1       23.924 -20.852   5.246  0.00  0.00    -0.001 A 
ATOM     11  C   LIG    1       24.410 -20.322   4.031  0.00  0.00    +0.007 A 
ATOM     12  C   LIG    1       23.766 -19.253   3.397  0.00  0.00    +0.000 A 
ATOM     13  C   LIG    1       22.634 -18.679   3.968  0.00  0.00    +0.000 A 
ATOM     14  C   LIG    1       22.144 -19.173   5.171  0.00  0.00    +0.000 A 
ATOM     15  C   LIG    1       22.778 -20.250   5.798  0.00  0.00    +0.007 A 
ENDBRANCH   3  10
BRANCH   3  16
ATOM     16  O   LIG    1       25.284 -22.785   4.873  0.00  0.00    -0.370 OA
ATOM     17  H   LIG    1       25.712 -22.122   4.297  0.00  0.00    +0.212 HD
ENDBRANCH   3  16
ENDBRANCH   2   3
BRANCH   2  18
ATOM     18  O   LIG    1       24.235 -24.174   7.063  0.00  0.00    -0.459 OA
BRANCH  18  19
ATOM     19  C   LIG    1       24.995 -24.985   6.135  0.00  0.00    +0.187 C 
ATOM     20  C   LIG    1       23.999 -25.852   5.350  0.00  0.00    +0.099 C 
ATOM     21  C   LIG    1       24.566 -27.202   4.890  0.00  0.00    +0.070 C 
ATOM     22  N   LIG    1       25.120 -27.957   6.108  0.00  0.00    +0.248 N 
ATOM     23  C   LIG    1       26.397 -27.133   6.368  0.00  0.00    +0.070 C 
ATOM     24  C   LIG    1       26.996 -26.990   4.961  0.00  0.00    +0.060 C 
ATOM     25  C   LIG    1       25.472 -29.445   5.768  0.00  0.00    +0.134 C 
ATOM     26  C   LIG    1       24.633 -30.293   6.707  0.00  0.00    +0.056 C 
ATOM     27  C   LIG    1       24.457 -29.414   7.919  0.00  0.00    +0.056 C 
ATOM     28  C   LIG    1       24.137 -28.077   7.289  0.00  0.00    +0.134 C 
ATOM     29  C   LIG    1       25.806 -27.023   4.003  0.00  0.00    +0.060 C 
ATOM     30  C   LIG    1       26.036 -25.762   6.949  0.00  0.00    +0.099 C 
ENDBRANCH  18  19
ENDBRANCH   2  18
TORSDOF 6
ENDMDL
MODEL 6
REMARK VINA RESULT:      -7.6      7.396     10.328
REMARK  Name = *****
REMARK                            x       y       z     vdW  Elec       q    Type
REMARK                         _______ _______ _______ _____ _____    ______ ____
ROOT
ATOM      1  O   LIG    1       23.018 -31.665   8.297  0.00  0.00    -0.247 OA
ATOM      2  C   LIG    1       23.786 -30.729   8.144  0.00  0.00    +0.349 C 
ENDROOT
BRANCH   2   3
ATOM      3  C   LIG    1       24.422 -30.349   6.766  0.00  0.00    +0.213 C 
BRANCH   3   4
ATOM      4  C   LIG    1       25.553 -31.328   6.382  0.00  0.00    -0.001 A 
ATOM      5  C   LIG    1       25.744 -31.789   5.065  0.00  0.00    +0.007 A 
ATOM      6  C   LIG    1       26.738 -32.728   4.769  0.00  0.00    +0.000 A 
ATOM      7  C   LIG    1       27.551 -33.235   5.779  0.00  0.00    +0.000 A 
ATOM      8  C   LIG    1       27.381 -32.797   7.087  0.00  0.00    +0.000 A 
ATOM      9  C   LIG    1       26.395 -31.853   7.385  0.00  0.00    +0.007 A 
ENDBRANCH   3   4
BRANCH   3  10
ATOM     10  C   LIG    1       24.806 -28.859   6.687  0.00  0.00    -0.001 A 
ATOM     11  C   LIG    1       24.141 -27.993   5.792  0.00  0.00    +0.007 A 
ATOM     12  C   LIG    1       24.475 -26.635   5.715  0.00  0.00    +0.000 A 
ATOM     13  C   LIG    1       25.487 -26.115   6.517  0.00  0.00    +0.000 A 
ATOM     14  C   LIG    1       26.166 -26.951   7.396  0.00  0.00    +0.000 A 
ATOM     15  C   LIG    1       25.824 -28.304   7.485  0.00  0.00    +0.007 A 
ENDBRANCH   3  10
BRANCH   3  16
ATOM     16  O   LIG    1       23.361 -30.550   5.804  0.00  0.00    -0.370 OA
ATOM     17  H   LIG    1       23.799 -30.843   4.982  0.00  0.00    +0.212 HD
ENDBRANCH   3  16
ENDBRANCH   2   3
BRANCH   2  18
ATOM     18  O   LIG    1       24.202 -29.934   9.177  0.00  0.00    -0.459 OA
BRANCH  18  19
ATOM     19  C   LIG    1       24.320 -30.540  10.487  0.00  0.00    +0.187 C 
ATOM     20  C   LIG    1       23.487 -29.700  11.466  0.00  0.00    +0.099 C 
ATOM     21  C   LIG    1       24.015 -29.705  12.907  0.00  0.00    +0.070 C 
ATOM     22  N   LIG    1       25.486 -29.262  12.906  0.00  0.00    +0.248 N 
ATOM     23  C   LIG    1       26.140 -30.525  12.309  0.00  0.00    +0.070 C 
ATOM     24  C   LIG    1       25.469 -31.656  13.102  0.00  0.00    +0.060 C 
ATOM     25  C   LIG    1       26.019 -28.985  14.354  0.00  0.00    +0.134 C 
ATOM     26  C   LIG    1       26.480 -27.539  14.355  0.00  0.00    +0.056 C 
ATOM     27  C   LIG    1       26.891 -27.295  12.924  0.00  0.00    +0.056 C 
ATOM     28  C   LIG    1       25.757 -27.939  12.161  0.00  0.00    +0.134 C 
ATOM     29  C   LIG    1       24.086 -31.128  13.480  0.00  0.00    +0.060 C 
ATOM     30  C   LIG    1       25.814 -30.637  10.816  0.00  0.00    +0.099 C 
ENDBRANCH  18  19
ENDBRANCH   2  18
TORSDOF 6
ENDMDL
MODEL 7
REMARK VINA RESULT:      -7.5      7.319      9.819
REMARK  Name = *****
REMARK                            x       y       z     vdW  Elec       q    Type
REMARK                         _______ _______ _______ _____ _____    ______ ____
ROOT
ATOM      1  O   LIG    1       26.784 -30.871   8.777  0.00  0.00    -0.247 OA
ATOM      2  C   LIG    1       25.644 -30.441   8.851  0.00  0.00    +0.349 C 
ENDROOT
BRANCH   2   3
ATOM      3  C   LIG    1       24.759 -30.118   7.603  0.00  0.00    +0.213 C 
BRANCH   3   4
ATOM      4  C   LIG    1       24.882 -31.221   6.529  0.00  0.00    -0.001 A 
ATOM      5  C   LIG    1       25.905 -31.229   5.562  0.00  0.00    +0.007 A 
ATOM      6  C   LIG    1       25.943 -32.209   4.563  0.00  0.00    +0.000 A 
ATOM      7  C   LIG    1       24.956 -33.189   4.500  0.00  0.00    +0.000 A 
ATOM      8  C   LIG    1       23.934 -33.201   5.443  0.00  0.00    +0.000 A 
ATOM      9  C   LIG    1       23.898 -32.230   6.446  0.00  0.00    +0.007 A 
ENDBRANCH   3   4
BRANCH   3  10
ATOM     10  C   LIG    1       24.977 -28.686   7.081  0.00  0.00    -0.001 A 
ATOM     11  C   LIG    1       24.171 -28.169   6.043  0.00  0.00    +0.007 A 
ATOM     12  C   LIG    1       24.353 -26.866   5.564  0.00  0.00    +0.000 A 
ATOM     13  C   LIG    1       25.351 -26.056   6.099  0.00  0.00    +0.000 A 
ATOM     14  C   LIG    1       26.166 -26.546   7.112  0.00  0.00    +0.000 A 
ATOM     15  C   LIG    1       25.976 -27.843   7.601  0.00  0.00    +0.007 A 
ENDBRANCH   3  10
BRANCH   3  16
ATOM     16  O   LIG    1       23.399 -30.174   8.093  0.00  0.00    -0.370 OA
ATOM     17  H   LIG    1       23.404 -29.703   8.948  0.00  0.00    +0.212 HD
ENDBRANCH   3  16
ENDBRANCH   2   3
BRANCH   2  18
ATOM     18  O   LIG    1       25.034 -30.159  10.043  0.00  0.00    -0.459 OA
BRANCH  18  19
ATOM     19  C   LIG    1       25.882 -29.900  11.188  0.00  0.00    +0.187 C 
ATOM     20  C   LIG    1       25.160 -30.434  12.434  0.00  0.00    +0.099 C 
ATOM     21  C   LIG    1       25.487 -29.672  13.725  0.00  0.00    +0.070 C 
ATOM     22  N   LIG    1       25.200 -28.178  13.514  0.00  0.00    +0.248 N 
ATOM     23  C   LIG    1       26.389 -27.809  12.603  0.00  0.00    +0.070 C 
ATOM     24  C   LIG    1       27.575 -28.479  13.313  0.00  0.00    +0.060 C 
ATOM     25  C   LIG    1       25.254 -27.373  14.858  0.00  0.00    +0.134 C 
ATOM     26  C   LIG    1       23.886 -26.731  15.009  0.00  0.00    +0.056 C 
ATOM     27  C   LIG    1       23.423 -26.542  13.587  0.00  0.00    +0.056 C 
ATOM     28  C   LIG    1       23.796 -27.865  12.960  0.00  0.00    +0.134 C 
ATOM     29  C   LIG    1       26.991 -29.694  14.032  0.00  0.00    +0.060 C 
ATOM     30  C   LIG    1       26.188 -28.398  11.204  0.00  0.00    +0.099 C 
ENDBRANCH  18  19
ENDBRANCH   2  18
TORSDOF 6
ENDMDL
MODEL 8
REMARK VINA RESULT:      -7.5      1.278      2.221
REMARK  Name = *****
REMARK                            x       y       z     vdW  Elec       q    Type
REMARK                         _______ _______ _______ _____ _____    ______ ____
ROOT
ATOM      1  O   LIG    1       25.299 -20.371   8.753  0.00  0.00    -0.247 OA
ATOM      2  C   LIG    1       25.410 -21.422   8.143  0.00  0.00    +0.349 C 
ENDROOT
BRANCH   2   3
ATOM      3  C   LIG    1       24.311 -21.984   7.182  0.00  0.00    +0.213 C 
BRANCH   3   4
ATOM      4  C   LIG    1       24.588 -23.459   6.817  0.00  0.00    -0.001 A 
ATOM      5  C   LIG    1       25.889 -23.964   6.629  0.00  0.00    +0.007 A 
ATOM      6  C   LIG    1       26.095 -25.290   6.231  0.00  0.00    +0.000 A 
ATOM      7  C   LIG    1       25.011 -26.132   6.000  0.00  0.00    +0.000 A 
ATOM      8  C   LIG    1       23.717 -25.657   6.177  0.00  0.00    +0.000 A 
ATOM      9  C   LIG    1       23.507 -24.336   6.582  0.00  0.00    +0.007 A 
ENDBRANCH   3   4
BRANCH   3  10
ATOM     10  C   LIG    1       24.054 -21.060   5.977  0.00  0.00    -0.001 A 
ATOM     11  C   LIG    1       22.955 -20.174   5.973  0.00  0.00    +0.007 A 
ATOM     12  C   LIG    1       22.714 -19.323   4.887  0.00  0.00    +0.000 A 
ATOM     13  C   LIG    1       23.554 -19.347   3.778  0.00  0.00    +0.000 A 
ATOM     14  C   LIG    1       24.635 -20.220   3.752  0.00  0.00    +0.000 A 
ATOM     15  C   LIG    1       24.885 -21.061   4.842  0.00  0.00    +0.007 A 
ENDBRANCH   3  10
BRANCH   3  16
ATOM     16  O   LIG    1       23.098 -21.979   7.969  0.00  0.00    -0.370 OA
ATOM     17  H   LIG    1       23.378 -21.819   8.891  0.00  0.00    +0.212 HD
ENDBRANCH   3  16
ENDBRANCH   2   3
BRANCH   2  18
ATOM     18  O   LIG    1       26.500 -22.240   8.266  0.00  0.00    -0.459 OA
BRANCH  18  19
ATOM     19  C   LIG    1       27.799 -21.613   8.401  0.00  0.00    +0.187 C 
ATOM     20  C   LIG    1       27.570 -20.123   8.693  0.00  0.00    +0.099 C 
ATOM     21  C   LIG    1       28.683 -19.202   8.175  0.00  0.00    +0.070 C 
ATOM     22  N   LIG    1       28.882 -19.449   6.672  0.00  0.00    +0.248 N 
ATOM     23  C   LIG    1       29.585 -20.821   6.722  0.00  0.00    +0.070 C 
ATOM     24  C   LIG    1       30.640 -20.616   7.820  0.00  0.00    +0.060 C 
ATOM     25  C   LIG    1       29.808 -18.368   6.016  0.00  0.00    +0.134 C 
ATOM     26  C   LIG    1       28.977 -17.722   4.922  0.00  0.00    +0.056 C 
ATOM     27  C   LIG    1       28.030 -18.817   4.500  0.00  0.00    +0.056 C 
ATOM     28  C   LIG    1       27.590 -19.378   5.834  0.00  0.00    +0.134 C 
ATOM     29  C   LIG    1       30.049 -19.574   8.769  0.00  0.00    +0.060 C 
ATOM     30  C   LIG    1       28.589 -21.914   7.121  0.00  0.00    +0.099 C 
ENDBRANCH  18  19
ENDBRANCH   2  18
TORSDOF 6
ENDMDL
MODEL 9
REMARK VINA RESULT:      -7.3      7.288     10.340
REMARK  Name = *****
REMARK                            x       y       z     vdW  Elec       q    Type
REMARK                         _______ _______ _______ _____ _____    ______ ____
ROOT
ATOM      1  O   LIG    1       23.246 -30.081   9.245  0.00  0.00    -0.247 OA
ATOM      2  C   LIG    1       24.466 -30.085   9.226  0.00  0.00    +0.349 C 
ENDROOT
BRANCH   2   3
ATOM      3  C   LIG    1       25.310 -30.044   7.909  0.00  0.00    +0.213 C 
BRANCH   3   4
ATOM      4  C   LIG    1       25.185 -28.674   7.206  0.00  0.00    -0.001 A 
ATOM      5  C   LIG    1       24.310 -28.452   6.126  0.00  0.00    +0.007 A 
ATOM      6  C   LIG    1       24.276 -27.215   5.471  0.00  0.00    +0.000 A 
ATOM      7  C   LIG    1       25.121 -26.183   5.871  0.00  0.00    +0.000 A 
ATOM      8  C   LIG    1       25.995 -26.379   6.934  0.00  0.00    +0.000 A 
ATOM      9  C   LIG    1       26.026 -27.609   7.595  0.00  0.00    +0.007 A 
ENDBRANCH   3   4
BRANCH   3  10
ATOM     10  C   LIG    1       25.043 -31.259   7.002  0.00  0.00    -0.001 A 
ATOM     11  C   LIG    1       26.071 -31.791   6.193  0.00  0.00    +0.007 A 
ATOM     12  C   LIG    1       25.845 -32.900   5.368  0.00  0.00    +0.000 A 
ATOM     13  C   LIG    1       24.586 -33.493   5.322  0.00  0.00    +0.000 A 
ATOM     14  C   LIG    1       23.554 -32.979   6.098  0.00  0.00    +0.000 A 
ATOM     15  C   LIG    1       23.783 -31.881   6.933  0.00  0.00    +0.007 A 
ENDBRANCH   3  10
BRANCH   3  16
ATOM     16  O   LIG    1       26.683 -30.154   8.350  0.00  0.00    -0.370 OA
ATOM     17  H   LIG    1       26.745 -29.623   9.166  0.00  0.00    +0.212 HD
ENDBRANCH   3  16
ENDBRANCH   2   3
BRANCH   2  18
ATOM     18  O   LIG    1       25.226 -30.163  10.361  0.00  0.00    -0.459 OA
BRANCH  18  19
ATOM     19  C   LIG    1       25.133 -29.072  11.309  0.00  0.00    +0.187 C 
ATOM     20  C   LIG    1       26.395 -28.210  11.154  0.00  0.00    +0.099 C 
ATOM     21  C   LIG    1       26.835 -27.502  12.442  0.00  0.00    +0.070 C 
ATOM     22  N   LIG    1       27.009 -28.545  13.556  0.00  0.00    +0.248 N 
ATOM     23  C   LIG    1       25.528 -28.867  13.846  0.00  0.00    +0.070 C 
ATOM     24  C   LIG    1       24.889 -27.472  13.914  0.00  0.00    +0.060 C 
ATOM     25  C   LIG    1       27.709 -27.943  14.822  0.00  0.00    +0.134 C 
ATOM     26  C   LIG    1       28.962 -28.773  15.034  0.00  0.00    +0.056 C 
ATOM     27  C   LIG    1       28.595 -30.123  14.470  0.00  0.00    +0.056 C 
ATOM     28  C   LIG    1       27.904 -29.742  13.181  0.00  0.00    +0.134 C 
ATOM     29  C   LIG    1       25.731 -26.590  12.993  0.00  0.00    +0.060 C 
ATOM     30  C   LIG    1       24.929 -29.687  12.699  0.00  0.00    +0.099 C 
ENDBRANCH  18  19
ENDBRANCH   2  18
TORSDOF 6
ENDMDL
