MODEL 1
REMARK VINA RESULT:     -10.5      0.000      0.000
REMARK  Name = *****
REMARK                            x       y       z     vdW  Elec       q    Type
REMARK                         _______ _______ _______ _____ _____    ______ ____
ROOT
ATOM      1  N   LIG    1       24.716 -25.297   6.322  0.00  0.00    -0.302 NA
ATOM      2  C   LIG    1       25.746 -24.874   7.275  0.00  0.00    +0.085 C 
ATOM      3  C   LIG    1       26.093 -23.396   7.135  0.00  0.00    +0.022 C 
ATOM      4  C   LIG    1       24.868 -22.478   7.340  0.00  0.00    +0.032 C 
ATOM      5  C   LIG    1       23.628 -23.022   6.573  0.00  0.00    +0.022 C 
ATOM      6  C   LIG    1       23.479 -24.552   6.622  0.00  0.00    +0.085 C 
ENDROOT
BRANCH   1   7
ATOM      7  C   LIG    1       25.094 -25.170   4.898  0.00  0.00    +0.084 C 
BRANCH   7   8
ATOM      8  C   LIG    1       25.445 -26.492   4.181  0.00  0.00    +0.018 C 
BRANCH   8   9
ATOM      9  C   LIG    1       26.077 -27.495   5.164  0.00  0.00    +0.037 C 
BRANCH   9  10
ATOM     10  C   LIG    1       25.108 -28.601   5.637  0.00  0.00    +0.144 C 
BRANCH  10  14
ATOM     11  C   LIG    1       25.376 -29.544   9.914  0.00  0.00    -0.042 A 
ATOM     12  C   LIG    1       24.370 -30.098   9.108  0.00  0.00    +0.004 A 
ATOM     13  C   LIG    1       24.276 -29.795   7.743  0.00  0.00    +0.006 A 
ATOM     14  C   LIG    1       25.165 -28.901   7.124  0.00  0.00    -0.019 A 
ATOM     15  C   LIG    1       26.157 -28.329   7.928  0.00  0.00    +0.006 A 
ATOM     16  C   LIG    1       26.250 -28.636   9.295  0.00  0.00    +0.004 A 
BRANCH  11  18
ATOM     17  C   LIG    1       24.470 -29.012  12.185  0.00  0.00    +0.015 C 
ATOM     18  C   LIG    1       25.479 -29.883  11.414  0.00  0.00    -0.013 C 
ATOM     19  C   LIG    1       25.170 -31.369  11.712  0.00  0.00    +0.015 C 
ATOM     20  C   LIG    1       26.895 -29.617  11.978  0.00  0.00    +0.015 C 
ENDBRANCH  11  18
ENDBRANCH  10  14
BRANCH  10  21
ATOM     21  O   LIG    1       23.774 -28.207   5.310  0.00  0.00    -0.387 OA
ATOM     22  H   LIG    1       23.297 -28.088   6.148  0.00  0.00    +0.210 HD
ENDBRANCH  10  21
ENDBRANCH   9  10
ENDBRANCH   8   9
ENDBRANCH   7   8
ENDBRANCH   1   7
BRANCH   4  23
ATOM     23  C   LIG    1       25.131 -20.932   7.072  0.00  0.00    +0.119 C 
BRANCH  23  24
ATOM     24  C   LIG    1       24.326 -20.420   5.846  0.00  0.00    -0.011 A 
ATOM     25  C   LIG    1       23.016 -19.915   5.986  0.00  0.00    +0.007 A 
ATOM     26  C   LIG    1       22.300 -19.422   4.893  0.00  0.00    +0.000 A 
ATOM     27  C   LIG    1       22.849 -19.466   3.621  0.00  0.00    +0.000 A 
ATOM     28  C   LIG    1       24.125 -19.992   3.445  0.00  0.00    +0.000 A 
ATOM     29  C   LIG    1       24.855 -20.462   4.543  0.00  0.00    +0.007 A 
ENDBRANCH  23  24
BRANCH  23  30
ATOM     30  C   LIG    1       26.621 -20.504   7.029  0.00  0.00    -0.011 A 
ATOM     31  C   LIG    1       27.394 -20.352   8.197  0.00  0.00    +0.007 A 
ATOM     32  C   LIG    1       28.739 -19.966   8.140  0.00  0.00    +0.000 A 
ATOM     33  C   LIG    1       29.338 -19.686   6.918  0.00  0.00    +0.000 A 
ATOM     34  C   LIG    1       28.581 -19.767   5.752  0.00  0.00    +0.000 A 
ATOM     35  C   LIG    1       27.240 -20.155   5.811  0.00  0.00    +0.007 A 
ENDBRANCH  23  30
BRANCH  23  36
ATOM     36  O   LIG    1       24.599 -20.274   8.250  0.00  0.00    -0.379 OA
ATOM     37  H   LIG    1       23.635 -20.402   8.252  0.00  0.00    +0.211 HD
ENDBRANCH  23  36
ENDBRANCH   4  23
TORSDOF 11
ENDMDL
MODEL 2
REMARK VINA RESULT:     -10.1      1.911      9.651
REMARK  Name = *****
REMARK                            x       y       z     vdW  Elec       q    Type
REMARK                         _______ _______ _______ _____ _____    ______ ____
ROOT
ATOM      1  N   LIG    1       25.195 -25.343   5.752  0.00  0.00    -0.302 NA
ATOM      2  C   LIG    1       26.201 -25.861   6.684  0.00  0.00    +0.085 C 
ATOM      3  C   LIG    1       25.801 -27.205   7.281  0.00  0.00    +0.022 C 
ATOM      4  C   LIG    1       25.570 -28.286   6.203  0.00  0.00    +0.032 C 
ATOM      5  C   LIG    1       24.731 -27.724   5.019  0.00  0.00    +0.022 C 
ATOM      6  C   LIG    1       25.092 -26.283   4.620  0.00  0.00    +0.085 C 
ENDROOT
BRANCH   1   7
ATOM      7  C   LIG    1       23.872 -25.068   6.352  0.00  0.00    +0.084 C 
BRANCH   7   8
ATOM      8  C   LIG    1       23.615 -23.600   6.756  0.00  0.00    +0.018 C 
BRANCH   8   9
ATOM      9  C   LIG    1       24.207 -22.635   5.712  0.00  0.00    +0.037 C 
BRANCH   9  10
ATOM     10  C   LIG    1       24.302 -21.172   6.197  0.00  0.00    +0.144 C 
BRANCH  10  14
ATOM     11  C   LIG    1       28.378 -19.999   7.326  0.00  0.00    -0.042 A 
ATOM     12  C   LIG    1       27.436 -20.382   8.293  0.00  0.00    +0.004 A 
ATOM     13  C   LIG    1       26.132 -20.751   7.938  0.00  0.00    +0.006 A 
ATOM     14  C   LIG    1       25.696 -20.728   6.604  0.00  0.00    -0.019 A 
ATOM     15  C   LIG    1       26.625 -20.326   5.637  0.00  0.00    +0.006 A 
ATOM     16  C   LIG    1       27.932 -19.959   5.995  0.00  0.00    +0.004 A 
BRANCH  11  18
ATOM     17  C   LIG    1       30.562 -19.150   6.451  0.00  0.00    +0.015 C 
ATOM     18  C   LIG    1       29.813 -19.598   7.720  0.00  0.00    -0.013 C 
ATOM     19  C   LIG    1       29.849 -18.441   8.745  0.00  0.00    +0.015 C 
ATOM     20  C   LIG    1       30.591 -20.770   8.365  0.00  0.00    +0.015 C 
ENDBRANCH  11  18
ENDBRANCH  10  14
BRANCH  10  21
ATOM     21  O   LIG    1       23.847 -20.315   5.149  0.00  0.00    -0.387 OA
ATOM     22  H   LIG    1       23.815 -20.848   4.336  0.00  0.00    +0.210 HD
ENDBRANCH  10  21
ENDBRANCH   9  10
ENDBRANCH   8   9
ENDBRANCH   7   8
ENDBRANCH   1   7
BRANCH   4  23
ATOM     23  C   LIG    1       25.016 -29.675   6.747  0.00  0.00    +0.119 C 
BRANCH  23  24
ATOM     24  C   LIG    1       24.938 -29.689   8.298  0.00  0.00    -0.011 A 
ATOM     25  C   LIG    1       26.043 -29.320   9.093  0.00  0.00    +0.007 A 
ATOM     26  C   LIG    1       25.969 -29.298  10.488  0.00  0.00    +0.000 A 
ATOM     27  C   LIG    1       24.806 -29.691  11.131  0.00  0.00    +0.000 A 
ATOM     28  C   LIG    1       23.709 -30.094  10.375  0.00  0.00    +0.000 A 
ATOM     29  C   LIG    1       23.773 -30.092   8.977  0.00  0.00    +0.007 A 
ENDBRANCH  23  24
BRANCH  23  30
ATOM     30  C   LIG    1       25.704 -30.941   6.172  0.00  0.00    -0.011 A 
ATOM     31  C   LIG    1       25.608 -31.298   4.813  0.00  0.00    +0.007 A 
ATOM     32  C   LIG    1       26.236 -32.444   4.311  0.00  0.00    +0.000 A 
ATOM     33  C   LIG    1       26.946 -33.285   5.158  0.00  0.00    +0.000 A 
ATOM     34  C   LIG    1       27.005 -32.991   6.518  0.00  0.00    +0.000 A 
ATOM     35  C   LIG    1       26.381 -31.846   7.017  0.00  0.00    +0.007 A 
ENDBRANCH  23  30
BRANCH  23  36
ATOM     36  O   LIG    1       23.659 -29.738   6.240  0.00  0.00    -0.379 OA
ATOM     37  H   LIG    1       23.083 -29.282   6.876  0.00  0.00    +0.211 HD
ENDBRANCH  23  36
ENDBRANCH   4  23
TORSDOF 11
ENDMDL
MODEL 3
REMARK VINA RESULT:      -9.4      3.028      8.579
REMARK  Name = *****
REMARK                            x       y       z     vdW  Elec       q    Type
REMARK                         _______ _______ _______ _____ _____    ______ ____
ROOT
ATOM      1  N   LIG    1       26.063 -30.143   9.400  0.00  0.00    -0.302 NA
ATOM      2  C   LIG    1       27.015 -29.072   9.706  0.00  0.00    +0.085 C 
ATOM      3  C   LIG    1       26.592 -28.247  10.916  0.00  0.00    +0.022 C 
ATOM      4  C   LIG    1       26.435 -29.105  12.192  0.00  0.00    +0.032 C 
ATOM      5  C   LIG    1       25.664 -30.421  11.888  0.00  0.00    +0.022 C 
ATOM      6  C   LIG    1       26.035 -31.073  10.545  0.00  0.00    +0.085 C 
ENDROOT
BRANCH   1   7
ATOM      7  C   LIG    1       24.703 -29.685   9.041  0.00  0.00    +0.084 C 
BRANCH   7   8
ATOM      8  C   LIG    1       24.492 -29.327   7.554  0.00  0.00    +0.018 C 
BRANCH   8   9
ATOM      9  C   LIG    1       25.257 -28.042   7.188  0.00  0.00    +0.037 C 
BRANCH   9  10
ATOM     10  C   LIG    1       24.539 -27.166   6.138  0.00  0.00    +0.144 C 
BRANCH  10  14
ATOM     11  C   LIG    1       24.894 -22.867   6.945  0.00  0.00    -0.042 A 
ATOM     12  C   LIG    1       23.648 -23.460   6.697  0.00  0.00    +0.004 A 
ATOM     13  C   LIG    1       23.530 -24.831   6.432  0.00  0.00    +0.006 A 
ATOM     14  C   LIG    1       24.654 -25.670   6.374  0.00  0.00    -0.019 A 
ATOM     15  C   LIG    1       25.903 -25.079   6.600  0.00  0.00    +0.006 A 
ATOM     16  C   LIG    1       26.018 -23.706   6.867  0.00  0.00    +0.004 A 
BRANCH  11  18
ATOM     17  C   LIG    1       25.758 -20.689   6.067  0.00  0.00    +0.015 C 
ATOM     18  C   LIG    1       25.020 -21.359   7.240  0.00  0.00    -0.013 C 
ATOM     19  C   LIG    1       23.647 -20.669   7.414  0.00  0.00    +0.015 C 
ATOM     20  C   LIG    1       25.808 -21.082   8.543  0.00  0.00    +0.015 C 
ENDBRANCH  11  18
ENDBRANCH  10  14
BRANCH  10  21
ATOM     21  O   LIG    1       25.086 -27.460   4.852  0.00  0.00    -0.387 OA
ATOM     22  H   LIG    1       25.659 -28.238   4.955  0.00  0.00    +0.210 HD
ENDBRANCH  10  21
ENDBRANCH   9  10
ENDBRANCH   8   9
ENDBRANCH   7   8
ENDBRANCH   1   7
BRANCH   4  23
ATOM     23  C   LIG    1       25.863 -28.331  13.459  0.00  0.00    +0.119 C 
BRANCH  23  24
ATOM     24  C   LIG    1       24.373 -27.938  13.262  0.00  0.00    -0.011 A 
ATOM     25  C   LIG    1       23.456 -28.819  12.652  0.00  0.00    +0.007 A 
ATOM     26  C   LIG    1       22.107 -28.485  12.503  0.00  0.00    +0.000 A 
ATOM     27  C   LIG    1       21.646 -27.243  12.911  0.00  0.00    +0.000 A 
ATOM     28  C   LIG    1       22.535 -26.338  13.483  0.00  0.00    +0.000 A 
ATOM     29  C   LIG    1       23.880 -26.681  13.658  0.00  0.00    +0.007 A 
ENDBRANCH  23  24
BRANCH  23  30
ATOM     30  C   LIG    1       26.730 -27.151  13.970  0.00  0.00    -0.011 A 
ATOM     31  C   LIG    1       26.718 -25.884  13.351  0.00  0.00    +0.007 A 
ATOM     32  C   LIG    1       27.507 -24.830  13.826  0.00  0.00    +0.000 A 
ATOM     33  C   LIG    1       28.357 -25.021  14.908  0.00  0.00    +0.000 A 
ATOM     34  C   LIG    1       28.436 -26.278  15.500  0.00  0.00    +0.000 A 
ATOM     35  C   LIG    1       27.646 -27.329  15.027  0.00  0.00    +0.007 A 
ENDBRANCH  23  30
BRANCH  23  36
ATOM     36  O   LIG    1       25.919 -29.311  14.525  0.00  0.00    -0.379 OA
ATOM     37  H   LIG    1       26.848 -29.404  14.795  0.00  0.00    +0.211 HD
ENDBRANCH  23  36
ENDBRANCH   4  23
TORSDOF 11
ENDMDL
MODEL 4
REMARK VINA RESULT:      -9.3      2.801      9.271
REMARK  Name = *****
REMARK                            x       y       z     vdW  Elec       q    Type
REMARK                         _______ _______ _______ _____ _____    ______ ____
ROOT
ATOM      1  N   LIG    1       25.895 -30.864   8.416  0.00  0.00    -0.302 NA
ATOM      2  C   LIG    1       26.326 -29.655   9.123  0.00  0.00    +0.085 C 
ATOM      3  C   LIG    1       25.356 -29.252  10.229  0.00  0.00    +0.022 C 
ATOM      4  C   LIG    1       25.167 -30.364  11.284  0.00  0.00    +0.032 C 
ATOM      5  C   LIG    1       24.982 -31.752  10.607  0.00  0.00    +0.022 C 
ATOM      6  C   LIG    1       25.881 -31.980   9.380  0.00  0.00    +0.085 C 
ENDROOT
BRANCH   1   7
ATOM      7  C   LIG    1       24.602 -30.744   7.707  0.00  0.00    +0.084 C 
BRANCH   7   8
ATOM      8  C   LIG    1       24.642 -29.960   6.377  0.00  0.00    +0.018 C 
BRANCH   8   9
ATOM      9  C   LIG    1       24.218 -28.495   6.594  0.00  0.00    +0.037 C 
BRANCH   9  10
ATOM     10  C   LIG    1       24.920 -27.496   5.649  0.00  0.00    +0.144 C 
BRANCH  10  14
ATOM     11  C   LIG    1       24.863 -23.292   6.908  0.00  0.00    -0.042 A 
ATOM     12  C   LIG    1       26.060 -24.022   6.864  0.00  0.00    +0.004 A 
ATOM     13  C   LIG    1       26.083 -25.367   6.468  0.00  0.00    +0.006 A 
ATOM     14  C   LIG    1       24.907 -26.055   6.127  0.00  0.00    -0.019 A 
ATOM     15  C   LIG    1       23.707 -25.337   6.190  0.00  0.00    +0.006 A 
ATOM     16  C   LIG    1       23.687 -23.990   6.583  0.00  0.00    +0.004 A 
BRANCH  11  18
ATOM     17  C   LIG    1       23.383 -21.401   7.609  0.00  0.00    +0.015 C 
ATOM     18  C   LIG    1       24.842 -21.812   7.338  0.00  0.00    -0.013 C 
ATOM     19  C   LIG    1       25.670 -21.552   8.617  0.00  0.00    +0.015 C 
ATOM     20  C   LIG    1       25.425 -20.879   6.250  0.00  0.00    +0.015 C 
ENDBRANCH  11  18
ENDBRANCH  10  14
BRANCH  10  21
ATOM     21  O   LIG    1       26.280 -27.902   5.487  0.00  0.00    -0.387 OA
ATOM     22  H   LIG    1       26.270 -28.832   5.203  0.00  0.00    +0.210 HD
ENDBRANCH  10  21
ENDBRANCH   9  10
ENDBRANCH   8   9
ENDBRANCH   7   8
ENDBRANCH   1   7
BRANCH   4  23
ATOM     23  C   LIG    1       24.064 -30.063  12.391  0.00  0.00    +0.119 C 
BRANCH  23  24
ATOM     24  C   LIG    1       22.698 -30.702  12.022  0.00  0.00    -0.011 A 
ATOM     25  C   LIG    1       22.024 -30.360  10.831  0.00  0.00    +0.007 A 
ATOM     26  C   LIG    1       20.812 -30.956  10.476  0.00  0.00    +0.000 A 
ATOM     27  C   LIG    1       20.210 -31.873  11.325  0.00  0.00    +0.000 A 
ATOM     28  C   LIG    1       20.832 -32.204  12.525  0.00  0.00    +0.000 A 
ATOM     29  C   LIG    1       22.060 -31.628  12.868  0.00  0.00    +0.007 A 
ENDBRANCH  23  24
BRANCH  23  30
ATOM     30  C   LIG    1       23.933 -28.578  12.819  0.00  0.00    -0.011 A 
ATOM     31  C   LIG    1       25.040 -27.818  13.246  0.00  0.00    +0.007 A 
ATOM     32  C   LIG    1       24.904 -26.478  13.628  0.00  0.00    +0.000 A 
ATOM     33  C   LIG    1       23.655 -25.871  13.630  0.00  0.00    +0.000 A 
ATOM     34  C   LIG    1       22.534 -26.616  13.273  0.00  0.00    +0.000 A 
ATOM     35  C   LIG    1       22.672 -27.952  12.888  0.00  0.00    +0.007 A 
ENDBRANCH  23  30
BRANCH  23  36
ATOM     36  O   LIG    1       24.558 -30.740  13.574  0.00  0.00    -0.379 OA
ATOM     37  H   LIG    1       23.856 -30.717  14.245  0.00  0.00    +0.211 HD
ENDBRANCH  23  36
ENDBRANCH   4  23
TORSDOF 11
ENDMDL
MODEL 5
REMARK VINA RESULT:      -9.3      2.899      9.086
REMARK  Name = *****
REMARK                            x       y       z     vdW  Elec       q    Type
REMARK                         _______ _______ _______ _____ _____    ______ ____
ROOT
ATOM      1  N   LIG    1       24.664 -31.072   9.282  0.00  0.00    -0.302 NA
ATOM      2  C   LIG    1       25.293 -31.754  10.417  0.00  0.00    +0.085 C 
ATOM      3  C   LIG    1       25.327 -30.885  11.670  0.00  0.00    +0.022 C 
ATOM      4  C   LIG    1       23.918 -30.440  12.120  0.00  0.00    +0.032 C 
ATOM      5  C   LIG    1       23.071 -29.957  10.908  0.00  0.00    +0.022 C 
ATOM      6  C   LIG    1       23.258 -30.797   9.633  0.00  0.00    +0.085 C 
ENDROOT
BRANCH   1   7
ATOM      7  C   LIG    1       25.359 -29.848   8.828  0.00  0.00    +0.084 C 
BRANCH   7   8
ATOM      8  C   LIG    1       24.901 -29.290   7.463  0.00  0.00    +0.018 C 
BRANCH   8   9
ATOM      9  C   LIG    1       25.508 -27.898   7.210  0.00  0.00    +0.037 C 
BRANCH   9  10
ATOM     10  C   LIG    1       24.704 -27.037   6.211  0.00  0.00    +0.144 C 
BRANCH  10  14
ATOM     11  C   LIG    1       24.818 -22.699   6.860  0.00  0.00    -0.042 A 
ATOM     12  C   LIG    1       25.989 -23.470   6.894  0.00  0.00    +0.004 A 
ATOM     13  C   LIG    1       25.957 -24.857   6.694  0.00  0.00    +0.006 A 
ATOM     14  C   LIG    1       24.751 -25.543   6.479  0.00  0.00    -0.019 A 
ATOM     15  C   LIG    1       23.577 -24.781   6.466  0.00  0.00    +0.006 A 
ATOM     16  C   LIG    1       23.612 -23.392   6.665  0.00  0.00    +0.004 A 
BRANCH  11  18
ATOM     17  C   LIG    1       25.567 -20.526   5.874  0.00  0.00    +0.015 C 
ATOM     18  C   LIG    1       24.857 -21.173   7.076  0.00  0.00    -0.013 C 
ATOM     19  C   LIG    1       23.446 -20.553   7.204  0.00  0.00    +0.015 C 
ATOM     20  C   LIG    1       25.616 -20.784   8.368  0.00  0.00    +0.015 C 
ENDBRANCH  11  18
ENDBRANCH  10  14
BRANCH  10  21
ATOM     21  O   LIG    1       25.212 -27.273   4.897  0.00  0.00    -0.387 OA
ATOM     22  H   LIG    1       25.975 -26.683   4.774  0.00  0.00    +0.210 HD
ENDBRANCH  10  21
ENDBRANCH   9  10
ENDBRANCH   8   9
ENDBRANCH   7   8
ENDBRANCH   1   7
BRANCH   4  23
ATOM     23  C   LIG    1       23.891 -29.418  13.340  0.00  0.00    +0.119 C 
BRANCH  23  24
ATOM     24  C   LIG    1       22.545 -28.647  13.408  0.00  0.00    -0.011 A 
ATOM     25  C   LIG    1       22.477 -27.263  13.145  0.00  0.00    +0.007 A 
ATOM     26  C   LIG    1       21.265 -26.570  13.172  0.00  0.00    +0.000 A 
ATOM     27  C   LIG    1       20.092 -27.228  13.511  0.00  0.00    +0.000 A 
ATOM     28  C   LIG    1       20.133 -28.586  13.812  0.00  0.00    +0.000 A 
ATOM     29  C   LIG    1       21.342 -29.287  13.760  0.00  0.00    +0.007 A 
ENDBRANCH  23  24
BRANCH  23  30
ATOM     30  C   LIG    1       25.123 -28.482  13.455  0.00  0.00    -0.011 A 
ATOM     31  C   LIG    1       25.627 -27.761  12.354  0.00  0.00    +0.007 A 
ATOM     32  C   LIG    1       26.739 -26.921  12.477  0.00  0.00    +0.000 A 
ATOM     33  C   LIG    1       27.402 -26.805  13.692  0.00  0.00    +0.000 A 
ATOM     34  C   LIG    1       26.965 -27.553  14.782  0.00  0.00    +0.000 A 
ATOM     35  C   LIG    1       25.853 -28.389  14.659  0.00  0.00    +0.007 A 
ENDBRANCH  23  30
BRANCH  23  36
ATOM     36  O   LIG    1       23.970 -30.267  14.512  0.00  0.00    -0.379 OA
ATOM     37  H   LIG    1       24.484 -29.795  15.188  0.00  0.00    +0.211 HD
ENDBRANCH  23  36
ENDBRANCH   4  23
TORSDOF 11
ENDMDL
MODEL 6
REMARK VINA RESULT:      -9.1      1.255      2.173
REMARK  Name = *****
REMARK                            x       y       z     vdW  Elec       q    Type
REMARK                         _______ _______ _______ _____ _____    ______ ____
ROOT
ATOM      1  N   LIG    1       24.544 -25.762   5.920  0.00  0.00    -0.302 NA
ATOM      2  C   LIG    1       23.330 -25.150   6.468  0.00  0.00    +0.085 C 
ATOM      3  C   LIG    1       23.571 -23.732   6.973  0.00  0.00    +0.022 C 
ATOM      4  C   LIG    1       24.104 -22.793   5.868  0.00  0.00    +0.032 C 
ATOM      5  C   LIG    1       25.225 -23.484   5.040  0.00  0.00    +0.022 C 
ATOM      6  C   LIG    1       24.967 -24.972   4.748  0.00  0.00    +0.085 C 
ENDROOT
BRANCH   1   7
ATOM      7  C   LIG    1       25.650 -25.929   6.888  0.00  0.00    +0.084 C 
BRANCH   7   8
ATOM      8  C   LIG    1       26.018 -27.388   7.234  0.00  0.00    +0.018 C 
BRANCH   8   9
ATOM      9  C   LIG    1       24.968 -28.364   6.670  0.00  0.00    +0.037 C 
BRANCH   9  10
ATOM     10  C   LIG    1       25.000 -29.762   7.325  0.00  0.00    +0.144 C 
BRANCH  10  14
ATOM     11  C   LIG    1       24.126 -29.678  11.625  0.00  0.00    -0.042 A 
ATOM     12  C   LIG    1       25.387 -29.312  11.132  0.00  0.00    +0.004 A 
ATOM     13  C   LIG    1       25.673 -29.343   9.760  0.00  0.00    +0.006 A 
ATOM     14  C   LIG    1       24.722 -29.769   8.818  0.00  0.00    -0.019 A 
ATOM     15  C   LIG    1       23.469 -30.156   9.308  0.00  0.00    +0.006 A 
ATOM     16  C   LIG    1       23.184 -30.121  10.681  0.00  0.00    +0.004 A 
BRANCH  11  18
ATOM     17  C   LIG    1       25.111 -29.308  13.895  0.00  0.00    +0.015 C 
ATOM     18  C   LIG    1       23.813 -29.638  13.134  0.00  0.00    -0.013 C 
ATOM     19  C   LIG    1       22.750 -28.574  13.495  0.00  0.00    +0.015 C 
ATOM     20  C   LIG    1       23.264 -30.988  13.653  0.00  0.00    +0.015 C 
ENDBRANCH  11  18
ENDBRANCH  10  14
BRANCH  10  21
ATOM     21  O   LIG    1       24.025 -30.586   6.684  0.00  0.00    -0.387 OA
ATOM     22  H   LIG    1       24.466 -31.023   5.936  0.00  0.00    +0.210 HD
ENDBRANCH  10  21
ENDBRANCH   9  10
ENDBRANCH   8   9
ENDBRANCH   7   8
ENDBRANCH   1   7
BRANCH   4  23
ATOM     23  C   LIG    1       24.507 -21.334   6.359  0.00  0.00    +0.119 C 
BRANCH  23  24
ATOM     24  C   LIG    1       23.945 -20.239   5.413  0.00  0.00    -0.011 A 
ATOM     25  C   LIG    1       22.678 -19.659   5.631  0.00  0.00    +0.007 A 
ATOM     26  C   LIG    1       22.181 -18.649   4.804  0.00  0.00    +0.000 A 
ATOM     27  C   LIG    1       22.912 -18.223   3.706  0.00  0.00    +0.000 A 
ATOM     28  C   LIG    1       24.151 -18.801   3.443  0.00  0.00    +0.000 A 
ATOM     29  C   LIG    1       24.662 -19.794   4.286  0.00  0.00    +0.007 A 
ENDBRANCH  23  24
BRANCH  23  30
ATOM     30  C   LIG    1       26.010 -21.130   6.685  0.00  0.00    -0.011 A 
ATOM     31  C   LIG    1       26.624 -21.721   7.807  0.00  0.00    +0.007 A 
ATOM     32  C   LIG    1       27.982 -21.526   8.085  0.00  0.00    +0.000 A 
ATOM     33  C   LIG    1       28.756 -20.707   7.273  0.00  0.00    +0.000 A 
ATOM     34  C   LIG    1       28.161 -20.059   6.193  0.00  0.00    +0.000 A 
ATOM     35  C   LIG    1       26.806 -20.257   5.915  0.00  0.00    +0.007 A 
ENDBRANCH  23  30
BRANCH  23  36
ATOM     36  O   LIG    1       23.837 -21.195   7.637  0.00  0.00    -0.379 OA
ATOM     37  H   LIG    1       24.499 -20.917   8.292  0.00  0.00    +0.211 HD
ENDBRANCH  23  36
ENDBRANCH   4  23
TORSDOF 11
ENDMDL
MODEL 7
REMARK VINA RESULT:      -9.0      1.384      2.247
REMARK  Name = *****
REMARK                            x       y       z     vdW  Elec       q    Type
REMARK                         _______ _______ _______ _____ _____    ______ ____
ROOT
ATOM      1  N   LIG    1       24.582 -25.775   5.892  0.00  0.00    -0.302 NA
ATOM      2  C   LIG    1       23.369 -25.177   6.460  0.00  0.00    +0.085 C 
ATOM      3  C   LIG    1       23.605 -23.760   6.969  0.00  0.00    +0.022 C 
ATOM      4  C   LIG    1       24.116 -22.810   5.863  0.00  0.00    +0.032 C 
ATOM      5  C   LIG    1       25.232 -23.487   5.017  0.00  0.00    +0.022 C 
ATOM      6  C   LIG    1       24.982 -24.976   4.720  0.00  0.00    +0.085 C 
ENDROOT
BRANCH   1   7
ATOM      7  C   LIG    1       25.701 -25.938   6.845  0.00  0.00    +0.084 C 
BRANCH   7   8
ATOM      8  C   LIG    1       26.212 -27.383   7.031  0.00  0.00    +0.018 C 
BRANCH   8   9
ATOM      9  C   LIG    1       25.058 -28.393   6.886  0.00  0.00    +0.037 C 
BRANCH   9  10
ATOM     10  C   LIG    1       25.155 -29.595   7.851  0.00  0.00    +0.144 C 
BRANCH  10  14
ATOM     11  C   LIG    1       26.164 -28.632  12.012  0.00  0.00    -0.042 A 
ATOM     12  C   LIG    1       24.959 -29.272  11.685  0.00  0.00    +0.004 A 
ATOM     13  C   LIG    1       24.629 -29.576  10.357  0.00  0.00    +0.006 A 
ATOM     14  C   LIG    1       25.474 -29.229   9.290  0.00  0.00    -0.019 A 
ATOM     15  C   LIG    1       26.667 -28.571   9.610  0.00  0.00    +0.006 A 
ATOM     16  C   LIG    1       26.996 -28.270  10.940  0.00  0.00    +0.004 A 
BRANCH  11  18
ATOM     17  C   LIG    1       25.439 -28.893  14.392  0.00  0.00    +0.015 C 
ATOM     18  C   LIG    1       26.525 -28.303  13.474  0.00  0.00    -0.013 C 
ATOM     19  C   LIG    1       27.893 -28.888  13.896  0.00  0.00    +0.015 C 
ATOM     20  C   LIG    1       26.613 -26.779  13.727  0.00  0.00    +0.015 C 
ENDBRANCH  11  18
ENDBRANCH  10  14
BRANCH  10  21
ATOM     21  O   LIG    1       23.910 -30.295   7.832  0.00  0.00    -0.387 OA
ATOM     22  H   LIG    1       24.085 -31.181   7.470  0.00  0.00    +0.210 HD
ENDBRANCH  10  21
ENDBRANCH   9  10
ENDBRANCH   8   9
ENDBRANCH   7   8
ENDBRANCH   1   7
BRANCH   4  23
ATOM     23  C   LIG    1       24.513 -21.351   6.357  0.00  0.00    +0.119 C 
BRANCH  23  24
ATOM     24  C   LIG    1       23.931 -20.255   5.425  0.00  0.00    -0.011 A 
ATOM     25  C   LIG    1       24.625 -19.823   4.275  0.00  0.00    +0.007 A 
ATOM     26  C   LIG    1       24.091 -18.862   3.413  0.00  0.00    +0.000 A 
ATOM     27  C   LIG    1       22.873 -18.267   3.701  0.00  0.00    +0.000 A 
ATOM     28  C   LIG    1       22.180 -18.645   4.847  0.00  0.00    +0.000 A 
ATOM     29  C   LIG    1       22.701 -19.627   5.697  0.00  0.00    +0.007 A 
ENDBRANCH  23  24
BRANCH  23  30
ATOM     30  C   LIG    1       26.018 -21.136   6.666  0.00  0.00    -0.011 A 
ATOM     31  C   LIG    1       26.643 -21.700   7.796  0.00  0.00    +0.007 A 
ATOM     32  C   LIG    1       28.003 -21.496   8.058  0.00  0.00    +0.000 A 
ATOM     33  C   LIG    1       28.768 -20.694   7.220  0.00  0.00    +0.000 A 
ATOM     34  C   LIG    1       28.163 -20.073   6.131  0.00  0.00    +0.000 A 
ATOM     35  C   LIG    1       26.806 -20.280   5.869  0.00  0.00    +0.007 A 
ENDBRANCH  23  30
BRANCH  23  36
ATOM     36  O   LIG    1       23.858 -21.224   7.644  0.00  0.00    -0.379 OA
ATOM     37  H   LIG    1       23.419 -22.069   7.840  0.00  0.00    +0.211 HD
ENDBRANCH  23  36
ENDBRANCH   4  23
TORSDOF 11
ENDMDL
MODEL 8
REMARK VINA RESULT:      -8.9      2.638      9.475
REMARK  Name = *****
REMARK                            x       y       z     vdW  Elec       q    Type
REMARK                         _______ _______ _______ _____ _____    ______ ____
ROOT
ATOM      1  N   LIG    1       25.312 -31.819   5.794  0.00  0.00    -0.302 NA
ATOM      2  C   LIG    1       26.142 -32.728   6.589  0.00  0.00    +0.085 C 
ATOM      3  C   LIG    1       26.201 -32.325   8.058  0.00  0.00    +0.022 C 
ATOM      4  C   LIG    1       24.804 -32.279   8.716  0.00  0.00    +0.032 C 
ATOM      5  C   LIG    1       23.776 -31.564   7.793  0.00  0.00    +0.022 C 
ATOM      6  C   LIG    1       23.929 -31.899   6.300  0.00  0.00    +0.085 C 
ENDROOT
BRANCH   1   7
ATOM      7  C   LIG    1       25.791 -30.420   5.744  0.00  0.00    +0.084 C 
BRANCH   7   8
ATOM      8  C   LIG    1       24.735 -29.369   5.341  0.00  0.00    +0.018 C 
BRANCH   8   9
ATOM      9  C   LIG    1       24.999 -28.029   6.053  0.00  0.00    +0.037 C 
BRANCH   9  10
ATOM     10  C   LIG    1       25.626 -26.950   5.143  0.00  0.00    +0.144 C 
BRANCH  10  14
ATOM     11  C   LIG    1       25.204 -22.792   6.479  0.00  0.00    -0.042 A 
ATOM     12  C   LIG    1       25.784 -23.767   7.305  0.00  0.00    +0.004 A 
ATOM     13  C   LIG    1       25.915 -25.097   6.885  0.00  0.00    +0.006 A 
ATOM     14  C   LIG    1       25.447 -25.524   5.632  0.00  0.00    -0.019 A 
ATOM     15  C   LIG    1       24.849 -24.560   4.813  0.00  0.00    +0.006 A 
ATOM     16  C   LIG    1       24.721 -23.228   5.234  0.00  0.00    +0.004 A 
BRANCH  11  18
ATOM     17  C   LIG    1       25.723 -20.417   5.889  0.00  0.00    +0.015 C 
ATOM     18  C   LIG    1       25.066 -21.328   6.942  0.00  0.00    -0.013 C 
ATOM     19  C   LIG    1       23.592 -20.894   7.115  0.00  0.00    +0.015 C 
ATOM     20  C   LIG    1       25.750 -21.080   8.308  0.00  0.00    +0.015 C 
ENDBRANCH  11  18
ENDBRANCH  10  14
BRANCH  10  21
ATOM     21  O   LIG    1       27.025 -27.212   5.026  0.00  0.00    -0.387 OA
ATOM     22  H   LIG    1       27.209 -28.021   5.533  0.00  0.00    +0.210 HD
ENDBRANCH  10  21
ENDBRANCH   9  10
ENDBRANCH   8   9
ENDBRANCH   7   8
ENDBRANCH   1   7
BRANCH   4  23
ATOM     23  C   LIG    1       24.780 -31.733  10.210  0.00  0.00    +0.119 C 
BRANCH  23  24
ATOM     24  C   LIG    1       23.331 -31.644  10.761  0.00  0.00    -0.011 A 
ATOM     25  C   LIG    1       22.593 -32.803  11.078  0.00  0.00    +0.007 A 
ATOM     26  C   LIG    1       21.301 -32.730  11.605  0.00  0.00    +0.000 A 
ATOM     27  C   LIG    1       20.690 -31.499  11.785  0.00  0.00    +0.000 A 
ATOM     28  C   LIG    1       21.379 -30.337  11.448  0.00  0.00    +0.000 A 
ATOM     29  C   LIG    1       22.683 -30.408  10.944  0.00  0.00    +0.007 A 
ENDBRANCH  23  24
BRANCH  23  30
ATOM     30  C   LIG    1       25.596 -30.438  10.462  0.00  0.00    -0.011 A 
ATOM     31  C   LIG    1       25.892 -29.522   9.432  0.00  0.00    +0.007 A 
ATOM     32  C   LIG    1       26.629 -28.358   9.678  0.00  0.00    +0.000 A 
ATOM     33  C   LIG    1       27.123 -28.094  10.950  0.00  0.00    +0.000 A 
ATOM     34  C   LIG    1       26.900 -29.012  11.972  0.00  0.00    +0.000 A 
ATOM     35  C   LIG    1       26.161 -30.172  11.726  0.00  0.00    +0.007 A 
ENDBRANCH  23  30
BRANCH  23  36
ATOM     36  O   LIG    1       25.475 -32.753  10.970  0.00  0.00    -0.379 OA
ATOM     37  H   LIG    1       25.337 -33.604  10.521  0.00  0.00    +0.211 HD
ENDBRANCH  23  36
ENDBRANCH   4  23
TORSDOF 11
ENDMDL
MODEL 9
REMARK VINA RESULT:      -8.8      1.205      3.484
REMARK  Name = *****
REMARK                            x       y       z     vdW  Elec       q    Type
REMARK                         _______ _______ _______ _____ _____    ______ ____
ROOT
ATOM      1  N   LIG    1       24.441 -25.544   6.500  0.00  0.00    -0.302 NA
ATOM      2  C   LIG    1       25.554 -24.969   7.260  0.00  0.00    +0.085 C 
ATOM      3  C   LIG    1       26.112 -23.709   6.608  0.00  0.00    +0.022 C 
ATOM      4  C   LIG    1       25.045 -22.604   6.444  0.00  0.00    +0.032 C 
ATOM      5  C   LIG    1       23.713 -23.192   5.896  0.00  0.00    +0.022 C 
ATOM      6  C   LIG    1       23.340 -24.563   6.486  0.00  0.00    +0.085 C 
ENDROOT
BRANCH   1   7
ATOM      7  C   LIG    1       24.785 -25.992   5.133  0.00  0.00    +0.084 C 
BRANCH   7   8
ATOM      8  C   LIG    1       25.134 -27.489   4.991  0.00  0.00    +0.018 C 
BRANCH   8   9
ATOM      9  C   LIG    1       24.045 -28.367   5.635  0.00  0.00    +0.037 C 
BRANCH   9  10
ATOM     10  C   LIG    1       24.588 -29.657   6.288  0.00  0.00    +0.144 C 
BRANCH  10  14
ATOM     11  C   LIG    1       25.495 -29.195  10.556  0.00  0.00    -0.042 A 
ATOM     12  C   LIG    1       26.294 -28.593   9.573  0.00  0.00    +0.004 A 
ATOM     13  C   LIG    1       26.012 -28.743   8.208  0.00  0.00    +0.006 A 
ATOM     14  C   LIG    1       24.936 -29.525   7.760  0.00  0.00    -0.019 A 
ATOM     15  C   LIG    1       24.149 -30.146   8.736  0.00  0.00    +0.006 A 
ATOM     16  C   LIG    1       24.431 -29.993  10.102  0.00  0.00    +0.004 A 
BRANCH  11  18
ATOM     17  C   LIG    1       26.941 -27.996  12.209  0.00  0.00    +0.015 C 
ATOM     18  C   LIG    1       25.805 -29.025  12.056  0.00  0.00    -0.013 C 
ATOM     19  C   LIG    1       24.584 -28.529  12.865  0.00  0.00    +0.015 C 
ATOM     20  C   LIG    1       26.248 -30.352  12.717  0.00  0.00    +0.015 C 
ENDBRANCH  11  18
ENDBRANCH  10  14
BRANCH  10  21
ATOM     21  O   LIG    1       23.605 -30.684   6.150  0.00  0.00    -0.387 OA
ATOM     22  H   LIG    1       23.815 -31.175   5.337  0.00  0.00    +0.210 HD
ENDBRANCH  10  21
ENDBRANCH   9  10
ENDBRANCH   8   9
ENDBRANCH   7   8
ENDBRANCH   1   7
BRANCH   4  23
ATOM     23  C   LIG    1       25.526 -21.314   5.646  0.00  0.00    +0.119 C 
BRANCH  23  24
ATOM     24  C   LIG    1       26.722 -20.620   6.352  0.00  0.00    -0.011 A 
ATOM     25  C   LIG    1       26.799 -20.540   7.758  0.00  0.00    +0.007 A 
ATOM     26  C   LIG    1       27.888 -19.947   8.401  0.00  0.00    +0.000 A 
ATOM     27  C   LIG    1       28.908 -19.372   7.658  0.00  0.00    +0.000 A 
ATOM     28  C   LIG    1       28.844 -19.403   6.269  0.00  0.00    +0.000 A 
ATOM     29  C   LIG    1       27.766 -20.020   5.623  0.00  0.00    +0.007 A 
ENDBRANCH  23  24
BRANCH  23  30
ATOM     30  C   LIG    1       24.406 -20.317   5.248  0.00  0.00    -0.011 A 
ATOM     31  C   LIG    1       23.216 -20.187   5.992  0.00  0.00    +0.007 A 
ATOM     32  C   LIG    1       22.215 -19.282   5.618  0.00  0.00    +0.000 A 
ATOM     33  C   LIG    1       22.359 -18.508   4.473  0.00  0.00    +0.000 A 
ATOM     34  C   LIG    1       23.496 -18.661   3.685  0.00  0.00    +0.000 A 
ATOM     35  C   LIG    1       24.495 -19.563   4.060  0.00  0.00    +0.007 A 
ENDBRANCH  23  30
BRANCH  23  36
ATOM     36  O   LIG    1       26.009 -21.840   4.384  0.00  0.00    -0.379 OA
ATOM     37  H   LIG    1       25.760 -22.778   4.338  0.00  0.00    +0.211 HD
ENDBRANCH  23  36
ENDBRANCH   4  23
TORSDOF 11
ENDMDL
