MODEL 1
REMARK VINA RESULT:      -7.3      0.000      0.000
REMARK  Name = *****
REMARK                            x       y       z     vdW  Elec       q    Type
REMARK                         _______ _______ _______ _____ _____    ______ ____
ROOT
ATOM      1 BR   LIG    1       25.300 -20.211   4.569  0.00  0.00    -0.044 Br
ATOM      2  C   LIG    1       26.458 -20.682   6.020  0.00  0.00    +0.087 A 
ATOM      3  C   LIG    1       27.701 -20.036   6.133  0.00  0.00    +0.106 A 
ATOM      4  C   LIG    1       28.549 -20.404   7.210  0.00  0.00    +0.090 A 
ATOM      5  N   LIG    1       29.755 -19.836   7.398  0.00  0.00    -0.252 NA
ATOM      6  C   LIG    1       30.129 -18.896   6.507  0.00  0.00    +0.131 A 
ATOM      7  C   LIG    1       29.322 -18.522   5.458  0.00  0.00    +0.131 A 
ATOM      8  C   LIG    1       28.139 -21.376   8.108  0.00  0.00    +0.033 A 
ATOM      9  C   LIG    1       26.903 -22.003   7.982  0.00  0.00    +0.049 A 
ATOM     10  N   LIG    1       28.107 -19.076   5.259  0.00  0.00    -0.251 NA
ATOM     11  C   LIG    1       26.041 -21.656   6.945  0.00  0.00    +0.158 A 
ENDROOT
BRANCH  11  12
ATOM     12  N   LIG    1       24.816 -22.337   6.850  0.00  0.00    -0.076 NA
ATOM     13  C   LIG    1       24.798 -23.496   6.291  0.00  0.00    +0.370 C 
ATOM     14  N   LIG    1       25.814 -24.263   5.786  0.00  0.00    -0.235 N 
ATOM     15  H   LIG    1       26.760 -24.054   6.070  0.00  0.00    +0.244 HD
ATOM     16  C   LIG    1       25.424 -25.650   5.593  0.00  0.00    +0.219 C 
ATOM     17  C   LIG    1       23.939 -25.652   5.995  0.00  0.00    +0.219 C 
ATOM     18  N   LIG    1       23.657 -24.241   6.178  0.00  0.00    -0.235 N 
ATOM     19  H   LIG    1       22.903 -23.958   6.790  0.00  0.00    +0.244 HD
ENDBRANCH  11  12
TORSDOF 1
ENDMDL
MODEL 2
REMARK VINA RESULT:      -7.3      2.955      7.123
REMARK  Name = *****
REMARK                            x       y       z     vdW  Elec       q    Type
REMARK                         _______ _______ _______ _____ _____    ______ ____
ROOT
ATOM      1 BR   LIG    1       30.534 -21.279   8.969  0.00  0.00    -0.044 Br
ATOM      2  C   LIG    1       29.620 -20.333   7.576  0.00  0.00    +0.087 A 
ATOM      3  C   LIG    1       28.377 -20.815   7.131  0.00  0.00    +0.106 A 
ATOM      4  C   LIG    1       27.719 -20.105   6.092  0.00  0.00    +0.090 A 
ATOM      5  N   LIG    1       26.525 -20.493   5.606  0.00  0.00    -0.252 NA
ATOM      6  C   LIG    1       25.977 -21.598   6.150  0.00  0.00    +0.131 A 
ATOM      7  C   LIG    1       26.596 -22.298   7.159  0.00  0.00    +0.131 A 
ATOM      8  C   LIG    1       28.308 -18.975   5.550  0.00  0.00    +0.033 A 
ATOM      9  C   LIG    1       29.539 -18.510   6.006  0.00  0.00    +0.049 A 
ATOM     10  N   LIG    1       27.790 -21.920   7.662  0.00  0.00    -0.251 NA
ATOM     11  C   LIG    1       30.205 -19.174   7.032  0.00  0.00    +0.158 A 
ENDROOT
BRANCH  11  12
ATOM     12  N   LIG    1       31.455 -18.678   7.437  0.00  0.00    -0.076 NA
ATOM     13  C   LIG    1       31.497 -17.834   8.407  0.00  0.00    +0.370 C 
ATOM     14  N   LIG    1       30.501 -17.334   9.204  0.00  0.00    -0.235 N 
ATOM     15  H   LIG    1       29.623 -17.832   9.243  0.00  0.00    +0.244 HD
ATOM     16  C   LIG    1       31.013 -16.708  10.412  0.00  0.00    +0.219 C 
ATOM     17  C   LIG    1       32.537 -16.817  10.239  0.00  0.00    +0.219 C 
ATOM     18  N   LIG    1       32.670 -17.319   8.885  0.00  0.00    -0.235 N 
ATOM     19  H   LIG    1       33.499 -17.837   8.623  0.00  0.00    +0.244 HD
ENDBRANCH  11  12
TORSDOF 1
ENDMDL
MODEL 3
REMARK VINA RESULT:      -7.1      2.329      6.450
REMARK  Name = *****
REMARK                            x       y       z     vdW  Elec       q    Type
REMARK                         _______ _______ _______ _____ _____    ______ ____
ROOT
ATOM      1 BR   LIG    1       29.165 -18.104   5.139  0.00  0.00    -0.044 Br
ATOM      2  C   LIG    1       28.772 -19.609   6.256  0.00  0.00    +0.087 A 
ATOM      3  C   LIG    1       27.531 -20.253   6.115  0.00  0.00    +0.106 A 
ATOM      4  C   LIG    1       27.254 -21.362   6.957  0.00  0.00    +0.090 A 
ATOM      5  N   LIG    1       26.093 -22.040   6.889  0.00  0.00    -0.252 NA
ATOM      6  C   LIG    1       25.193 -21.614   5.980  0.00  0.00    +0.131 A 
ATOM      7  C   LIG    1       25.442 -20.544   5.153  0.00  0.00    +0.131 A 
ATOM      8  C   LIG    1       28.197 -21.774   7.884  0.00  0.00    +0.033 A 
ATOM      9  C   LIG    1       29.423 -21.126   8.008  0.00  0.00    +0.049 A 
ATOM     10  N   LIG    1       26.603 -19.857   5.203  0.00  0.00    -0.251 NA
ATOM     11  C   LIG    1       29.732 -20.044   7.189  0.00  0.00    +0.158 A 
ENDROOT
BRANCH  11  12
ATOM     12  N   LIG    1       30.972 -19.411   7.372  0.00  0.00    -0.076 NA
ATOM     13  C   LIG    1       31.046 -18.431   8.202  0.00  0.00    +0.370 C 
ATOM     14  N   LIG    1       30.102 -17.885   9.031  0.00  0.00    -0.235 N 
ATOM     15  H   LIG    1       29.277 -18.428   9.241  0.00  0.00    +0.244 HD
ATOM     16  C   LIG    1       30.684 -17.053  10.070  0.00  0.00    +0.219 C 
ATOM     17  C   LIG    1       32.186 -17.085   9.739  0.00  0.00    +0.219 C 
ATOM     18  N   LIG    1       32.216 -17.773   8.463  0.00  0.00    -0.235 N 
ATOM     19  H   LIG    1       33.053 -18.268   8.182  0.00  0.00    +0.244 HD
ENDBRANCH  11  12
TORSDOF 1
ENDMDL
MODEL 4
REMARK VINA RESULT:      -6.8      1.589      2.236
REMARK  Name = *****
REMARK                            x       y       z     vdW  Elec       q    Type
REMARK                         _______ _______ _______ _____ _____    ______ ____
ROOT
ATOM      1 BR   LIG    1       26.119 -21.444   8.901  0.00  0.00    -0.044 Br
ATOM      2  C   LIG    1       26.690 -20.647   7.255  0.00  0.00    +0.087 A 
ATOM      3  C   LIG    1       27.950 -20.027   7.202  0.00  0.00    +0.106 A 
ATOM      4  C   LIG    1       28.352 -19.435   5.977  0.00  0.00    +0.090 A 
ATOM      5  N   LIG    1       29.543 -18.823   5.834  0.00  0.00    -0.252 NA
ATOM      6  C   LIG    1       30.344 -18.793   6.918  0.00  0.00    +0.131 A 
ATOM      7  C   LIG    1       29.975 -19.363   8.114  0.00  0.00    +0.131 A 
ATOM      8  C   LIG    1       27.506 -19.479   4.881  0.00  0.00    +0.033 A 
ATOM      9  C   LIG    1       26.262 -20.099   4.950  0.00  0.00    +0.049 A 
ATOM     10  N   LIG    1       28.788 -19.986   8.272  0.00  0.00    -0.251 NA
ATOM     11  C   LIG    1       25.842 -20.702   6.133  0.00  0.00    +0.158 A 
ENDROOT
BRANCH  11  12
ATOM     12  N   LIG    1       24.568 -21.292   6.156  0.00  0.00    -0.076 NA
ATOM     13  C   LIG    1       24.479 -22.570   6.032  0.00  0.00    +0.370 C 
ATOM     14  N   LIG    1       25.451 -23.530   5.927  0.00  0.00    -0.235 N 
ATOM     15  H   LIG    1       26.390 -23.295   6.215  0.00  0.00    +0.244 HD
ATOM     16  C   LIG    1       24.945 -24.868   6.187  0.00  0.00    +0.219 C 
ATOM     17  C   LIG    1       23.442 -24.632   6.414  0.00  0.00    +0.219 C 
ATOM     18  N   LIG    1       23.283 -23.232   6.070  0.00  0.00    -0.235 N 
ATOM     19  H   LIG    1       22.518 -22.703   6.468  0.00  0.00    +0.244 HD
ENDBRANCH  11  12
TORSDOF 1
ENDMDL
MODEL 5
REMARK VINA RESULT:      -6.5      2.299      5.877
REMARK  Name = *****
REMARK                            x       y       z     vdW  Elec       q    Type
REMARK                         _______ _______ _______ _____ _____    ______ ____
ROOT
ATOM      1 BR   LIG    1       27.214 -19.261   4.599  0.00  0.00    -0.044 Br
ATOM      2  C   LIG    1       26.882 -20.383   6.116  0.00  0.00    +0.087 A 
ATOM      3  C   LIG    1       25.556 -20.724   6.431  0.00  0.00    +0.106 A 
ATOM      4  C   LIG    1       25.330 -21.549   7.563  0.00  0.00    +0.090 A 
ATOM      5  N   LIG    1       24.093 -21.928   7.937  0.00  0.00    -0.252 NA
ATOM      6  C   LIG    1       23.067 -21.482   7.184  0.00  0.00    +0.131 A 
ATOM      7  C   LIG    1       23.264 -20.683   6.082  0.00  0.00    +0.131 A 
ATOM      8  C   LIG    1       26.403 -21.990   8.319  0.00  0.00    +0.033 A 
ATOM      9  C   LIG    1       27.711 -21.645   7.991  0.00  0.00    +0.049 A 
ATOM     10  N   LIG    1       24.497 -20.300   5.690  0.00  0.00    -0.251 NA
ATOM     11  C   LIG    1       27.969 -20.848   6.879  0.00  0.00    +0.158 A 
ENDROOT
BRANCH  11  12
ATOM     12  N   LIG    1       29.305 -20.509   6.606  0.00  0.00    -0.076 NA
ATOM     13  C   LIG    1       29.856 -19.574   7.296  0.00  0.00    +0.370 C 
ATOM     14  N   LIG    1       29.378 -18.834   8.345  0.00  0.00    -0.235 N 
ATOM     15  H   LIG    1       28.573 -19.180   8.849  0.00  0.00    +0.244 HD
ATOM     16  C   LIG    1       30.434 -18.157   9.080  0.00  0.00    +0.219 C 
ATOM     17  C   LIG    1       31.698 -18.523   8.284  0.00  0.00    +0.219 C 
ATOM     18  N   LIG    1       31.158 -19.196   7.118  0.00  0.00    -0.235 N 
ATOM     19  H   LIG    1       31.729 -19.864   6.617  0.00  0.00    +0.244 HD
ENDBRANCH  11  12
TORSDOF 1
ENDMDL
MODEL 6
REMARK VINA RESULT:      -6.5      2.753      5.900
REMARK  Name = *****
REMARK                            x       y       z     vdW  Elec       q    Type
REMARK                         _______ _______ _______ _____ _____    ______ ____
ROOT
ATOM      1 BR   LIG    1       26.002 -22.177   8.522  0.00  0.00    -0.044 Br
ATOM      2  C   LIG    1       26.200 -21.146   6.921  0.00  0.00    +0.087 A 
ATOM      3  C   LIG    1       25.047 -20.739   6.228  0.00  0.00    +0.106 A 
ATOM      4  C   LIG    1       25.214 -19.983   5.039  0.00  0.00    +0.090 A 
ATOM      5  N   LIG    1       24.165 -19.549   4.313  0.00  0.00    -0.252 NA
ATOM      6  C   LIG    1       22.938 -19.871   4.767  0.00  0.00    +0.131 A 
ATOM      7  C   LIG    1       22.753 -20.601   5.918  0.00  0.00    +0.131 A 
ATOM      8  C   LIG    1       26.488 -19.670   4.596  0.00  0.00    +0.033 A 
ATOM      9  C   LIG    1       27.619 -20.078   5.296  0.00  0.00    +0.049 A 
ATOM     10  N   LIG    1       23.792 -21.038   6.661  0.00  0.00    -0.251 NA
ATOM     11  C   LIG    1       27.491 -20.809   6.473  0.00  0.00    +0.158 A 
ENDROOT
BRANCH  11  12
ATOM     12  N   LIG    1       28.665 -21.218   7.128  0.00  0.00    -0.076 NA
ATOM     13  C   LIG    1       29.528 -20.323   7.458  0.00  0.00    +0.370 C 
ATOM     14  N   LIG    1       29.499 -18.959   7.332  0.00  0.00    -0.235 N 
ATOM     15  H   LIG    1       28.606 -18.511   7.182  0.00  0.00    +0.244 HD
ATOM     16  C   LIG    1       30.490 -18.299   8.165  0.00  0.00    +0.219 C 
ATOM     17  C   LIG    1       31.236 -19.477   8.815  0.00  0.00    +0.219 C 
ATOM     18  N   LIG    1       30.686 -20.625   8.121  0.00  0.00    -0.235 N 
ATOM     19  H   LIG    1       30.693 -21.531   8.570  0.00  0.00    +0.244 HD
ENDBRANCH  11  12
TORSDOF 1
ENDMDL
MODEL 7
REMARK VINA RESULT:      -6.2      2.933      4.211
REMARK  Name = *****
REMARK                            x       y       z     vdW  Elec       q    Type
REMARK                         _______ _______ _______ _____ _____    ______ ____
ROOT
ATOM      1 BR   LIG    1       22.488 -23.013   6.756  0.00  0.00    -0.044 Br
ATOM      2  C   LIG    1       23.884 -21.902   6.058  0.00  0.00    +0.087 A 
ATOM      3  C   LIG    1       23.536 -20.760   5.317  0.00  0.00    +0.106 A 
ATOM      4  C   LIG    1       24.585 -19.954   4.801  0.00  0.00    +0.090 A 
ATOM      5  N   LIG    1       24.344 -18.841   4.082  0.00  0.00    -0.252 NA
ATOM      6  C   LIG    1       23.051 -18.524   3.868  0.00  0.00    +0.131 A 
ATOM      7  C   LIG    1       22.020 -19.289   4.360  0.00  0.00    +0.131 A 
ATOM      8  C   LIG    1       25.903 -20.307   5.034  0.00  0.00    +0.033 A 
ATOM      9  C   LIG    1       26.230 -21.441   5.774  0.00  0.00    +0.049 A 
ATOM     10  N   LIG    1       22.244 -20.404   5.088  0.00  0.00    -0.251 NA
ATOM     11  C   LIG    1       25.226 -22.245   6.306  0.00  0.00    +0.158 A 
ENDROOT
BRANCH  11  12
ATOM     12  N   LIG    1       25.610 -23.391   7.023  0.00  0.00    -0.076 NA
ATOM     13  C   LIG    1       25.547 -24.534   6.437  0.00  0.00    +0.370 C 
ATOM     14  N   LIG    1       25.207 -24.865   5.152  0.00  0.00    -0.235 N 
ATOM     15  H   LIG    1       25.222 -24.139   4.450  0.00  0.00    +0.244 HD
ATOM     16  C   LIG    1       25.628 -26.208   4.790  0.00  0.00    +0.219 C 
ATOM     17  C   LIG    1       26.249 -26.739   6.093  0.00  0.00    +0.219 C 
ATOM     18  N   LIG    1       25.926 -25.697   7.048  0.00  0.00    -0.235 N 
ATOM     19  H   LIG    1       26.503 -25.576   7.870  0.00  0.00    +0.244 HD
ENDBRANCH  11  12
TORSDOF 1
ENDMDL
MODEL 8
REMARK VINA RESULT:      -6.0      4.732      9.010
REMARK  Name = *****
REMARK                            x       y       z     vdW  Elec       q    Type
REMARK                         _______ _______ _______ _____ _____    ______ ____
ROOT
ATOM      1 BR   LIG    1       26.484 -28.273   9.288  0.00  0.00    -0.044 Br
ATOM      2  C   LIG    1       25.499 -28.705   7.703  0.00  0.00    +0.087 A 
ATOM      3  C   LIG    1       24.879 -29.962   7.611  0.00  0.00    +0.106 A 
ATOM      4  C   LIG    1       24.161 -30.267   6.425  0.00  0.00    +0.090 A 
ATOM      5  N   LIG    1       23.533 -31.446   6.252  0.00  0.00    -0.252 NA
ATOM      6  C   LIG    1       23.620 -32.335   7.261  0.00  0.00    +0.131 A 
ATOM      7  C   LIG    1       24.308 -32.059   8.420  0.00  0.00    +0.131 A 
ATOM      8  C   LIG    1       24.091 -29.335   5.403  0.00  0.00    +0.033 A 
ATOM      9  C   LIG    1       24.710 -28.092   5.513  0.00  0.00    +0.049 A 
ATOM     10  N   LIG    1       24.938 -30.880   8.613  0.00  0.00    -0.251 NA
ATOM     11  C   LIG    1       25.411 -27.756   6.668  0.00  0.00    +0.158 A 
ENDROOT
BRANCH  11  12
ATOM     12  N   LIG    1       26.037 -26.499   6.717  0.00  0.00    -0.076 NA
ATOM     13  C   LIG    1       25.312 -25.445   6.582  0.00  0.00    +0.370 C 
ATOM     14  N   LIG    1       23.957 -25.301   6.443  0.00  0.00    -0.235 N 
ATOM     15  H   LIG    1       23.362 -26.073   6.710  0.00  0.00    +0.244 HD
ATOM     16  C   LIG    1       23.510 -23.942   6.702  0.00  0.00    +0.219 C 
ATOM     17  C   LIG    1       24.824 -23.190   6.969  0.00  0.00    +0.219 C 
ATOM     18  N   LIG    1       25.831 -24.181   6.643  0.00  0.00    -0.235 N 
ATOM     19  H   LIG    1       26.749 -24.120   7.065  0.00  0.00    +0.244 HD
ENDBRANCH  11  12
TORSDOF 1
ENDMDL
MODEL 9
REMARK VINA RESULT:      -5.8      2.524      3.485
REMARK  Name = *****
REMARK                            x       y       z     vdW  Elec       q    Type
REMARK                         _______ _______ _______ _____ _____    ______ ____
ROOT
ATOM      1 BR   LIG    1       26.043 -21.804   8.665  0.00  0.00    -0.044 Br
ATOM      2  C   LIG    1       26.663 -20.864   7.115  0.00  0.00    +0.087 A 
ATOM      3  C   LIG    1       27.860 -20.132   7.200  0.00  0.00    +0.106 A 
ATOM      4  C   LIG    1       28.299 -19.435   6.044  0.00  0.00    +0.090 A 
ATOM      5  N   LIG    1       29.436 -18.712   6.033  0.00  0.00    -0.252 NA
ATOM      6  C   LIG    1       30.143 -18.675   7.180  0.00  0.00    +0.131 A 
ATOM      7  C   LIG    1       29.737 -19.345   8.310  0.00  0.00    +0.131 A 
ATOM      8  C   LIG    1       27.550 -19.490   4.881  0.00  0.00    +0.033 A 
ATOM      9  C   LIG    1       26.368 -20.222   4.814  0.00  0.00    +0.049 A 
ATOM     10  N   LIG    1       28.605 -20.079   8.337  0.00  0.00    -0.251 NA
ATOM     11  C   LIG    1       25.915 -20.928   5.925  0.00  0.00    +0.158 A 
ENDROOT
BRANCH  11  12
ATOM     12  N   LIG    1       24.704 -21.631   5.812  0.00  0.00    -0.076 NA
ATOM     13  C   LIG    1       23.635 -20.972   5.532  0.00  0.00    +0.370 C 
ATOM     14  N   LIG    1       23.447 -19.644   5.254  0.00  0.00    -0.235 N 
ATOM     15  H   LIG    1       24.249 -19.092   4.985  0.00  0.00    +0.244 HD
ATOM     16  C   LIG    1       22.164 -19.381   4.622  0.00  0.00    +0.219 C 
ATOM     17  C   LIG    1       21.500 -20.768   4.596  0.00  0.00    +0.219 C 
ATOM     18  N   LIG    1       22.418 -21.576   5.376  0.00  0.00    -0.235 N 
ATOM     19  H   LIG    1       22.456 -22.576   5.225  0.00  0.00    +0.244 HD
ENDBRANCH  11  12
TORSDOF 1
ENDMDL
