MODEL 1
REMARK VINA RESULT:      77.9      0.000      0.000
REMARK  Name = *****
REMARK                            x       y       z     vdW  Elec       q    Type
REMARK                         _______ _______ _______ _____ _____    ______ ____
ROOT
ATOM      1  O   LIG    1       24.015 -15.741   6.759  0.00  0.00    -0.343 OA
ENDROOT
BRANCH   1   3
ATOM      2  C   LIG    1       22.543 -14.112   4.988  0.00  0.00    +0.188 C 
ATOM      3  C   LIG    1       22.696 -15.344   6.079  0.00  0.00    +0.157 C 
ATOM      4  C   LIG    1       21.786 -16.592   5.483  0.00  0.00    +0.028 C 
ATOM      5  C   LIG    1       21.727 -17.911   6.344  0.00  0.00    +0.012 C 
ATOM      6  C   LIG    1       22.467 -19.234   6.139  0.00  0.00    +0.019 C 
ATOM      7  C   LIG    1       21.593 -20.461   5.909  0.00  0.00    +0.010 C 
ATOM      8  C   LIG    1       23.693 -19.383   5.277  0.00  0.00    +0.140 C 
ATOM      9  C   LIG    1       24.051 -18.555   3.979  0.00  0.00    +0.004 C 
ATOM     10  C   LIG    1       24.209 -17.198   3.514  0.00  0.00    -0.002 C 
ATOM     11  C   LIG    1       25.149 -16.268   2.498  0.00  0.00    -0.004 C 
ATOM     12  C   LIG    1       25.885 -15.175   2.944  0.00  0.00    -0.023 C 
ATOM     13  C   LIG    1       26.951 -14.238   2.450  0.00  0.00    +0.071 C 
ATOM     14  C   LIG    1       26.960 -12.815   3.018  0.00  0.00    +0.177 C 
ATOM     15  C   LIG    1       27.321 -11.847   1.914  0.00  0.00    +0.052 C 
ATOM     16  O   LIG    1       25.782 -12.449   3.736  0.00  0.00    -0.461 OA
ATOM     17  C   LIG    1       24.575 -12.630   3.154  0.00  0.00    +0.311 C 
ATOM     18  O   LIG    1       24.339 -13.161   2.081  0.00  0.00    -0.251 OA
ATOM     19  C   LIG    1       23.550 -11.968   3.999  0.00  0.00    +0.168 C 
ATOM     20  C   LIG    1       23.097 -12.691   5.286  0.00  0.00    +0.218 C 
BRANCH   8  21
ATOM     21  O   LIG    1       23.980 -20.808   4.957  0.00  0.00    -0.388 OA
ATOM     22  H   LIG    1       24.451 -20.898   4.101  0.00  0.00    +0.210 HD
ENDBRANCH   8  21
BRANCH   2  24
ATOM     23  C   LIG    1       20.185 -14.950   5.002  0.00  0.00    +0.194 C 
ATOM     24  O   LIG    1       21.136 -13.957   4.595  0.00  0.00    -0.373 OA
ENDBRANCH   2  24
BRANCH   4  25
ATOM     25  C   LIG    1       21.319 -16.675   4.042  0.00  0.00    +0.077 C 
BRANCH  25  26
ATOM     26  C   LIG    1       19.913 -16.979   3.568  0.00  0.00    +0.223 C 
ATOM     27  O   LIG    1       19.860 -17.498   2.351  0.00  0.00    -0.301 OA
ENDBRANCH  25  26
ENDBRANCH   4  25
BRANCH  20  28
ATOM     28  O   LIG    1       22.108 -11.723   5.757  0.00  0.00    -0.458 OA
BRANCH  28  29
ATOM     29  C   LIG    1       21.095 -12.102   6.562  0.00  0.00    +0.304 C 
ATOM     30  O   LIG    1       20.062 -11.480   6.754  0.00  0.00    -0.251 OA
ATOM     31  C   LIG    1       21.356 -13.500   7.050  0.00  0.00    +0.136 C 
ENDBRANCH  28  29
ENDBRANCH  20  28
ENDBRANCH   1   3
BRANCH   1  32
ATOM     32  C   LIG    1       25.271 -16.097   6.026  0.00  0.00    +0.281 C 
ATOM     33  C   LIG    1       25.509 -15.734   4.528  0.00  0.00    +0.190 C 
ATOM     34  C   LIG    1       27.103 -15.104   4.119  0.00  0.00    +0.121 C 
ATOM     35  C   LIG    1       28.306 -15.985   4.640  0.00  0.00    +0.169 C 
ATOM     36  C   LIG    1       27.915 -16.118   6.064  0.00  0.00    +0.149 C 
ATOM     37  C   LIG    1       29.362 -16.227   7.059  0.00  0.00    +0.040 C 
ATOM     38  O   LIG    1       26.505 -15.524   6.491  0.00  0.00    -0.343 OA
BRANCH  34  39
ATOM     39  N   LIG    1       27.559 -13.639   4.369  0.00  0.00    -0.301 NA
ATOM     40  C   LIG    1       28.952 -13.448   4.745  0.00  0.00    +0.105 C 
ATOM     41  C   LIG    1       26.865 -12.968   5.448  0.00  0.00    +0.105 C 
ENDBRANCH  34  39
BRANCH  33  42
ATOM     42  O   LIG    1       25.325 -16.976   3.798  0.00  0.00    -0.385 OA
ATOM     43  H   LIG    1       24.457 -16.918   3.364  0.00  0.00    +0.210 HD
ENDBRANCH  33  42
BRANCH  35  44
ATOM     44  O   LIG    1       28.548 -17.341   4.063  0.00  0.00    -0.344 OA
BRANCH  44  45
ATOM     45  C   LIG    1       28.294 -18.497   4.978  0.00  0.00    +0.254 C 
ATOM     46  O   LIG    1       29.230 -19.526   4.717  0.00  0.00    -0.344 OA
ATOM     47  C   LIG    1       29.024 -20.809   5.315  0.00  0.00    +0.162 C 
ATOM     48  C   LIG    1       29.462 -20.944   6.781  0.00  0.00    +0.042 C 
ATOM     49  C   LIG    1       27.605 -21.338   5.048  0.00  0.00    +0.236 C 
ATOM     50  C   LIG    1       26.550 -20.335   5.555  0.00  0.00    +0.107 C 
ATOM     51  C   LIG    1       26.381 -20.182   7.060  0.00  0.00    +0.045 C 
ATOM     52  C   LIG    1       26.821 -18.973   4.975  0.00  0.00    +0.099 C 
BRANCH  50  53
ATOM     53  O   LIG    1       25.218 -20.700   5.186  0.00  0.00    -0.385 OA
ATOM     54  H   LIG    1       24.607 -19.967   5.414  0.00  0.00    +0.210 HD
ENDBRANCH  50  53
BRANCH  49  55
ATOM     55  O   LIG    1       27.504 -21.490   3.588  0.00  0.00    -0.456 OA
BRANCH  55  56
ATOM     56  C   LIG    1       26.342 -21.129   2.982  0.00  0.00    +0.308 C 
ATOM     57  O   LIG    1       25.243 -21.566   3.312  0.00  0.00    -0.251 OA
BRANCH  56  58
ATOM     58  C   LIG    1       26.535 -19.991   1.991  0.00  0.00    +0.123 C 
BRANCH  58  59
ATOM     59  C   LIG    1       25.688 -18.746   2.315  0.00  0.00    -0.007 C 
ATOM     60  C   LIG    1       24.261 -18.917   1.825  0.00  0.00    +0.007 C 
ATOM     61  C   LIG    1       26.360 -17.458   1.816  0.00  0.00    +0.007 C 
ENDBRANCH  58  59
ENDBRANCH  56  58
ENDBRANCH  55  56
ENDBRANCH  49  55
ENDBRANCH  44  45
ENDBRANCH  35  44
ENDBRANCH   1  32
TORSDOF 17
ENDMDL
MODEL 2
REMARK VINA RESULT:      77.9      1.896      6.172
REMARK  Name = *****
REMARK                            x       y       z     vdW  Elec       q    Type
REMARK                         _______ _______ _______ _____ _____    ______ ____
ROOT
ATOM      1  O   LIG    1       24.413 -17.658   6.730  0.00  0.00    -0.343 OA
ENDROOT
BRANCH   1   3
ATOM      2  C   LIG    1       22.779 -19.200   5.024  0.00  0.00    +0.188 C 
ATOM      3  C   LIG    1       24.019 -19.001   6.098  0.00  0.00    +0.157 C 
ATOM      4  C   LIG    1       25.268 -19.922   5.521  0.00  0.00    +0.028 C 
ATOM      5  C   LIG    1       26.595 -19.943   6.371  0.00  0.00    +0.012 C 
ATOM      6  C   LIG    1       27.911 -19.201   6.129  0.00  0.00    +0.019 C 
ATOM      7  C   LIG    1       29.142 -20.074   5.917  0.00  0.00    +0.010 C 
ATOM      8  C   LIG    1       28.043 -18.004   5.226  0.00  0.00    +0.140 C 
ATOM      9  C   LIG    1       27.201 -17.696   3.924  0.00  0.00    +0.004 C 
ATOM     10  C   LIG    1       25.839 -17.563   3.466  0.00  0.00    -0.002 C 
ATOM     11  C   LIG    1       24.892 -16.664   2.428  0.00  0.00    -0.004 C 
ATOM     12  C   LIG    1       23.799 -15.921   2.859  0.00  0.00    -0.023 C 
ATOM     13  C   LIG    1       22.849 -14.879   2.339  0.00  0.00    +0.071 C 
ATOM     14  C   LIG    1       21.431 -14.861   2.920  0.00  0.00    +0.177 C 
ATOM     15  C   LIG    1       20.451 -14.544   1.813  0.00  0.00    +0.052 C 
ATOM     16  O   LIG    1       21.081 -16.016   3.680  0.00  0.00    -0.461 OA
ATOM     17  C   LIG    1       21.265 -17.241   3.137  0.00  0.00    +0.311 C 
ATOM     18  O   LIG    1       21.788 -17.510   2.068  0.00  0.00    -0.251 OA
ATOM     19  C   LIG    1       20.618 -18.242   4.022  0.00  0.00    +0.168 C 
ATOM     20  C   LIG    1       21.357 -18.646   5.317  0.00  0.00    +0.218 C 
BRANCH   8  21
ATOM     21  O   LIG    1       29.464 -17.718   4.883  0.00  0.00    -0.388 OA
ATOM     22  H   LIG    1       30.073 -18.355   5.312  0.00  0.00    +0.210 HD
ENDBRANCH   8  21
BRANCH   2  24
ATOM     23  C   LIG    1       23.751 -21.325   4.129  0.00  0.00    +0.194 C 
ATOM     24  O   LIG    1       22.630 -20.621   4.680  0.00  0.00    -0.373 OA
ENDBRANCH   2  24
BRANCH   4  25
ATOM     25  C   LIG    1       25.342 -20.437   4.096  0.00  0.00    +0.077 C 
BRANCH  25  26
ATOM     26  C   LIG    1       24.311 -20.222   3.007  0.00  0.00    +0.223 C 
ATOM     27  O   LIG    1       24.835 -19.992   1.813  0.00  0.00    -0.301 OA
ENDBRANCH  25  26
ENDBRANCH   4  25
BRANCH  20  28
ATOM     28  O   LIG    1       20.400 -19.625   5.830  0.00  0.00    -0.458 OA
BRANCH  28  29
ATOM     29  C   LIG    1       20.399 -20.896   5.380  0.00  0.00    +0.304 C 
ATOM     30  O   LIG    1       19.452 -21.476   4.873  0.00  0.00    -0.251 OA
ATOM     31  C   LIG    1       21.802 -21.435   5.439  0.00  0.00    +0.136 C 
ENDBRANCH  28  29
ENDBRANCH  20  28
ENDBRANCH   1   3
BRANCH   1  32
ATOM     32  C   LIG    1       24.396 -16.346   6.007  0.00  0.00    +0.281 C 
ATOM     33  C   LIG    1       23.166 -15.845   5.191  0.00  0.00    +0.190 C 
ATOM     34  C   LIG    1       22.725 -14.152   5.400  0.00  0.00    +0.121 C 
ATOM     35  C   LIG    1       23.921 -13.138   5.214  0.00  0.00    +0.169 C 
ATOM     36  C   LIG    1       24.910 -13.755   6.131  0.00  0.00    +0.149 C 
ATOM     37  C   LIG    1       25.921 -12.497   6.831  0.00  0.00    +0.040 C 
ATOM     38  O   LIG    1       24.522 -15.147   6.791  0.00  0.00    -0.343 OA
BRANCH  34  39
ATOM     39  N   LIG    1       21.929 -13.594   6.613  0.00  0.00    -0.301 NA
ATOM     40  C   LIG    1       20.773 -14.368   7.042  0.00  0.00    +0.105 C 
ATOM     41  C   LIG    1       21.350 -12.285   6.403  0.00  0.00    +0.105 C 
ENDBRANCH  34  39
BRANCH  33  42
ATOM     42  O   LIG    1       23.525 -16.039   3.797  0.00  0.00    -0.385 OA
ATOM     43  H   LIG    1       23.162 -15.282   3.308  0.00  0.00    +0.210 HD
ENDBRANCH  33  42
BRANCH  35  44
ATOM     44  O   LIG    1       24.542 -12.948   3.869  0.00  0.00    -0.344 OA
BRANCH  44  45
ATOM     45  C   LIG    1       25.975 -12.518   3.864  0.00  0.00    +0.254 C 
ATOM     46  O   LIG    1       26.596 -12.945   2.666  0.00  0.00    -0.344 OA
ATOM     47  C   LIG    1       28.019 -12.843   2.557  0.00  0.00    +0.162 C 
ATOM     48  C   LIG    1       28.568 -11.452   2.207  0.00  0.00    +0.042 C 
ATOM     49  C   LIG    1       28.728 -13.499   3.754  0.00  0.00    +0.236 C 
ATOM     50  C   LIG    1       28.246 -12.871   5.077  0.00  0.00    +0.107 C 
ATOM     51  C   LIG    1       28.687 -11.449   5.391  0.00  0.00    +0.045 C 
ATOM     52  C   LIG    1       26.743 -12.920   5.147  0.00  0.00    +0.099 C 
BRANCH  50  53
ATOM     53  O   LIG    1       28.749 -13.553   6.228  0.00  0.00    -0.385 OA
ATOM     54  H   LIG    1       28.240 -14.380   6.363  0.00  0.00    +0.210 HD
ENDBRANCH  50  53
BRANCH  49  55
ATOM     55  O   LIG    1       28.363 -14.923   3.702  0.00  0.00    -0.456 OA
BRANCH  55  56
ATOM     56  C   LIG    1       27.158 -15.298   4.208  0.00  0.00    +0.308 C 
ATOM     57  O   LIG    1       26.095 -15.129   3.617  0.00  0.00    -0.251 OA
BRANCH  56  58
ATOM     58  C   LIG    1       27.293 -16.112   5.486  0.00  0.00    +0.123 C 
BRANCH  58  59
ATOM     59  C   LIG    1       27.943 -15.332   6.644  0.00  0.00    -0.007 C 
ATOM     60  C   LIG    1       27.990 -13.845   6.339  0.00  0.00    +0.007 C 
ATOM     61  C   LIG    1       29.305 -15.924   7.033  0.00  0.00    +0.007 C 
ENDBRANCH  58  59
ENDBRANCH  56  58
ENDBRANCH  55  56
ENDBRANCH  49  55
ENDBRANCH  44  45
ENDBRANCH  35  44
ENDBRANCH   1  32
TORSDOF 17
ENDMDL
MODEL 3
REMARK VINA RESULT:      80.0      1.802      8.010
REMARK  Name = *****
REMARK                            x       y       z     vdW  Elec       q    Type
REMARK                         _______ _______ _______ _____ _____    ______ ____
ROOT
ATOM      1  O   LIG    1       26.176 -16.061   6.145  0.00  0.00    -0.343 OA
ENDROOT
BRANCH   1   3
ATOM      2  C   LIG    1       27.358 -18.476   5.289  0.00  0.00    +0.188 C 
ATOM      3  C   LIG    1       27.406 -16.885   5.735  0.00  0.00    +0.157 C 
ATOM      4  C   LIG    1       28.449 -16.151   4.679  0.00  0.00    +0.028 C 
ATOM      5  C   LIG    1       28.710 -14.610   4.884  0.00  0.00    +0.012 C 
ATOM      6  C   LIG    1       28.142 -13.421   4.109  0.00  0.00    +0.019 C 
ATOM      7  C   LIG    1       29.159 -12.542   3.391  0.00  0.00    +0.010 C 
ATOM      8  C   LIG    1       26.915 -13.497   3.240  0.00  0.00    +0.140 C 
ATOM      9  C   LIG    1       26.405 -14.748   2.420  0.00  0.00    +0.004 C 
ATOM     10  C   LIG    1       26.055 -16.139   2.585  0.00  0.00    -0.002 C 
ATOM     11  C   LIG    1       24.965 -17.283   2.051  0.00  0.00    -0.004 C 
ATOM     12  C   LIG    1       24.110 -17.966   2.909  0.00  0.00    -0.023 C 
ATOM     13  C   LIG    1       22.914 -18.874   2.844  0.00  0.00    +0.071 C 
ATOM     14  C   LIG    1       22.740 -19.896   3.973  0.00  0.00    +0.177 C 
ATOM     15  C   LIG    1       22.217 -21.188   3.388  0.00  0.00    +0.052 C 
ATOM     16  O   LIG    1       23.886 -20.069   4.805  0.00  0.00    -0.461 OA
ATOM     17  C   LIG    1       25.085 -20.320   4.231  0.00  0.00    +0.311 C 
ATOM     18  O   LIG    1       25.348 -20.342   3.040  0.00  0.00    -0.251 OA
ATOM     19  C   LIG    1       26.045 -20.682   5.304  0.00  0.00    +0.168 C 
ATOM     20  C   LIG    1       26.635 -19.540   6.161  0.00  0.00    +0.218 C 
BRANCH   8  21
ATOM     21  O   LIG    1       26.804 -12.325   2.327  0.00  0.00    -0.388 OA
ATOM     22  H   LIG    1       25.919 -12.278   1.907  0.00  0.00    +0.210 HD
ENDBRANCH   8  21
BRANCH   2  24
ATOM     23  C   LIG    1       29.097 -19.312   3.695  0.00  0.00    +0.194 C 
ATOM     24  O   LIG    1       28.718 -18.971   5.036  0.00  0.00    -0.373 OA
ENDBRANCH   2  24
BRANCH   4  25
ATOM     25  C   LIG    1       28.869 -16.761   3.356  0.00  0.00    +0.077 C 
BRANCH  25  26
ATOM     26  C   LIG    1       28.619 -16.185   1.978  0.00  0.00    +0.223 C 
ATOM     27  O   LIG    1       27.416 -15.652   1.833  0.00  0.00    -0.301 OA
ENDBRANCH  25  26
ENDBRANCH   4  25
BRANCH  20  28
ATOM     28  O   LIG    1       27.505 -20.332   7.028  0.00  0.00    -0.458 OA
BRANCH  28  29
ATOM     29  C   LIG    1       28.846 -20.201   6.971  0.00  0.00    +0.304 C 
ATOM     30  O   LIG    1       29.467 -19.153   7.050  0.00  0.00    -0.251 OA
ATOM     31  C   LIG    1       29.471 -21.569   6.974  0.00  0.00    +0.136 C 
ENDBRANCH  28  29
ENDBRANCH  20  28
ENDBRANCH   1   3
BRANCH   1  32
ATOM     32  C   LIG    1       24.857 -16.102   5.437  0.00  0.00    +0.281 C 
ATOM     33  C   LIG    1       24.408 -17.304   4.552  0.00  0.00    +0.190 C 
ATOM     34  C   LIG    1       22.743 -17.844   4.751  0.00  0.00    +0.121 C 
ATOM     35  C   LIG    1       21.666 -16.693   4.651  0.00  0.00    +0.169 C 
ATOM     36  C   LIG    1       22.245 -15.732   5.622  0.00  0.00    +0.149 C 
ATOM     37  C   LIG    1       20.947 -14.833   6.397  0.00  0.00    +0.040 C 
ATOM     38  O   LIG    1       23.665 -16.087   6.240  0.00  0.00    -0.343 OA
BRANCH  34  39
ATOM     39  N   LIG    1       22.244 -18.741   5.919  0.00  0.00    -0.301 NA
ATOM     40  C   LIG    1       23.235 -19.118   6.917  0.00  0.00    +0.105 C 
ATOM     41  C   LIG    1       21.728 -20.030   5.511  0.00  0.00    +0.105 C 
ENDBRANCH  34  39
BRANCH  33  42
ATOM     42  O   LIG    1       24.564 -16.850   3.181  0.00  0.00    -0.385 OA
ATOM     43  H   LIG    1       23.780 -17.157   2.696  0.00  0.00    +0.210 HD
ENDBRANCH  33  42
BRANCH  35  44
ATOM     44  O   LIG    1       21.426 -16.002   3.350  0.00  0.00    -0.344 OA
BRANCH  44  45
ATOM     45  C   LIG    1       21.695 -14.530   3.331  0.00  0.00    +0.254 C 
ATOM     46  O   LIG    1       22.956 -14.284   2.737  0.00  0.00    -0.344 OA
ATOM     47  C   LIG    1       23.513 -12.970   2.827  0.00  0.00    +0.162 C 
ATOM     48  C   LIG    1       22.972 -11.941   1.823  0.00  0.00    +0.042 C 
ATOM     49  C   LIG    1       23.531 -12.459   4.278  0.00  0.00    +0.236 C 
ATOM     50  C   LIG    1       22.109 -12.482   4.876  0.00  0.00    +0.107 C 
ATOM     51  C   LIG    1       21.106 -11.460   4.360  0.00  0.00    +0.045 C 
ATOM     52  C   LIG    1       21.508 -13.851   4.710  0.00  0.00    +0.099 C 
BRANCH  50  53
ATOM     53  O   LIG    1       22.092 -12.173   6.271  0.00  0.00    -0.385 OA
ATOM     54  H   LIG    1       21.732 -11.269   6.399  0.00  0.00    +0.210 HD
ENDBRANCH  50  53
BRANCH  49  55
ATOM     55  O   LIG    1       24.408 -13.381   5.015  0.00  0.00    -0.456 OA
BRANCH  55  56
ATOM     56  C   LIG    1       25.702 -13.015   5.217  0.00  0.00    +0.308 C 
ATOM     57  O   LIG    1       26.184 -11.970   4.788  0.00  0.00    -0.251 OA
BRANCH  56  58
ATOM     58  C   LIG    1       26.422 -13.942   6.186  0.00  0.00    +0.123 C 
BRANCH  58  59
ATOM     59  C   LIG    1       27.484 -13.227   7.042  0.00  0.00    -0.007 C 
ATOM     60  C   LIG    1       27.632 -11.775   6.625  0.00  0.00    +0.007 C 
ATOM     61  C   LIG    1       28.811 -14.000   7.061  0.00  0.00    +0.007 C 
ENDBRANCH  58  59
ENDBRANCH  56  58
ENDBRANCH  55  56
ENDBRANCH  49  55
ENDBRANCH  44  45
ENDBRANCH  35  44
ENDBRANCH   1  32
TORSDOF 17
ENDMDL
