MODEL 1
REMARK VINA RESULT:      -7.8      0.000      0.000
REMARK  Name = *****
REMARK                            x       y       z     vdW  Elec       q    Type
REMARK                         _______ _______ _______ _____ _____    ______ ____
ROOT
ATOM      1  C   LIG    1       25.924 -27.458   7.336  0.00  0.00    +0.221 A 
ATOM      2  N   LIG    1       25.875 -26.127   7.560  0.00  0.00    -0.198 NA
ATOM      3  C   LIG    1       25.463 -25.279   6.581  0.00  0.00    +0.146 A 
ATOM      4  C   LIG    1       25.180 -25.786   5.320  0.00  0.00    +0.099 A 
ATOM      5 CL   LIG    1       25.012 -24.948   3.828  0.00  0.00    -0.078 Cl
ATOM      6  C   LIG    1       25.129 -27.163   5.224  0.00  0.00    +0.138 A 
ATOM      7  N   LIG    1       25.470 -28.012   6.209  0.00  0.00    -0.221 NA
ENDROOT
BRANCH   1   8
ATOM      8  N   LIG    1       26.489 -28.349   8.246  0.00  0.00    -0.281 N 
ATOM      9  H   LIG    1       27.420 -28.627   7.967  0.00  0.00    +0.155 HD
BRANCH   8  15
ATOM     10  C   LIG    1       26.974 -27.604  13.088  0.00  0.00    +0.044 C 
ATOM     11  C   LIG    1       26.391 -28.450  11.990  0.00  0.00    -0.045 A 
ATOM     12  C   LIG    1       25.484 -29.497  12.227  0.00  0.00    -0.038 A 
ATOM     13  C   LIG    1       24.918 -30.115  11.108  0.00  0.00    +0.051 A 
ATOM     14  C   LIG    1       25.153 -29.684   9.797  0.00  0.00    +0.142 A 
ATOM     15  C   LIG    1       26.136 -28.707   9.557  0.00  0.00    +0.076 A 
ATOM     16  C   LIG    1       26.767 -28.141  10.668  0.00  0.00    +0.030 A 
BRANCH  12  17
ATOM     17  C   LIG    1       25.151 -29.991  13.636  0.00  0.00    +0.022 C 
ATOM     18  C   LIG    1       23.669 -30.335  13.919  0.00  0.00    +0.023 C 
ATOM     19  C   LIG    1       23.240 -31.765  13.569  0.00  0.00    +0.081 C 
ATOM     20  N   LIG    1       24.192 -32.778  14.013  0.00  0.00    -0.316 NA
ATOM     21  H   LIG    1       24.208 -32.798  15.033  0.00  0.00    +0.122 HD
ATOM     22  C   LIG    1       25.542 -32.503  13.520  0.00  0.00    +0.081 C 
ATOM     23  C   LIG    1       26.059 -31.163  14.038  0.00  0.00    +0.023 C 
ENDBRANCH  12  17
BRANCH  14  24
ATOM     24  O   LIG    1       24.484 -30.233   8.721  0.00  0.00    -0.487 OA
BRANCH  24  25
ATOM     25  C   LIG    1       24.773 -31.619   8.429  0.00  0.00    +0.167 C 
ATOM     26  C   LIG    1       25.720 -31.683   7.236  0.00  0.00    +0.051 C 
ATOM     27  C   LIG    1       23.481 -32.378   8.145  0.00  0.00    +0.051 C 
ENDBRANCH  24  25
ENDBRANCH  14  24
ENDBRANCH   8  15
ENDBRANCH   1   8
BRANCH   3  28
ATOM     28  N   LIG    1       25.464 -23.943   7.019  0.00  0.00    -0.297 N 
ATOM     29  H   LIG    1       26.334 -23.768   7.522  0.00  0.00    +0.154 HD
BRANCH  28  30
ATOM     30  C   LIG    1       24.576 -22.855   6.978  0.00  0.00    +0.058 A 
ATOM     31  C   LIG    1       24.919 -21.559   7.420  0.00  0.00    +0.110 A 
ATOM     32  C   LIG    1       24.099 -20.449   7.130  0.00  0.00    +0.029 A 
ATOM     33  C   LIG    1       22.948 -20.607   6.367  0.00  0.00    +0.002 A 
ATOM     34  C   LIG    1       22.551 -21.881   6.000  0.00  0.00    +0.002 A 
ATOM     35  C   LIG    1       23.325 -22.985   6.366  0.00  0.00    +0.025 A 
BRANCH  31  36
ATOM     36  S   LIG    1       26.359 -21.230   8.421  0.00  0.00    +0.001 S 
ATOM     37  O   LIG    1       26.917 -22.550   8.737  0.00  0.00    -0.169 OA
ATOM     38  O   LIG    1       25.974 -20.337   9.484  0.00  0.00    -0.169 OA
BRANCH  36  39
ATOM     39  C   LIG    1       27.547 -20.380   7.393  0.00  0.00    +0.130 C 
ATOM     40  C   LIG    1       27.071 -20.388   5.942  0.00  0.00    +0.032 C 
ATOM     41  C   LIG    1       28.936 -20.987   7.508  0.00  0.00    +0.032 C 
ENDBRANCH  36  39
ENDBRANCH  31  36
ENDBRANCH  28  30
ENDBRANCH   3  28
TORSDOF 9
ENDMDL
MODEL 2
REMARK VINA RESULT:      -7.8      2.764      9.686
REMARK  Name = *****
REMARK                            x       y       z     vdW  Elec       q    Type
REMARK                         _______ _______ _______ _____ _____    ______ ____
ROOT
ATOM      1  C   LIG    1       25.659 -24.842   6.558  0.00  0.00    +0.221 A 
ATOM      2  N   LIG    1       25.876 -25.864   7.413  0.00  0.00    -0.198 NA
ATOM      3  C   LIG    1       25.897 -27.145   6.963  0.00  0.00    +0.146 A 
ATOM      4  C   LIG    1       25.604 -27.400   5.629  0.00  0.00    +0.099 A 
ATOM      5 CL   LIG    1       25.192 -28.889   4.876  0.00  0.00    -0.078 Cl
ATOM      6  C   LIG    1       25.527 -26.292   4.809  0.00  0.00    +0.138 A 
ATOM      7  N   LIG    1       25.573 -25.018   5.237  0.00  0.00    -0.221 NA
ENDROOT
BRANCH   1   8
ATOM      8  N   LIG    1       25.467 -23.531   6.992  0.00  0.00    -0.281 N 
ATOM      9  H   LIG    1       24.626 -23.441   7.546  0.00  0.00    +0.155 HD
BRANCH   8  15
ATOM     10  C   LIG    1       29.557 -21.432   8.752  0.00  0.00    +0.044 C 
ATOM     11  C   LIG    1       28.304 -21.274   7.937  0.00  0.00    -0.045 A 
ATOM     12  C   LIG    1       28.015 -20.118   7.190  0.00  0.00    -0.038 A 
ATOM     13  C   LIG    1       26.881 -20.156   6.373  0.00  0.00    +0.051 A 
ATOM     14  C   LIG    1       26.093 -21.301   6.212  0.00  0.00    +0.142 A 
ATOM     15  C   LIG    1       26.323 -22.419   7.035  0.00  0.00    +0.076 A 
ATOM     16  C   LIG    1       27.406 -22.359   7.916  0.00  0.00    +0.030 A 
BRANCH  12  17
ATOM     17  C   LIG    1       28.859 -18.846   7.287  0.00  0.00    +0.022 C 
ATOM     18  C   LIG    1       29.547 -18.571   8.645  0.00  0.00    +0.023 C 
ATOM     19  C   LIG    1       30.923 -19.218   8.837  0.00  0.00    +0.081 C 
ATOM     20  N   LIG    1       31.796 -19.072   7.676  0.00  0.00    -0.316 NA
ATOM     21  H   LIG    1       32.032 -18.087   7.558  0.00  0.00    +0.122 HD
ATOM     22  C   LIG    1       31.155 -19.561   6.455  0.00  0.00    +0.081 C 
ATOM     23  C   LIG    1       29.884 -18.776   6.144  0.00  0.00    +0.023 C 
ENDBRANCH  12  17
BRANCH  14  24
ATOM     24  O   LIG    1       25.053 -21.346   5.304  0.00  0.00    -0.487 OA
BRANCH  24  25
ATOM     25  C   LIG    1       24.286 -20.131   5.151  0.00  0.00    +0.167 C 
ATOM     26  C   LIG    1       22.900 -20.346   5.749  0.00  0.00    +0.051 C 
ATOM     27  C   LIG    1       24.193 -19.748   3.678  0.00  0.00    +0.051 C 
ENDBRANCH  24  25
ENDBRANCH  14  24
ENDBRANCH   8  15
ENDBRANCH   1   8
BRANCH   3  28
ATOM     28  N   LIG    1       26.156 -28.056   8.002  0.00  0.00    -0.297 N 
ATOM     29  H   LIG    1       27.114 -27.913   8.325  0.00  0.00    +0.154 HD
BRANCH  28  30
ATOM     30  C   LIG    1       25.468 -29.103   8.637  0.00  0.00    +0.058 A 
ATOM     31  C   LIG    1       25.637 -29.425  10.001  0.00  0.00    +0.110 A 
ATOM     32  C   LIG    1       24.751 -30.303  10.658  0.00  0.00    +0.029 A 
ATOM     33  C   LIG    1       23.665 -30.844   9.979  0.00  0.00    +0.002 A 
ATOM     34  C   LIG    1       23.533 -30.608   8.621  0.00  0.00    +0.002 A 
ATOM     35  C   LIG    1       24.466 -29.806   7.959  0.00  0.00    +0.025 A 
BRANCH  31  36
ATOM     36  S   LIG    1       27.000 -28.812  10.976  0.00  0.00    +0.001 S 
ATOM     37  O   LIG    1       26.895 -27.350  10.906  0.00  0.00    -0.169 OA
ATOM     38  O   LIG    1       28.202 -29.470  10.533  0.00  0.00    -0.169 OA
BRANCH  36  39
ATOM     39  C   LIG    1       26.705 -29.288  12.672  0.00  0.00    +0.130 C 
ATOM     40  C   LIG    1       25.994 -28.155  13.409  0.00  0.00    +0.032 C 
ATOM     41  C   LIG    1       27.991 -29.673  13.387  0.00  0.00    +0.032 C 
ENDBRANCH  36  39
ENDBRANCH  31  36
ENDBRANCH  28  30
ENDBRANCH   3  28
TORSDOF 9
ENDMDL
MODEL 3
REMARK VINA RESULT:      -7.6      2.843      9.865
REMARK  Name = *****
REMARK                            x       y       z     vdW  Elec       q    Type
REMARK                         _______ _______ _______ _____ _____    ______ ____
ROOT
ATOM      1  C   LIG    1       25.666 -24.811   6.633  0.00  0.00    +0.221 A 
ATOM      2  N   LIG    1       26.020 -25.929   7.301  0.00  0.00    -0.198 NA
ATOM      3  C   LIG    1       25.944 -27.144   6.697  0.00  0.00    +0.146 A 
ATOM      4  C   LIG    1       25.414 -27.233   5.417  0.00  0.00    +0.099 A 
ATOM      5 CL   LIG    1       24.855 -28.621   4.570  0.00  0.00    -0.078 Cl
ATOM      6  C   LIG    1       25.205 -26.032   4.769  0.00  0.00    +0.138 A 
ATOM      7  N   LIG    1       25.343 -24.821   5.338  0.00  0.00    -0.221 NA
ENDROOT
BRANCH   1   8
ATOM      8  N   LIG    1       25.572 -23.567   7.255  0.00  0.00    -0.281 N 
ATOM      9  H   LIG    1       24.883 -23.571   7.995  0.00  0.00    +0.155 HD
BRANCH   8  15
ATOM     10  C   LIG    1       29.762 -21.400   8.663  0.00  0.00    +0.044 C 
ATOM     11  C   LIG    1       28.437 -21.260   7.966  0.00  0.00    -0.045 A 
ATOM     12  C   LIG    1       28.059 -20.104   7.261  0.00  0.00    -0.038 A 
ATOM     13  C   LIG    1       26.857 -20.157   6.549  0.00  0.00    +0.051 A 
ATOM     14  C   LIG    1       26.080 -21.317   6.447  0.00  0.00    +0.142 A 
ATOM     15  C   LIG    1       26.406 -22.437   7.233  0.00  0.00    +0.076 A 
ATOM     16  C   LIG    1       27.562 -22.363   8.013  0.00  0.00    +0.030 A 
BRANCH  12  17
ATOM     17  C   LIG    1       28.883 -18.816   7.296  0.00  0.00    +0.022 C 
ATOM     18  C   LIG    1       29.638 -18.510   8.611  0.00  0.00    +0.023 C 
ATOM     19  C   LIG    1       31.035 -19.130   8.735  0.00  0.00    +0.081 C 
ATOM     20  N   LIG    1       31.841 -18.984   7.527  0.00  0.00    -0.316 NA
ATOM     21  H   LIG    1       32.052 -17.997   7.384  0.00  0.00    +0.122 HD
ATOM     22  C   LIG    1       31.144 -19.501   6.349  0.00  0.00    +0.081 C 
ATOM     23  C   LIG    1       29.843 -18.743   6.098  0.00  0.00    +0.023 C 
ENDBRANCH  12  17
BRANCH  14  24
ATOM     24  O   LIG    1       24.964 -21.375   5.636  0.00  0.00    -0.487 OA
BRANCH  24  25
ATOM     25  C   LIG    1       23.903 -20.442   5.941  0.00  0.00    +0.167 C 
ATOM     26  C   LIG    1       23.271 -20.836   7.271  0.00  0.00    +0.051 C 
ATOM     27  C   LIG    1       22.868 -20.437   4.822  0.00  0.00    +0.051 C 
ENDBRANCH  24  25
ENDBRANCH  14  24
ENDBRANCH   8  15
ENDBRANCH   1   8
BRANCH   3  28
ATOM     28  N   LIG    1       26.375 -28.175   7.551  0.00  0.00    -0.297 N 
ATOM     29  H   LIG    1       27.029 -28.767   7.038  0.00  0.00    +0.154 HD
BRANCH  28  30
ATOM     30  C   LIG    1       26.095 -28.599   8.861  0.00  0.00    +0.058 A 
ATOM     31  C   LIG    1       25.412 -29.798   9.156  0.00  0.00    +0.110 A 
ATOM     32  C   LIG    1       25.375 -30.312  10.468  0.00  0.00    +0.029 A 
ATOM     33  C   LIG    1       26.049 -29.662  11.496  0.00  0.00    +0.002 A 
ATOM     34  C   LIG    1       26.651 -28.442  11.243  0.00  0.00    +0.002 A 
ATOM     35  C   LIG    1       26.607 -27.897   9.957  0.00  0.00    +0.025 A 
BRANCH  31  36
ATOM     36  S   LIG    1       24.494 -30.714   7.930  0.00  0.00    +0.001 S 
ATOM     37  O   LIG    1       23.680 -29.712   7.232  0.00  0.00    -0.169 OA
ATOM     38  O   LIG    1       23.861 -31.831   8.583  0.00  0.00    -0.169 OA
BRANCH  36  39
ATOM     39  C   LIG    1       25.670 -31.361   6.751  0.00  0.00    +0.130 C 
ATOM     40  C   LIG    1       24.933 -32.141   5.664  0.00  0.00    +0.032 C 
ATOM     41  C   LIG    1       26.725 -32.230   7.417  0.00  0.00    +0.032 C 
ENDBRANCH  36  39
ENDBRANCH  31  36
ENDBRANCH  28  30
ENDBRANCH   3  28
TORSDOF 9
ENDMDL
MODEL 4
REMARK VINA RESULT:      -7.6      1.260      2.992
REMARK  Name = *****
REMARK                            x       y       z     vdW  Elec       q    Type
REMARK                         _______ _______ _______ _____ _____    ______ ____
ROOT
ATOM      1  C   LIG    1       25.911 -27.636   7.389  0.00  0.00    +0.221 A 
ATOM      2  N   LIG    1       25.920 -26.303   7.604  0.00  0.00    -0.198 NA
ATOM      3  C   LIG    1       25.530 -25.445   6.625  0.00  0.00    +0.146 A 
ATOM      4  C   LIG    1       25.209 -25.947   5.371  0.00  0.00    +0.099 A 
ATOM      5 CL   LIG    1       25.055 -25.113   3.877  0.00  0.00    -0.078 Cl
ATOM      6  C   LIG    1       25.100 -27.322   5.286  0.00  0.00    +0.138 A 
ATOM      7  N   LIG    1       25.419 -28.178   6.272  0.00  0.00    -0.221 NA
ENDROOT
BRANCH   1   8
ATOM      8  N   LIG    1       26.451 -28.544   8.298  0.00  0.00    -0.281 N 
ATOM      9  H   LIG    1       27.329 -28.215   8.677  0.00  0.00    +0.155 HD
BRANCH   8  15
ATOM     10  C   LIG    1       25.034 -33.257   8.166  0.00  0.00    +0.044 C 
ATOM     11  C   LIG    1       25.093 -31.974   8.949  0.00  0.00    -0.045 A 
ATOM     12  C   LIG    1       24.696 -31.877  10.293  0.00  0.00    -0.038 A 
ATOM     13  C   LIG    1       24.926 -30.658  10.939  0.00  0.00    +0.051 A 
ATOM     14  C   LIG    1       25.597 -29.589  10.335  0.00  0.00    +0.142 A 
ATOM     15  C   LIG    1       25.901 -29.651   8.963  0.00  0.00    +0.076 A 
ATOM     16  C   LIG    1       25.598 -30.837   8.289  0.00  0.00    +0.030 A 
BRANCH  12  17
ATOM     17  C   LIG    1       23.995 -33.022  11.027  0.00  0.00    +0.022 C 
ATOM     18  C   LIG    1       24.289 -33.161  12.540  0.00  0.00    +0.023 C 
ATOM     19  C   LIG    1       23.397 -32.330  13.469  0.00  0.00    +0.081 C 
ATOM     20  N   LIG    1       21.981 -32.395  13.120  0.00  0.00    -0.316 NA
ATOM     21  H   LIG    1       21.640 -33.343  13.279  0.00  0.00    +0.122 HD
ATOM     22  C   LIG    1       21.754 -32.034  11.720  0.00  0.00    +0.081 C 
ATOM     23  C   LIG    1       22.479 -32.991  10.777  0.00  0.00    +0.023 C 
ENDBRANCH  12  17
BRANCH  14  24
ATOM     24  O   LIG    1       25.920 -28.444  11.037  0.00  0.00    -0.487 OA
BRANCH  24  25
ATOM     25  C   LIG    1       26.794 -28.618  12.175  0.00  0.00    +0.167 C 
ATOM     26  C   LIG    1       26.907 -27.290  12.915  0.00  0.00    +0.051 C 
ATOM     27  C   LIG    1       28.163 -29.108  11.717  0.00  0.00    +0.051 C 
ENDBRANCH  24  25
ENDBRANCH  14  24
ENDBRANCH   8  15
ENDBRANCH   1   8
BRANCH   3  28
ATOM     28  N   LIG    1       25.593 -24.107   7.053  0.00  0.00    -0.297 N 
ATOM     29  H   LIG    1       26.493 -23.955   7.510  0.00  0.00    +0.154 HD
BRANCH  28  30
ATOM     30  C   LIG    1       24.735 -22.994   7.053  0.00  0.00    +0.058 A 
ATOM     31  C   LIG    1       25.152 -21.696   7.415  0.00  0.00    +0.110 A 
ATOM     32  C   LIG    1       24.341 -20.571   7.160  0.00  0.00    +0.029 A 
ATOM     33  C   LIG    1       23.123 -20.718   6.507  0.00  0.00    +0.002 A 
ATOM     34  C   LIG    1       22.659 -21.991   6.221  0.00  0.00    +0.002 A 
ATOM     35  C   LIG    1       23.431 -23.105   6.557  0.00  0.00    +0.025 A 
BRANCH  31  36
ATOM     36  S   LIG    1       26.683 -21.378   8.275  0.00  0.00    +0.001 S 
ATOM     37  O   LIG    1       26.928 -22.581   9.080  0.00  0.00    -0.169 OA
ATOM     38  O   LIG    1       26.583 -20.091   8.913  0.00  0.00    -0.169 OA
BRANCH  36  39
ATOM     39  C   LIG    1       27.979 -21.285   7.049  0.00  0.00    +0.130 C 
ATOM     40  C   LIG    1       29.333 -21.136   7.740  0.00  0.00    +0.032 C 
ATOM     41  C   LIG    1       27.749 -20.150   6.063  0.00  0.00    +0.032 C 
ENDBRANCH  36  39
ENDBRANCH  31  36
ENDBRANCH  28  30
ENDBRANCH   3  28
TORSDOF 9
ENDMDL
MODEL 5
REMARK VINA RESULT:      -7.5      1.727      3.740
REMARK  Name = *****
REMARK                            x       y       z     vdW  Elec       q    Type
REMARK                         _______ _______ _______ _____ _____    ______ ____
ROOT
ATOM      1  C   LIG    1       25.461 -27.441   6.734  0.00  0.00    +0.221 A 
ATOM      2  N   LIG    1       25.627 -26.231   7.309  0.00  0.00    -0.198 NA
ATOM      3  C   LIG    1       25.303 -25.097   6.634  0.00  0.00    +0.146 A 
ATOM      4  C   LIG    1       24.884 -25.191   5.313  0.00  0.00    +0.099 A 
ATOM      5 CL   LIG    1       24.773 -23.958   4.122  0.00  0.00    -0.078 Cl
ATOM      6  C   LIG    1       24.619 -26.468   4.857  0.00  0.00    +0.138 A 
ATOM      7  N   LIG    1       24.874 -27.595   5.545  0.00  0.00    -0.221 NA
ENDROOT
BRANCH   1   8
ATOM      8  N   LIG    1       25.927 -28.618   7.318  0.00  0.00    -0.281 N 
ATOM      9  H   LIG    1       26.930 -28.708   7.226  0.00  0.00    +0.155 HD
BRANCH   8  15
ATOM     10  C   LIG    1       23.223 -32.671   8.016  0.00  0.00    +0.044 C 
ATOM     11  C   LIG    1       23.920 -31.492   8.637  0.00  0.00    -0.045 A 
ATOM     12  C   LIG    1       24.050 -31.323  10.026  0.00  0.00    -0.038 A 
ATOM     13  C   LIG    1       24.835 -30.252  10.466  0.00  0.00    +0.051 A 
ATOM     14  C   LIG    1       25.546 -29.419   9.596  0.00  0.00    +0.142 A 
ATOM     15  C   LIG    1       25.333 -29.526   8.209  0.00  0.00    +0.076 A 
ATOM     16  C   LIG    1       24.484 -30.542   7.764  0.00  0.00    +0.030 A 
BRANCH  12  17
ATOM     17  C   LIG    1       23.334 -32.224  11.034  0.00  0.00    +0.022 C 
ATOM     18  C   LIG    1       24.048 -32.458  12.386  0.00  0.00    +0.023 C 
ATOM     19  C   LIG    1       23.770 -31.415  13.474  0.00  0.00    +0.081 C 
ATOM     20  N   LIG    1       22.359 -31.063  13.590  0.00  0.00    -0.316 NA
ATOM     21  H   LIG    1       21.839 -31.873  13.925  0.00  0.00    +0.122 HD
ATOM     22  C   LIG    1       21.803 -30.637  12.305  0.00  0.00    +0.081 C 
ATOM     23  C   LIG    1       21.890 -31.752  11.266  0.00  0.00    +0.023 C 
ENDBRANCH  12  17
BRANCH  14  24
ATOM     24  O   LIG    1       26.411 -28.448  10.063  0.00  0.00    -0.487 OA
BRANCH  24  25
ATOM     25  C   LIG    1       26.819 -28.569  11.444  0.00  0.00    +0.167 C 
ATOM     26  C   LIG    1       26.847 -27.179  12.071  0.00  0.00    +0.051 C 
ATOM     27  C   LIG    1       28.187 -29.237  11.533  0.00  0.00    +0.051 C 
ENDBRANCH  24  25
ENDBRANCH  14  24
ENDBRANCH   8  15
ENDBRANCH   1   8
BRANCH   3  28
ATOM     28  N   LIG    1       25.530 -23.948   7.411  0.00  0.00    -0.297 N 
ATOM     29  H   LIG    1       25.065 -24.070   8.311  0.00  0.00    +0.154 HD
BRANCH  28  30
ATOM     30  C   LIG    1       26.166 -22.708   7.237  0.00  0.00    +0.058 A 
ATOM     31  C   LIG    1       25.471 -21.480   7.200  0.00  0.00    +0.110 A 
ATOM     32  C   LIG    1       26.157 -20.251   7.280  0.00  0.00    +0.029 A 
ATOM     33  C   LIG    1       27.538 -20.226   7.436  0.00  0.00    +0.002 A 
ATOM     34  C   LIG    1       28.244 -21.416   7.388  0.00  0.00    +0.002 A 
ATOM     35  C   LIG    1       27.563 -22.624   7.220  0.00  0.00    +0.025 A 
BRANCH  31  36
ATOM     36  S   LIG    1       23.703 -21.378   6.984  0.00  0.00    +0.001 S 
ATOM     37  O   LIG    1       23.267 -20.308   7.890  0.00  0.00    -0.169 OA
ATOM     38  O   LIG    1       23.155 -22.704   7.117  0.00  0.00    -0.169 OA
BRANCH  36  39
ATOM     39  C   LIG    1       23.395 -20.821   5.315  0.00  0.00    +0.130 C 
ATOM     40  C   LIG    1       24.723 -20.584   4.598  0.00  0.00    +0.032 C 
ATOM     41  C   LIG    1       22.533 -19.570   5.282  0.00  0.00    +0.032 C 
ENDBRANCH  36  39
ENDBRANCH  31  36
ENDBRANCH  28  30
ENDBRANCH   3  28
TORSDOF 9
ENDMDL
MODEL 6
REMARK VINA RESULT:      -7.5      4.512      8.314
REMARK  Name = *****
REMARK                            x       y       z     vdW  Elec       q    Type
REMARK                         _______ _______ _______ _____ _____    ______ ____
ROOT
ATOM      1  C   LIG    1       22.492 -31.868   9.697  0.00  0.00    +0.221 A 
ATOM      2  N   LIG    1       22.499 -31.204  10.872  0.00  0.00    -0.198 NA
ATOM      3  C   LIG    1       21.405 -31.218  11.678  0.00  0.00    +0.146 A 
ATOM      4  C   LIG    1       20.248 -31.849  11.239  0.00  0.00    +0.099 A 
ATOM      5 CL   LIG    1       18.645 -31.714  11.843  0.00  0.00    -0.078 Cl
ATOM      6  C   LIG    1       20.377 -32.609  10.093  0.00  0.00    +0.138 A 
ATOM      7  N   LIG    1       21.478 -32.654   9.324  0.00  0.00    -0.221 NA
ENDROOT
BRANCH   1   8
ATOM      8  N   LIG    1       23.522 -31.751   8.765  0.00  0.00    -0.281 N 
ATOM      9  H   LIG    1       23.637 -32.600   8.228  0.00  0.00    +0.155 HD
BRANCH   8  15
ATOM     10  C   LIG    1       26.694 -28.069   9.549  0.00  0.00    +0.044 C 
ATOM     11  C   LIG    1       25.727 -28.727   8.604  0.00  0.00    -0.045 A 
ATOM     12  C   LIG    1       25.564 -28.321   7.268  0.00  0.00    -0.038 A 
ATOM     13  C   LIG    1       24.729 -29.102   6.463  0.00  0.00    +0.051 A 
ATOM     14  C   LIG    1       24.136 -30.290   6.905  0.00  0.00    +0.142 A 
ATOM     15  C   LIG    1       24.218 -30.639   8.265  0.00  0.00    +0.076 A 
ATOM     16  C   LIG    1       24.983 -29.817   9.096  0.00  0.00    +0.030 A 
BRANCH  12  17
ATOM     17  C   LIG    1       26.217 -27.056   6.709  0.00  0.00    +0.022 C 
ATOM     18  C   LIG    1       26.558 -27.060   5.200  0.00  0.00    +0.023 C 
ATOM     19  C   LIG    1       25.432 -26.611   4.262  0.00  0.00    +0.081 C 
ATOM     20  N   LIG    1       24.741 -25.411   4.723  0.00  0.00    -0.316 NA
ATOM     21  H   LIG    1       25.384 -24.620   4.686  0.00  0.00    +0.122 HD
ATOM     22  C   LIG    1       24.250 -25.564   6.093  0.00  0.00    +0.081 C 
ATOM     23  C   LIG    1       25.397 -25.807   7.069  0.00  0.00    +0.023 C 
ENDBRANCH  12  17
BRANCH  14  24
ATOM     24  O   LIG    1       23.419 -31.106   6.051  0.00  0.00    -0.487 OA
BRANCH  24  25
ATOM     25  C   LIG    1       23.971 -32.420   5.809  0.00  0.00    +0.167 C 
ATOM     26  C   LIG    1       25.135 -32.292   4.833  0.00  0.00    +0.051 C 
ATOM     27  C   LIG    1       22.895 -33.350   5.260  0.00  0.00    +0.051 C 
ENDBRANCH  24  25
ENDBRANCH  14  24
ENDBRANCH   8  15
ENDBRANCH   1   8
BRANCH   3  28
ATOM     28  N   LIG    1       21.620 -30.487  12.859  0.00  0.00    -0.297 N 
ATOM     29  H   LIG    1       21.531 -31.121  13.653  0.00  0.00    +0.154 HD
BRANCH  28  30
ATOM     30  C   LIG    1       21.865 -29.145  13.198  0.00  0.00    +0.058 A 
ATOM     31  C   LIG    1       23.115 -28.679  13.656  0.00  0.00    +0.110 A 
ATOM     32  C   LIG    1       23.393 -27.299  13.741  0.00  0.00    +0.029 A 
ATOM     33  C   LIG    1       22.445 -26.366  13.336  0.00  0.00    +0.002 A 
ATOM     34  C   LIG    1       21.184 -26.802  12.965  0.00  0.00    +0.002 A 
ATOM     35  C   LIG    1       20.891 -28.168  12.968  0.00  0.00    +0.025 A 
BRANCH  31  36
ATOM     36  S   LIG    1       24.406 -29.774  14.222  0.00  0.00    +0.001 S 
ATOM     37  O   LIG    1       23.712 -30.990  14.661  0.00  0.00    -0.169 OA
ATOM     38  O   LIG    1       25.240 -29.047  15.145  0.00  0.00    -0.169 OA
BRANCH  36  39
ATOM     39  C   LIG    1       25.403 -30.209  12.805  0.00  0.00    +0.130 C 
ATOM     40  C   LIG    1       25.415 -31.726  12.630  0.00  0.00    +0.032 C 
ATOM     41  C   LIG    1       26.819 -29.667  12.918  0.00  0.00    +0.032 C 
ENDBRANCH  36  39
ENDBRANCH  31  36
ENDBRANCH  28  30
ENDBRANCH   3  28
TORSDOF 9
ENDMDL
MODEL 7
REMARK VINA RESULT:      -7.4      1.467      2.506
REMARK  Name = *****
REMARK                            x       y       z     vdW  Elec       q    Type
REMARK                         _______ _______ _______ _____ _____    ______ ____
ROOT
ATOM      1  C   LIG    1       25.516 -27.538   6.852  0.00  0.00    +0.221 A 
ATOM      2  N   LIG    1       25.587 -26.292   7.366  0.00  0.00    -0.198 NA
ATOM      3  C   LIG    1       25.259 -25.214   6.606  0.00  0.00    +0.146 A 
ATOM      4  C   LIG    1       24.937 -25.401   5.268  0.00  0.00    +0.099 A 
ATOM      5 CL   LIG    1       24.853 -24.241   4.002  0.00  0.00    -0.078 Cl
ATOM      6  C   LIG    1       24.762 -26.712   4.870  0.00  0.00    +0.138 A 
ATOM      7  N   LIG    1       25.020 -27.785   5.637  0.00  0.00    -0.221 NA
ENDROOT
BRANCH   1   8
ATOM      8  N   LIG    1       25.994 -28.657   7.533  0.00  0.00    -0.281 N 
ATOM      9  H   LIG    1       26.743 -29.109   7.028  0.00  0.00    +0.155 HD
BRANCH   8  15
ATOM     10  C   LIG    1       27.346 -28.392  12.259  0.00  0.00    +0.044 C 
ATOM     11  C   LIG    1       26.505 -29.080  11.220  0.00  0.00    -0.045 A 
ATOM     12  C   LIG    1       25.545 -30.057  11.535  0.00  0.00    -0.038 A 
ATOM     13  C   LIG    1       24.741 -30.520  10.488  0.00  0.00    +0.051 A 
ATOM     14  C   LIG    1       24.800 -29.997   9.192  0.00  0.00    +0.142 A 
ATOM     15  C   LIG    1       25.827 -29.096   8.856  0.00  0.00    +0.076 A 
ATOM     16  C   LIG    1       26.688 -28.690   9.879  0.00  0.00    +0.030 A 
BRANCH  12  17
ATOM     17  C   LIG    1       25.399 -30.642  12.941  0.00  0.00    +0.022 C 
ATOM     18  C   LIG    1       24.438 -29.905  13.903  0.00  0.00    +0.023 C 
ATOM     19  C   LIG    1       22.967 -30.328  13.828  0.00  0.00    +0.081 C 
ATOM     20  N   LIG    1       22.784 -31.776  13.782  0.00  0.00    -0.316 NA
ATOM     21  H   LIG    1       23.082 -32.178  14.671  0.00  0.00    +0.122 HD
ATOM     22  C   LIG    1       23.558 -32.383  12.699  0.00  0.00    +0.081 C 
ATOM     23  C   LIG    1       25.053 -32.138  12.882  0.00  0.00    +0.023 C 
ENDBRANCH  12  17
BRANCH  14  24
ATOM     24  O   LIG    1       23.909 -30.386   8.210  0.00  0.00    -0.487 OA
BRANCH  24  25
ATOM     25  C   LIG    1       24.163 -31.665   7.587  0.00  0.00    +0.167 C 
ATOM     26  C   LIG    1       24.092 -31.497   6.073  0.00  0.00    +0.051 C 
ATOM     27  C   LIG    1       23.153 -32.698   8.072  0.00  0.00    +0.051 C 
ENDBRANCH  24  25
ENDBRANCH  14  24
ENDBRANCH   8  15
ENDBRANCH   1   8
BRANCH   3  28
ATOM     28  N   LIG    1       25.379 -24.014   7.328  0.00  0.00    -0.297 N 
ATOM     29  H   LIG    1       24.808 -24.086   8.171  0.00  0.00    +0.154 HD
BRANCH  28  30
ATOM     30  C   LIG    1       26.022 -22.777   7.153  0.00  0.00    +0.058 A 
ATOM     31  C   LIG    1       25.334 -21.545   7.124  0.00  0.00    +0.110 A 
ATOM     32  C   LIG    1       26.028 -20.320   7.203  0.00  0.00    +0.029 A 
ATOM     33  C   LIG    1       27.410 -20.305   7.349  0.00  0.00    +0.002 A 
ATOM     34  C   LIG    1       28.109 -21.499   7.293  0.00  0.00    +0.002 A 
ATOM     35  C   LIG    1       27.419 -22.702   7.127  0.00  0.00    +0.025 A 
BRANCH  31  36
ATOM     36  S   LIG    1       23.565 -21.432   6.921  0.00  0.00    +0.001 S 
ATOM     37  O   LIG    1       23.146 -20.340   7.808  0.00  0.00    -0.169 OA
ATOM     38  O   LIG    1       23.007 -22.750   7.086  0.00  0.00    -0.169 OA
BRANCH  36  39
ATOM     39  C   LIG    1       23.248 -20.907   5.243  0.00  0.00    +0.130 C 
ATOM     40  C   LIG    1       24.563 -20.829   4.471  0.00  0.00    +0.032 C 
ATOM     41  C   LIG    1       22.513 -19.577   5.192  0.00  0.00    +0.032 C 
ENDBRANCH  36  39
ENDBRANCH  31  36
ENDBRANCH  28  30
ENDBRANCH   3  28
TORSDOF 9
ENDMDL
MODEL 8
REMARK VINA RESULT:      -7.4      2.326      4.212
REMARK  Name = *****
REMARK                            x       y       z     vdW  Elec       q    Type
REMARK                         _______ _______ _______ _____ _____    ______ ____
ROOT
ATOM      1  C   LIG    1       25.428 -25.710   6.660  0.00  0.00    +0.221 A 
ATOM      2  N   LIG    1       25.978 -24.479   6.732  0.00  0.00    -0.198 NA
ATOM      3  C   LIG    1       25.193 -23.371   6.702  0.00  0.00    +0.146 A 
ATOM      4  C   LIG    1       23.825 -23.514   6.507  0.00  0.00    +0.099 A 
ATOM      5 CL   LIG    1       22.665 -22.328   6.058  0.00  0.00    -0.078 Cl
ATOM      6  C   LIG    1       23.341 -24.806   6.578  0.00  0.00    +0.138 A 
ATOM      7  N   LIG    1       24.107 -25.906   6.675  0.00  0.00    -0.221 NA
ENDROOT
BRANCH   1   8
ATOM      8  N   LIG    1       26.194 -26.866   6.524  0.00  0.00    -0.281 N 
ATOM      9  H   LIG    1       27.177 -26.652   6.421  0.00  0.00    +0.155 HD
BRANCH   8  15
ATOM     10  C   LIG    1       25.117 -31.325   4.738  0.00  0.00    +0.044 C 
ATOM     11  C   LIG    1       25.285 -30.455   5.953  0.00  0.00    -0.045 A 
ATOM     12  C   LIG    1       25.238 -30.954   7.266  0.00  0.00    -0.038 A 
ATOM     13  C   LIG    1       25.541 -30.060   8.298  0.00  0.00    +0.051 A 
ATOM     14  C   LIG    1       25.961 -28.745   8.070  0.00  0.00    +0.142 A 
ATOM     15  C   LIG    1       25.909 -28.219   6.766  0.00  0.00    +0.076 A 
ATOM     16  C   LIG    1       25.526 -29.084   5.737  0.00  0.00    +0.030 A 
BRANCH  12  17
ATOM     17  C   LIG    1       24.828 -32.393   7.583  0.00  0.00    +0.022 C 
ATOM     18  C   LIG    1       25.598 -33.099   8.725  0.00  0.00    +0.023 C 
ATOM     19  C   LIG    1       25.044 -32.877  10.137  0.00  0.00    +0.081 C 
ATOM     20  N   LIG    1       23.592 -33.008  10.215  0.00  0.00    -0.316 NA
ATOM     21  H   LIG    1       23.334 -33.977  10.028  0.00  0.00    +0.122 HD
ATOM     22  C   LIG    1       22.919 -32.140   9.248  0.00  0.00    +0.081 C 
ATOM     23  C   LIG    1       23.313 -32.495   7.817  0.00  0.00    +0.023 C 
ENDBRANCH  12  17
BRANCH  14  24
ATOM     24  O   LIG    1       26.373 -27.924   9.102  0.00  0.00    -0.487 OA
BRANCH  24  25
ATOM     25  C   LIG    1       26.495 -28.544  10.401  0.00  0.00    +0.167 C 
ATOM     26  C   LIG    1       26.735 -27.458  11.443  0.00  0.00    +0.051 C 
ATOM     27  C   LIG    1       27.632 -29.560  10.396  0.00  0.00    +0.051 C 
ENDBRANCH  24  25
ENDBRANCH  14  24
ENDBRANCH   8  15
ENDBRANCH   1   8
BRANCH   3  28
ATOM     28  N   LIG    1       25.953 -22.193   6.809  0.00  0.00    -0.297 N 
ATOM     29  H   LIG    1       26.463 -22.217   7.692  0.00  0.00    +0.154 HD
BRANCH  28  30
ATOM     30  C   LIG    1       26.132 -21.022   6.054  0.00  0.00    +0.058 A 
ATOM     31  C   LIG    1       27.270 -20.195   6.166  0.00  0.00    +0.110 A 
ATOM     32  C   LIG    1       27.531 -19.181   5.222  0.00  0.00    +0.029 A 
ATOM     33  C   LIG    1       26.685 -19.000   4.134  0.00  0.00    +0.002 A 
ATOM     34  C   LIG    1       25.519 -19.744   4.054  0.00  0.00    +0.002 A 
ATOM     35  C   LIG    1       25.225 -20.686   5.042  0.00  0.00    +0.025 A 
BRANCH  31  36
ATOM     36  S   LIG    1       28.420 -20.315   7.525  0.00  0.00    +0.001 S 
ATOM     37  O   LIG    1       29.176 -21.549   7.280  0.00  0.00    -0.169 OA
ATOM     38  O   LIG    1       27.685 -20.151   8.753  0.00  0.00    -0.169 OA
BRANCH  36  39
ATOM     39  C   LIG    1       29.564 -18.951   7.383  0.00  0.00    +0.130 C 
ATOM     40  C   LIG    1       30.862 -19.432   6.738  0.00  0.00    +0.032 C 
ATOM     41  C   LIG    1       29.841 -18.298   8.728  0.00  0.00    +0.032 C 
ENDBRANCH  36  39
ENDBRANCH  31  36
ENDBRANCH  28  30
ENDBRANCH   3  28
TORSDOF 9
ENDMDL
MODEL 9
REMARK VINA RESULT:      -7.3      4.862      8.756
REMARK  Name = *****
REMARK                            x       y       z     vdW  Elec       q    Type
REMARK                         _______ _______ _______ _____ _____    ______ ____
ROOT
ATOM      1  C   LIG    1       22.436 -32.100   9.382  0.00  0.00    +0.221 A 
ATOM      2  N   LIG    1       21.890 -31.211  10.239  0.00  0.00    -0.198 NA
ATOM      3  C   LIG    1       20.617 -31.374  10.683  0.00  0.00    +0.146 A 
ATOM      4  C   LIG    1       19.851 -32.417  10.178  0.00  0.00    +0.099 A 
ATOM      5 CL   LIG    1       18.150 -32.648  10.255  0.00  0.00    -0.078 Cl
ATOM      6  C   LIG    1       20.532 -33.346   9.415  0.00  0.00    +0.138 A 
ATOM      7  N   LIG    1       21.813 -33.226   9.025  0.00  0.00    -0.221 NA
ENDROOT
BRANCH   1   8
ATOM      8  N   LIG    1       23.672 -31.892   8.773  0.00  0.00    -0.281 N 
ATOM      9  H   LIG    1       24.071 -32.756   8.433  0.00  0.00    +0.155 HD
BRANCH   8  15
ATOM     10  C   LIG    1       26.681 -28.109   9.707  0.00  0.00    +0.044 C 
ATOM     11  C   LIG    1       25.739 -28.768   8.738  0.00  0.00    -0.045 A 
ATOM     12  C   LIG    1       25.549 -28.310   7.422  0.00  0.00    -0.038 A 
ATOM     13  C   LIG    1       24.746 -29.092   6.586  0.00  0.00    +0.051 A 
ATOM     14  C   LIG    1       24.209 -30.324   6.977  0.00  0.00    +0.142 A 
ATOM     15  C   LIG    1       24.315 -30.728   8.320  0.00  0.00    +0.076 A 
ATOM     16  C   LIG    1       25.047 -29.910   9.184  0.00  0.00    +0.030 A 
BRANCH  12  17
ATOM     17  C   LIG    1       26.142 -26.994   6.917  0.00  0.00    +0.022 C 
ATOM     18  C   LIG    1       26.654 -26.977   5.457  0.00  0.00    +0.023 C 
ATOM     19  C   LIG    1       25.606 -26.645   4.389  0.00  0.00    +0.081 C 
ATOM     20  N   LIG    1       24.758 -25.512   4.744  0.00  0.00    -0.316 NA
ATOM     21  H   LIG    1       25.325 -24.665   4.766  0.00  0.00    +0.122 HD
ATOM     22  C   LIG    1       24.128 -25.700   6.052  0.00  0.00    +0.081 C 
ATOM     23  C   LIG    1       25.173 -25.825   7.157  0.00  0.00    +0.023 C 
ENDBRANCH  12  17
BRANCH  14  24
ATOM     24  O   LIG    1       23.524 -31.132   6.091  0.00  0.00    -0.487 OA
BRANCH  24  25
ATOM     25  C   LIG    1       24.131 -32.409   5.790  0.00  0.00    +0.167 C 
ATOM     26  C   LIG    1       25.278 -32.189   4.811  0.00  0.00    +0.051 C 
ATOM     27  C   LIG    1       23.092 -33.363   5.212  0.00  0.00    +0.051 C 
ENDBRANCH  24  25
ENDBRANCH  14  24
ENDBRANCH   8  15
ENDBRANCH   1   8
BRANCH   3  28
ATOM     28  N   LIG    1       20.245 -30.356  11.579  0.00  0.00    -0.297 N 
ATOM     29  H   LIG    1       20.518 -29.458  11.178  0.00  0.00    +0.154 HD
BRANCH  28  30
ATOM     30  C   LIG    1       19.665 -30.283  12.856  0.00  0.00    +0.058 A 
ATOM     31  C   LIG    1       20.238 -29.561  13.925  0.00  0.00    +0.110 A 
ATOM     32  C   LIG    1       19.508 -29.301  15.103  0.00  0.00    +0.029 A 
ATOM     33  C   LIG    1       18.187 -29.720  15.218  0.00  0.00    +0.002 A 
ATOM     34  C   LIG    1       17.638 -30.502  14.216  0.00  0.00    +0.002 A 
ATOM     35  C   LIG    1       18.399 -30.829  13.091  0.00  0.00    +0.025 A 
BRANCH  31  36
ATOM     36  S   LIG    1       21.927 -28.987  13.907  0.00  0.00    +0.001 S 
ATOM     37  O   LIG    1       22.672 -30.009  13.164  0.00  0.00    -0.169 OA
ATOM     38  O   LIG    1       22.305 -28.657  15.258  0.00  0.00    -0.169 OA
BRANCH  36  39
ATOM     39  C   LIG    1       21.974 -27.485  12.941  0.00  0.00    +0.130 C 
ATOM     40  C   LIG    1       23.118 -26.596  13.426  0.00  0.00    +0.032 C 
ATOM     41  C   LIG    1       20.652 -26.736  12.988  0.00  0.00    +0.032 C 
ENDBRANCH  36  39
ENDBRANCH  31  36
ENDBRANCH  28  30
ENDBRANCH   3  28
TORSDOF 9
ENDMDL
