MODEL 1
REMARK VINA RESULT:      -8.7      0.000      0.000
REMARK  Name = *****
REMARK                            x       y       z     vdW  Elec       q    Type
REMARK                         _______ _______ _______ _____ _____    ______ ____
ROOT
ATOM      1  C   LIG    1       28.168 -20.232   8.135  0.00  0.00    +0.226 C 
ATOM      2  O   LIG    1       28.748 -18.976   7.726  0.00  0.00    -0.349 OA
ATOM      3  C   LIG    1       30.116 -19.193   7.320  0.00  0.00    +0.177 C 
ATOM      4  C   LIG    1       30.504 -20.595   7.774  0.00  0.00    +0.226 C 
ATOM      5  C   LIG    1       29.179 -21.322   7.790  0.00  0.00    +0.091 C 
ENDROOT
BRANCH   1  14
ATOM      6  C   LIG    1       25.312 -20.266   4.053  0.00  0.00    +0.051 C 
ATOM      7  C   LIG    1       25.511 -20.419   5.525  0.00  0.00    +0.030 C 
ATOM      8  C   LIG    1       24.329 -20.724   6.361  0.00  0.00    +0.257 C 
ATOM      9  O   LIG    1       23.212 -20.873   5.879  0.00  0.00    -0.267 OA
ATOM     10  N   LIG    1       24.563 -20.824   7.702  0.00  0.00    -0.275 N 
ATOM     11  H   LIG    1       23.767 -21.017   8.289  0.00  0.00    +0.173 HD
ATOM     12  C   LIG    1       25.772 -20.677   8.331  0.00  0.00    +0.331 C 
ATOM     13  O   LIG    1       25.847 -20.779   9.554  0.00  0.00    -0.246 OA
ATOM     14  N   LIG    1       26.858 -20.426   7.501  0.00  0.00    -0.274 N 
ATOM     15  C   LIG    1       26.693 -20.288   6.135  0.00  0.00    +0.102 C 
ENDBRANCH   1  14
BRANCH   4  16
ATOM     16  N   LIG    1       31.048 -20.556   9.144  0.00  0.00    +0.083 NA
ATOM     17  N   LIG    1       31.645 -19.505   9.456  0.00  0.00    -0.014 NA
ATOM     18  N   LIG    1       32.184 -18.541   9.719  0.00  0.00    -0.328 NA
ENDBRANCH   4  16
BRANCH   3  19
ATOM     19  C   LIG    1       30.196 -19.038   5.797  0.00  0.00    +0.190 C 
BRANCH  19  20
ATOM     20  O   LIG    1       29.438 -17.907   5.374  0.00  0.00    -0.392 OA
ATOM     21  H   LIG    1       28.794 -18.235   4.719  0.00  0.00    +0.209 HD
ENDBRANCH  19  20
ENDBRANCH   3  19
TORSDOF 4
ENDMDL
MODEL 2
REMARK VINA RESULT:      -8.1      2.360      2.586
REMARK  Name = *****
REMARK                            x       y       z     vdW  Elec       q    Type
REMARK                         _______ _______ _______ _____ _____    ______ ____
ROOT
ATOM      1  C   LIG    1       27.290 -21.351   8.111  0.00  0.00    +0.226 C 
ATOM      2  O   LIG    1       27.203 -20.036   7.526  0.00  0.00    -0.349 OA
ATOM      3  C   LIG    1       28.480 -19.682   6.955  0.00  0.00    +0.177 C 
ATOM      4  C   LIG    1       29.497 -20.697   7.463  0.00  0.00    +0.226 C 
ATOM      5  C   LIG    1       28.651 -21.922   7.721  0.00  0.00    +0.091 C 
ENDROOT
BRANCH   1  14
ATOM      6  C   LIG    1       25.555 -25.479   5.929  0.00  0.00    +0.051 C 
ATOM      7  C   LIG    1       25.358 -24.168   6.615  0.00  0.00    +0.030 C 
ATOM      8  C   LIG    1       23.974 -23.684   6.813  0.00  0.00    +0.257 C 
ATOM      9  O   LIG    1       23.000 -24.335   6.452  0.00  0.00    -0.267 OA
ATOM     10  N   LIG    1       23.854 -22.467   7.419  0.00  0.00    -0.275 N 
ATOM     11  H   LIG    1       22.919 -22.115   7.549  0.00  0.00    +0.173 HD
ATOM     12  C   LIG    1       24.879 -21.671   7.858  0.00  0.00    +0.331 C 
ATOM     13  O   LIG    1       24.637 -20.585   8.379  0.00  0.00    -0.246 OA
ATOM     14  N   LIG    1       26.160 -22.183   7.682  0.00  0.00    -0.274 N 
ATOM     15  C   LIG    1       26.360 -23.399   7.055  0.00  0.00    +0.102 C 
ENDBRANCH   1  14
BRANCH   4  16
ATOM     16  N   LIG    1       30.081 -20.240   8.737  0.00  0.00    +0.083 NA
ATOM     17  N   LIG    1       31.084 -20.872   9.126  0.00  0.00    -0.014 NA
ATOM     18  N   LIG    1       31.997 -21.460   9.461  0.00  0.00    -0.328 NA
ENDBRANCH   4  16
BRANCH   3  19
ATOM     19  C   LIG    1       28.349 -19.714   5.427  0.00  0.00    +0.190 C 
BRANCH  19  20
ATOM     20  O   LIG    1       27.020 -20.073   5.052  0.00  0.00    -0.392 OA
ATOM     21  H   LIG    1       27.100 -20.646   4.268  0.00  0.00    +0.209 HD
ENDBRANCH  19  20
ENDBRANCH   3  19
TORSDOF 4
ENDMDL
MODEL 3
REMARK VINA RESULT:      -8.1      2.045      3.327
REMARK  Name = *****
REMARK                            x       y       z     vdW  Elec       q    Type
REMARK                         _______ _______ _______ _____ _____    ______ ____
ROOT
ATOM      1  C   LIG    1       29.837 -19.079   7.338  0.00  0.00    +0.226 C 
ATOM      2  O   LIG    1       30.878 -20.069   7.212  0.00  0.00    -0.349 OA
ATOM      3  C   LIG    1       31.577 -20.188   8.469  0.00  0.00    +0.177 C 
ATOM      4  C   LIG    1       31.148 -19.011   9.336  0.00  0.00    +0.226 C 
ATOM      5  C   LIG    1       29.767 -18.692   8.813  0.00  0.00    +0.091 C 
ENDROOT
BRANCH   1  14
ATOM      6  C   LIG    1       25.819 -21.986   7.815  0.00  0.00    +0.051 C 
ATOM      7  C   LIG    1       26.659 -21.010   7.058  0.00  0.00    +0.030 C 
ATOM      8  C   LIG    1       26.210 -20.602   5.709  0.00  0.00    +0.257 C 
ATOM      9  O   LIG    1       25.169 -21.022   5.215  0.00  0.00    -0.267 OA
ATOM     10  N   LIG    1       27.030 -19.732   5.050  0.00  0.00    -0.275 N 
ATOM     11  H   LIG    1       26.747 -19.453   4.125  0.00  0.00    +0.173 HD
ATOM     12  C   LIG    1       28.206 -19.207   5.520  0.00  0.00    +0.331 C 
ATOM     13  O   LIG    1       28.862 -18.439   4.820  0.00  0.00    -0.246 OA
ATOM     14  N   LIG    1       28.569 -19.593   6.806  0.00  0.00    -0.274 N 
ATOM     15  C   LIG    1       27.799 -20.490   7.523  0.00  0.00    +0.102 C 
ENDBRANCH   1  14
BRANCH   4  16
ATOM     16  N   LIG    1       32.031 -17.854   9.099  0.00  0.00    +0.083 NA
ATOM     17  N   LIG    1       32.557 -17.361  10.118  0.00  0.00    -0.014 NA
ATOM     18  N   LIG    1       33.025 -16.929  11.058  0.00  0.00    -0.328 NA
ENDBRANCH   4  16
BRANCH   3  19
ATOM     19  C   LIG    1       31.203 -21.534   9.101  0.00  0.00    +0.190 C 
BRANCH  19  20
ATOM     20  O   LIG    1       32.133 -22.541   8.707  0.00  0.00    -0.392 OA
ATOM     21  H   LIG    1       33.011 -22.238   9.005  0.00  0.00    +0.209 HD
ENDBRANCH  19  20
ENDBRANCH   3  19
TORSDOF 4
ENDMDL
MODEL 4
REMARK VINA RESULT:      -7.2      1.730      2.382
REMARK  Name = *****
REMARK                            x       y       z     vdW  Elec       q    Type
REMARK                         _______ _______ _______ _____ _____    ______ ____
ROOT
ATOM      1  C   LIG    1       29.092 -19.545   6.839  0.00  0.00    +0.226 C 
ATOM      2  O   LIG    1       29.979 -20.682   6.837  0.00  0.00    -0.349 OA
ATOM      3  C   LIG    1       30.884 -20.583   7.957  0.00  0.00    +0.177 C 
ATOM      4  C   LIG    1       30.753 -19.173   8.518  0.00  0.00    +0.226 C 
ATOM      5  C   LIG    1       29.341 -18.789   8.142  0.00  0.00    +0.091 C 
ENDROOT
BRANCH   1  14
ATOM      6  C   LIG    1       25.103 -20.204   3.928  0.00  0.00    +0.051 C 
ATOM      7  C   LIG    1       25.798 -20.268   5.248  0.00  0.00    +0.030 C 
ATOM      8  C   LIG    1       25.025 -20.734   6.421  0.00  0.00    +0.257 C 
ATOM      9  O   LIG    1       23.854 -21.085   6.331  0.00  0.00    -0.267 OA
ATOM     10  N   LIG    1       25.700 -20.744   7.608  0.00  0.00    -0.275 N 
ATOM     11  H   LIG    1       25.186 -21.046   8.420  0.00  0.00    +0.173 HD
ATOM     12  C   LIG    1       27.005 -20.375   7.806  0.00  0.00    +0.331 C 
ATOM     13  O   LIG    1       27.494 -20.419   8.933  0.00  0.00    -0.246 OA
ATOM     14  N   LIG    1       27.700 -19.977   6.669  0.00  0.00    -0.274 N 
ATOM     15  C   LIG    1       27.074 -19.920   5.437  0.00  0.00    +0.102 C 
ENDBRANCH   1  14
BRANCH   4  16
ATOM     16  N   LIG    1       31.695 -18.264   7.839  0.00  0.00    +0.083 NA
ATOM     17  N   LIG    1       31.982 -17.222   8.464  0.00  0.00    -0.014 NA
ATOM     18  N   LIG    1       32.231 -16.281   9.050  0.00  0.00    -0.328 NA
ENDBRANCH   4  16
BRANCH   3  19
ATOM     19  C   LIG    1       30.493 -21.650   8.986  0.00  0.00    +0.190 C 
BRANCH  19  20
ATOM     20  O   LIG    1       31.619 -22.000   9.788  0.00  0.00    -0.392 OA
ATOM     21  H   LIG    1       32.380 -21.509   9.426  0.00  0.00    +0.209 HD
ENDBRANCH  19  20
ENDBRANCH   3  19
TORSDOF 4
ENDMDL
MODEL 5
REMARK VINA RESULT:      -7.1      3.855      4.895
REMARK  Name = *****
REMARK                            x       y       z     vdW  Elec       q    Type
REMARK                         _______ _______ _______ _____ _____    ______ ____
ROOT
ATOM      1  C   LIG    1       25.484 -22.832   7.333  0.00  0.00    +0.226 C 
ATOM      2  O   LIG    1       24.561 -21.818   6.887  0.00  0.00    -0.349 OA
ATOM      3  C   LIG    1       25.302 -20.668   6.428  0.00  0.00    +0.177 C 
ATOM      4  C   LIG    1       26.745 -20.852   6.879  0.00  0.00    +0.226 C 
ATOM      5  C   LIG    1       26.885 -22.355   6.958  0.00  0.00    +0.091 C 
ENDROOT
BRANCH   1  14
ATOM      6  C   LIG    1       26.876 -27.170   5.317  0.00  0.00    +0.051 C 
ATOM      7  C   LIG    1       25.835 -26.203   5.778  0.00  0.00    +0.030 C 
ATOM      8  C   LIG    1       24.413 -26.566   5.591  0.00  0.00    +0.257 C 
ATOM      9  O   LIG    1       24.075 -27.635   5.095  0.00  0.00    -0.267 OA
ATOM     10  N   LIG    1       23.505 -25.634   6.003  0.00  0.00    -0.275 N 
ATOM     11  H   LIG    1       22.532 -25.858   5.871  0.00  0.00    +0.173 HD
ATOM     12  C   LIG    1       23.787 -24.418   6.570  0.00  0.00    +0.331 C 
ATOM     13  O   LIG    1       22.873 -23.660   6.888  0.00  0.00    -0.246 OA
ATOM     14  N   LIG    1       25.136 -24.136   6.757  0.00  0.00    -0.274 N 
ATOM     15  C   LIG    1       26.112 -25.023   6.342  0.00  0.00    +0.102 C 
ENDBRANCH   1  14
BRANCH   4  16
ATOM     16  N   LIG    1       26.936 -20.280   8.225  0.00  0.00    +0.083 NA
ATOM     17  N   LIG    1       28.079 -19.839   8.465  0.00  0.00    -0.014 NA
ATOM     18  N   LIG    1       29.125 -19.443   8.661  0.00  0.00    -0.328 NA
ENDBRANCH   4  16
BRANCH   3  19
ATOM     19  C   LIG    1       25.181 -20.597   4.901  0.00  0.00    +0.190 C 
BRANCH  19  20
ATOM     20  O   LIG    1       26.389 -20.095   4.332  0.00  0.00    -0.392 OA
ATOM     21  H   LIG    1       26.126 -19.492   3.612  0.00  0.00    +0.209 HD
ENDBRANCH  19  20
ENDBRANCH   3  19
TORSDOF 4
ENDMDL
MODEL 6
REMARK VINA RESULT:      -6.9      1.369      2.205
REMARK  Name = *****
REMARK                            x       y       z     vdW  Elec       q    Type
REMARK                         _______ _______ _______ _____ _____    ______ ____
ROOT
ATOM      1  C   LIG    1       28.145 -20.100   7.887  0.00  0.00    +0.226 C 
ATOM      2  O   LIG    1       28.689 -18.798   7.587  0.00  0.00    -0.349 OA
ATOM      3  C   LIG    1       30.104 -18.919   7.337  0.00  0.00    +0.177 C 
ATOM      4  C   LIG    1       30.525 -20.312   7.789  0.00  0.00    +0.226 C 
ATOM      5  C   LIG    1       29.255 -21.116   7.629  0.00  0.00    +0.091 C 
ENDROOT
BRANCH   1  14
ATOM      6  C   LIG    1       23.328 -21.349   7.661  0.00  0.00    +0.051 C 
ATOM      7  C   LIG    1       24.622 -20.963   7.023  0.00  0.00    +0.030 C 
ATOM      8  C   LIG    1       24.676 -20.884   5.547  0.00  0.00    +0.257 C 
ATOM      9  O   LIG    1       23.693 -21.101   4.847  0.00  0.00    -0.267 OA
ATOM     10  N   LIG    1       25.890 -20.556   5.016  0.00  0.00    -0.275 N 
ATOM     11  H   LIG    1       25.949 -20.510   4.011  0.00  0.00    +0.173 HD
ATOM     12  C   LIG    1       27.040 -20.292   5.714  0.00  0.00    +0.331 C 
ATOM     13  O   LIG    1       28.077 -20.020   5.114  0.00  0.00    -0.246 OA
ATOM     14  N   LIG    1       26.931 -20.346   7.099  0.00  0.00    -0.274 N 
ATOM     15  C   LIG    1       25.739 -20.694   7.706  0.00  0.00    +0.102 C 
ENDBRANCH   1  14
BRANCH   4  16
ATOM     16  N   LIG    1       30.905 -20.293   9.214  0.00  0.00    +0.083 NA
ATOM     17  N   LIG    1       30.867 -21.396   9.795  0.00  0.00    -0.014 NA
ATOM     18  N   LIG    1       30.827 -22.411  10.305  0.00  0.00    -0.328 NA
ENDBRANCH   4  16
BRANCH   3  19
ATOM     19  C   LIG    1       30.349 -18.703   5.839  0.00  0.00    +0.190 C 
BRANCH  19  20
ATOM     20  O   LIG    1       29.459 -17.711   5.331  0.00  0.00    -0.392 OA
ATOM     21  H   LIG    1       28.700 -17.680   5.942  0.00  0.00    +0.209 HD
ENDBRANCH  19  20
ENDBRANCH   3  19
TORSDOF 4
ENDMDL
MODEL 7
REMARK VINA RESULT:      -6.7      2.005      5.852
REMARK  Name = *****
REMARK                            x       y       z     vdW  Elec       q    Type
REMARK                         _______ _______ _______ _____ _____    ______ ____
ROOT
ATOM      1  C   LIG    1       26.611 -21.381   7.345  0.00  0.00    +0.226 C 
ATOM      2  O   LIG    1       26.153 -21.832   6.054  0.00  0.00    -0.349 OA
ATOM      3  C   LIG    1       24.795 -21.389   5.849  0.00  0.00    +0.177 C 
ATOM      4  C   LIG    1       24.276 -20.890   7.192  0.00  0.00    +0.226 C 
ATOM      5  C   LIG    1       25.537 -20.448   7.897  0.00  0.00    +0.091 C 
ENDROOT
BRANCH   1  14
ATOM      6  C   LIG    1       29.693 -18.191   5.078  0.00  0.00    +0.051 C 
ATOM      7  C   LIG    1       29.392 -19.223   6.114  0.00  0.00    +0.030 C 
ATOM      8  C   LIG    1       30.487 -19.652   7.012  0.00  0.00    +0.257 C 
ATOM      9  O   LIG    1       31.612 -19.170   6.941  0.00  0.00    -0.267 OA
ATOM     10  N   LIG    1       30.164 -20.618   7.920  0.00  0.00    -0.275 N 
ATOM     11  H   LIG    1       30.901 -20.932   8.531  0.00  0.00    +0.173 HD
ATOM     12  C   LIG    1       28.938 -21.212   8.076  0.00  0.00    +0.331 C 
ATOM     13  O   LIG    1       28.780 -22.084   8.927  0.00  0.00    -0.246 OA
ATOM     14  N   LIG    1       27.933 -20.752   7.233  0.00  0.00    -0.274 N 
ATOM     15  C   LIG    1       28.193 -19.792   6.273  0.00  0.00    +0.102 C 
ENDBRANCH   1  14
BRANCH   4  16
ATOM     16  N   LIG    1       23.667 -22.000   7.947  0.00  0.00    +0.083 NA
ATOM     17  N   LIG    1       23.068 -22.853   7.261  0.00  0.00    -0.014 NA
ATOM     18  N   LIG    1       22.529 -23.618   6.617  0.00  0.00    -0.328 NA
ENDBRANCH   4  16
BRANCH   3  19
ATOM     19  C   LIG    1       24.806 -20.280   4.789  0.00  0.00    +0.190 C 
BRANCH  19  20
ATOM     20  O   LIG    1       25.959 -20.401   3.959  0.00  0.00    -0.392 OA
ATOM     21  H   LIG    1       26.576 -19.699   4.239  0.00  0.00    +0.209 HD
ENDBRANCH  19  20
ENDBRANCH   3  19
TORSDOF 4
ENDMDL
MODEL 8
REMARK VINA RESULT:      -6.7      2.283      6.201
REMARK  Name = *****
REMARK                            x       y       z     vdW  Elec       q    Type
REMARK                         _______ _______ _______ _____ _____    ______ ____
ROOT
ATOM      1  C   LIG    1       25.511 -20.724   6.847  0.00  0.00    +0.226 C 
ATOM      2  O   LIG    1       25.108 -22.024   7.324  0.00  0.00    -0.349 OA
ATOM      3  C   LIG    1       24.292 -22.668   6.324  0.00  0.00    +0.177 C 
ATOM      4  C   LIG    1       23.920 -21.607   5.295  0.00  0.00    +0.226 C 
ATOM      5  C   LIG    1       25.069 -20.630   5.389  0.00  0.00    +0.091 C 
ENDROOT
BRANCH   1  14
ATOM      6  C   LIG    1       29.820 -18.698   5.382  0.00  0.00    +0.051 C 
ATOM      7  C   LIG    1       29.009 -19.554   6.298  0.00  0.00    +0.030 C 
ATOM      8  C   LIG    1       29.708 -20.262   7.393  0.00  0.00    +0.257 C 
ATOM      9  O   LIG    1       30.914 -20.146   7.577  0.00  0.00    -0.267 OA
ATOM     10  N   LIG    1       28.924 -21.054   8.182  0.00  0.00    -0.275 N 
ATOM     11  H   LIG    1       29.385 -21.554   8.924  0.00  0.00    +0.173 HD
ATOM     12  C   LIG    1       27.572 -21.242   8.057  0.00  0.00    +0.331 C 
ATOM     13  O   LIG    1       26.980 -21.995   8.828  0.00  0.00    -0.246 OA
ATOM     14  N   LIG    1       26.954 -20.529   7.035  0.00  0.00    -0.274 N 
ATOM     15  C   LIG    1       27.688 -19.727   6.183  0.00  0.00    +0.102 C 
ENDBRANCH   1  14
BRANCH   4  16
ATOM     16  N   LIG    1       22.675 -20.925   5.692  0.00  0.00    +0.083 NA
ATOM     17  N   LIG    1       22.450 -19.839   5.119  0.00  0.00    -0.014 NA
ATOM     18  N   LIG    1       22.265 -18.854   4.585  0.00  0.00    -0.328 NA
ENDBRANCH   4  16
BRANCH   3  19
ATOM     19  C   LIG    1       25.103 -23.811   5.703  0.00  0.00    +0.190 C 
BRANCH  19  20
ATOM     20  O   LIG    1       24.732 -23.997   4.339  0.00  0.00    -0.392 OA
ATOM     21  H   LIG    1       25.466 -23.643   3.802  0.00  0.00    +0.209 HD
ENDBRANCH  19  20
ENDBRANCH   3  19
TORSDOF 4
ENDMDL
MODEL 9
REMARK VINA RESULT:      -6.7      2.567      6.127
REMARK  Name = *****
REMARK                            x       y       z     vdW  Elec       q    Type
REMARK                         _______ _______ _______ _____ _____    ______ ____
ROOT
ATOM      1  C   LIG    1       29.471 -20.084   7.994  0.00  0.00    +0.226 C 
ATOM      2  O   LIG    1       29.658 -20.243   6.572  0.00  0.00    -0.349 OA
ATOM      3  C   LIG    1       28.377 -20.176   5.912  0.00  0.00    +0.177 C 
ATOM      4  C   LIG    1       27.308 -20.274   6.993  0.00  0.00    +0.226 C 
ATOM      5  C   LIG    1       28.006 -19.714   8.211  0.00  0.00    +0.091 C 
ENDROOT
BRANCH   1  14
ATOM      6  C   LIG    1       30.588 -16.559  11.332  0.00  0.00    +0.051 C 
ATOM      7  C   LIG    1       30.912 -17.395  10.138  0.00  0.00    +0.030 C 
ATOM      8  C   LIG    1       32.205 -17.166   9.455  0.00  0.00    +0.257 C 
ATOM      9  O   LIG    1       33.013 -16.334   9.855  0.00  0.00    -0.267 OA
ATOM     10  N   LIG    1       32.436 -17.936   8.352  0.00  0.00    -0.275 N 
ATOM     11  H   LIG    1       33.306 -17.784   7.867  0.00  0.00    +0.173 HD
ATOM     12  C   LIG    1       31.599 -18.889   7.835  0.00  0.00    +0.331 C 
ATOM     13  O   LIG    1       31.921 -19.509   6.823  0.00  0.00    -0.246 OA
ATOM     14  N   LIG    1       30.412 -19.093   8.530  0.00  0.00    -0.274 N 
ATOM     15  C   LIG    1       30.100 -18.333   9.642  0.00  0.00    +0.102 C 
ENDBRANCH   1  14
BRANCH   4  16
ATOM     16  N   LIG    1       26.964 -21.686   7.244  0.00  0.00    +0.083 NA
ATOM     17  N   LIG    1       26.237 -21.894   8.238  0.00  0.00    -0.014 NA
ATOM     18  N   LIG    1       25.576 -22.060   9.146  0.00  0.00    -0.328 NA
ENDBRANCH   4  16
BRANCH   3  19
ATOM     19  C   LIG    1       28.300 -18.850   5.146  0.00  0.00    +0.190 C 
BRANCH  19  20
ATOM     20  O   LIG    1       29.570 -18.202   5.150  0.00  0.00    -0.392 OA
ATOM     21  H   LIG    1       29.394 -17.248   5.254  0.00  0.00    +0.209 HD
ENDBRANCH  19  20
ENDBRANCH   3  19
TORSDOF 4
ENDMDL
