MODEL 1
REMARK VINA RESULT:      -4.7      0.000      0.000
REMARK  Name = *****
REMARK                            x       y       z     vdW  Elec       q    Type
REMARK                         _______ _______ _______ _____ _____    ______ ____
ROOT
ATOM      1  C   LIG    1       22.269 -19.145   4.409  0.00  0.00    +0.044 C 
ATOM      2  C   LIG    1       23.602 -18.557   4.015  0.00  0.00    -0.050 C 
ATOM      3  C   LIG    1       24.676 -19.303   3.683  0.00  0.00    +0.003 C 
ENDROOT
BRANCH   3   4
ATOM      4  C   LIG    1       24.787 -20.750   3.751  0.00  0.00    +0.001 C 
ATOM      5  C   LIG    1       24.972 -21.486   4.859  0.00  0.00    +0.003 C 
BRANCH   5   6
ATOM      6  C   LIG    1       25.121 -20.988   6.214  0.00  0.00    -0.044 C 
ATOM      7  C   LIG    1       26.280 -20.599   6.773  0.00  0.00    +0.094 C 
ATOM      8  C   LIG    1       23.870 -20.980   7.062  0.00  0.00    +0.044 C 
BRANCH   7   9
ATOM      9  C   LIG    1       27.662 -20.534   6.257  0.00  0.00    +0.330 C 
ATOM     10  O   LIG    1       28.577 -21.122   6.833  0.00  0.00    -0.246 OA
BRANCH   9  11
ATOM     11  O   LIG    1       27.861 -19.780   5.169  0.00  0.00    -0.477 OA
ATOM     12  H   LIG    1       27.836 -18.826   5.336  0.00  0.00    +0.295 HD
ENDBRANCH   9  11
ENDBRANCH   7   9
ENDBRANCH   5   6
ENDBRANCH   3   4
BRANCH   2  13
ATOM     13  C   LIG    1       23.746 -17.093   4.042  0.00  0.00    +0.003 C 
ATOM     14  C   LIG    1       24.898 -16.398   4.025  0.00  0.00    +0.004 C 
BRANCH  14  15
ATOM     15  C   LIG    1       25.008 -14.936   3.957  0.00  0.00    -0.043 C 
ATOM     16  C   LIG    1       26.372 -14.400   3.430  0.00  0.00    -0.010 C 
ATOM     17  C   LIG    1       27.611 -15.119   4.018  0.00  0.00    +0.016 C 
ATOM     18  C   LIG    1       26.404 -14.570   1.893  0.00  0.00    +0.016 C 
ATOM     19  C   LIG    1       26.566 -12.900   3.781  0.00  0.00    +0.011 C 
ATOM     20  C   LIG    1       25.328 -12.077   3.488  0.00  0.00    +0.005 C 
ATOM     21  C   LIG    1       24.165 -12.586   4.322  0.00  0.00    +0.031 C 
ATOM     22  C   LIG    1       24.017 -14.096   4.358  0.00  0.00    -0.069 C 
ATOM     23  C   LIG    1       22.670 -14.497   4.918  0.00  0.00    +0.039 C 
ENDBRANCH  14  15
ENDBRANCH   2  13
TORSDOF 6
ENDMDL
MODEL 2
REMARK VINA RESULT:      -3.6      1.579      2.698
REMARK  Name = *****
REMARK                            x       y       z     vdW  Elec       q    Type
REMARK                         _______ _______ _______ _____ _____    ______ ____
ROOT
ATOM      1  C   LIG    1       21.939 -15.947   5.359  0.00  0.00    +0.044 C 
ATOM      2  C   LIG    1       22.976 -16.519   4.425  0.00  0.00    -0.050 C 
ATOM      3  C   LIG    1       23.061 -17.831   4.119  0.00  0.00    +0.003 C 
ENDROOT
BRANCH   3   4
ATOM      4  C   LIG    1       22.280 -18.912   4.696  0.00  0.00    +0.001 C 
ATOM      5  C   LIG    1       22.598 -20.217   4.697  0.00  0.00    +0.003 C 
BRANCH   5   6
ATOM      6  C   LIG    1       23.779 -20.819   4.105  0.00  0.00    -0.044 C 
ATOM      7  C   LIG    1       24.933 -21.057   4.751  0.00  0.00    +0.094 C 
ATOM      8  C   LIG    1       23.698 -21.129   2.628  0.00  0.00    +0.044 C 
BRANCH   7   9
ATOM      9  C   LIG    1       25.359 -20.829   6.146  0.00  0.00    +0.330 C 
ATOM     10  O   LIG    1       24.537 -20.823   7.062  0.00  0.00    -0.246 OA
BRANCH   9  11
ATOM     11  O   LIG    1       26.661 -20.593   6.344  0.00  0.00    -0.477 OA
ATOM     12  H   LIG    1       27.249 -21.064   5.735  0.00  0.00    +0.295 HD
ENDBRANCH   9  11
ENDBRANCH   7   9
ENDBRANCH   5   6
ENDBRANCH   3   4
BRANCH   2  13
ATOM     13  C   LIG    1       23.976 -15.601   3.857  0.00  0.00    +0.003 C 
ATOM     14  C   LIG    1       24.640 -14.632   4.512  0.00  0.00    +0.004 C 
BRANCH  14  15
ATOM     15  C   LIG    1       25.701 -13.794   3.941  0.00  0.00    -0.043 C 
ATOM     16  C   LIG    1       27.072 -13.869   4.677  0.00  0.00    -0.010 C 
ATOM     17  C   LIG    1       26.970 -13.828   6.222  0.00  0.00    +0.016 C 
ATOM     18  C   LIG    1       27.769 -15.191   4.279  0.00  0.00    +0.016 C 
ATOM     19  C   LIG    1       27.988 -12.675   4.296  0.00  0.00    +0.011 C 
ATOM     20  C   LIG    1       28.006 -12.419   2.803  0.00  0.00    +0.005 C 
ATOM     21  C   LIG    1       26.606 -12.081   2.323  0.00  0.00    +0.031 C 
ATOM     22  C   LIG    1       25.508 -12.974   2.873  0.00  0.00    -0.069 C 
ATOM     23  C   LIG    1       24.220 -12.790   2.103  0.00  0.00    +0.039 C 
ENDBRANCH  14  15
ENDBRANCH   2  13
TORSDOF 6
ENDMDL
MODEL 3
REMARK VINA RESULT:      -3.5      0.664      2.151
REMARK  Name = *****
REMARK                            x       y       z     vdW  Elec       q    Type
REMARK                         _______ _______ _______ _____ _____    ______ ____
ROOT
ATOM      1  C   LIG    1       22.032 -18.875   4.269  0.00  0.00    +0.044 C 
ATOM      2  C   LIG    1       23.461 -18.453   4.032  0.00  0.00    -0.050 C 
ATOM      3  C   LIG    1       24.459 -19.320   3.764  0.00  0.00    +0.003 C 
ENDROOT
BRANCH   3   4
ATOM      4  C   LIG    1       24.378 -20.771   3.767  0.00  0.00    +0.001 C 
ATOM      5  C   LIG    1       24.411 -21.571   4.845  0.00  0.00    +0.003 C 
BRANCH   5   6
ATOM      6  C   LIG    1       24.554 -21.154   6.227  0.00  0.00    -0.044 C 
ATOM      7  C   LIG    1       25.719 -20.865   6.832  0.00  0.00    +0.094 C 
ATOM      8  C   LIG    1       23.285 -21.117   7.047  0.00  0.00    +0.044 C 
BRANCH   7   9
ATOM      9  C   LIG    1       27.115 -20.855   6.351  0.00  0.00    +0.330 C 
ATOM     10  O   LIG    1       27.989 -21.488   6.944  0.00  0.00    -0.246 OA
BRANCH   9  11
ATOM     11  O   LIG    1       27.374 -20.099   5.277  0.00  0.00    -0.477 OA
ATOM     12  H   LIG    1       27.531 -20.602   4.464  0.00  0.00    +0.295 HD
ENDBRANCH   9  11
ENDBRANCH   7   9
ENDBRANCH   5   6
ENDBRANCH   3   4
BRANCH   2  13
ATOM     13  C   LIG    1       23.786 -17.023   4.149  0.00  0.00    +0.003 C 
ATOM     14  C   LIG    1       24.935 -16.427   3.782  0.00  0.00    +0.004 C 
BRANCH  14  15
ATOM     15  C   LIG    1       25.194 -14.983   3.823  0.00  0.00    -0.043 C 
ATOM     16  C   LIG    1       23.923 -14.082   3.818  0.00  0.00    -0.010 C 
ATOM     17  C   LIG    1       22.835 -14.519   2.807  0.00  0.00    +0.016 C 
ATOM     18  C   LIG    1       23.300 -14.107   5.233  0.00  0.00    +0.016 C 
ATOM     19  C   LIG    1       24.268 -12.616   3.439  0.00  0.00    +0.011 C 
ATOM     20  C   LIG    1       25.488 -12.104   4.176  0.00  0.00    +0.005 C 
ATOM     21  C   LIG    1       26.696 -12.954   3.823  0.00  0.00    +0.031 C 
ATOM     22  C   LIG    1       26.446 -14.452   3.824  0.00  0.00    -0.069 C 
ATOM     23  C   LIG    1       27.748 -15.221   3.794  0.00  0.00    +0.039 C 
ENDBRANCH  14  15
ENDBRANCH   2  13
TORSDOF 6
ENDMDL
MODEL 4
REMARK VINA RESULT:      -3.4      2.402      3.666
REMARK  Name = *****
REMARK                            x       y       z     vdW  Elec       q    Type
REMARK                         _______ _______ _______ _____ _____    ______ ____
ROOT
ATOM      1  C   LIG    1       27.359 -18.343   4.322  0.00  0.00    +0.044 C 
ATOM      2  C   LIG    1       26.007 -18.126   3.687  0.00  0.00    -0.050 C 
ATOM      3  C   LIG    1       25.141 -19.126   3.418  0.00  0.00    +0.003 C 
ENDROOT
BRANCH   3   4
ATOM      4  C   LIG    1       25.380 -20.551   3.573  0.00  0.00    +0.001 C 
ATOM      5  C   LIG    1       25.031 -21.310   4.625  0.00  0.00    +0.003 C 
BRANCH   5   6
ATOM      6  C   LIG    1       24.362 -20.861   5.832  0.00  0.00    -0.044 C 
ATOM      7  C   LIG    1       23.068 -20.508   5.913  0.00  0.00    +0.094 C 
ATOM      8  C   LIG    1       25.229 -20.724   7.062  0.00  0.00    +0.044 C 
BRANCH   7   9
ATOM      9  C   LIG    1       21.981 -20.470   4.915  0.00  0.00    +0.330 C 
ATOM     10  O   LIG    1       21.770 -19.454   4.252  0.00  0.00    -0.246 OA
BRANCH   9  11
ATOM     11  O   LIG    1       21.229 -21.572   4.806  0.00  0.00    -0.477 OA
ATOM     12  H   LIG    1       20.578 -21.682   5.515  0.00  0.00    +0.295 HD
ENDBRANCH   9  11
ENDBRANCH   7   9
ENDBRANCH   5   6
ENDBRANCH   3   4
BRANCH   2  13
ATOM     13  C   LIG    1       25.639 -16.756   3.298  0.00  0.00    +0.003 C 
ATOM     14  C   LIG    1       25.907 -15.628   3.981  0.00  0.00    +0.004 C 
BRANCH  14  15
ATOM     15  C   LIG    1       25.610 -14.266   3.521  0.00  0.00    -0.043 C 
ATOM     16  C   LIG    1       24.286 -13.656   4.071  0.00  0.00    -0.010 C 
ATOM     17  C   LIG    1       23.079 -14.627   4.050  0.00  0.00    +0.016 C 
ATOM     18  C   LIG    1       24.520 -13.215   5.534  0.00  0.00    +0.016 C 
ATOM     19  C   LIG    1       23.836 -12.428   3.234  0.00  0.00    +0.011 C 
ATOM     20  C   LIG    1       24.980 -11.478   2.948  0.00  0.00    +0.005 C 
ATOM     21  C   LIG    1       26.056 -12.194   2.150  0.00  0.00    +0.031 C 
ATOM     22  C   LIG    1       26.401 -13.586   2.649  0.00  0.00    -0.069 C 
ATOM     23  C   LIG    1       27.684 -14.085   2.023  0.00  0.00    +0.039 C 
ENDBRANCH  14  15
ENDBRANCH   2  13
TORSDOF 6
ENDMDL
MODEL 5
REMARK VINA RESULT:      -3.4      3.009      7.067
REMARK  Name = *****
REMARK                            x       y       z     vdW  Elec       q    Type
REMARK                         _______ _______ _______ _____ _____    ______ ____
ROOT
ATOM      1  C   LIG    1       28.229 -16.622   4.194  0.00  0.00    +0.044 C 
ATOM      2  C   LIG    1       26.849 -16.639   3.584  0.00  0.00    -0.050 C 
ATOM      3  C   LIG    1       26.366 -15.649   2.805  0.00  0.00    +0.003 C 
ENDROOT
BRANCH   3   4
ATOM      4  C   LIG    1       27.008 -14.378   2.513  0.00  0.00    +0.001 C 
ATOM      5  C   LIG    1       27.012 -13.286   3.294  0.00  0.00    +0.003 C 
BRANCH   5   6
ATOM      6  C   LIG    1       26.358 -13.142   4.582  0.00  0.00    -0.044 C 
ATOM      7  C   LIG    1       25.062 -12.833   4.761  0.00  0.00    +0.094 C 
ATOM      8  C   LIG    1       27.242 -13.288   5.798  0.00  0.00    +0.044 C 
BRANCH   7   9
ATOM      9  C   LIG    1       23.959 -12.573   3.814  0.00  0.00    +0.330 C 
ATOM     10  O   LIG    1       23.476 -11.447   3.704  0.00  0.00    -0.246 OA
BRANCH   9  11
ATOM     11  O   LIG    1       23.500 -13.626   3.126  0.00  0.00    -0.477 OA
ATOM     12  H   LIG    1       22.662 -13.983   3.456  0.00  0.00    +0.295 HD
ENDBRANCH   9  11
ENDBRANCH   7   9
ENDBRANCH   5   6
ENDBRANCH   3   4
BRANCH   2  13
ATOM     13  C   LIG    1       25.970 -17.777   3.898  0.00  0.00    +0.003 C 
ATOM     14  C   LIG    1       24.625 -17.775   3.904  0.00  0.00    +0.004 C 
BRANCH  14  15
ATOM     15  C   LIG    1       23.774 -18.950   4.128  0.00  0.00    -0.043 C 
ATOM     16  C   LIG    1       24.509 -20.321   4.059  0.00  0.00    -0.010 C 
ATOM     17  C   LIG    1       25.504 -20.454   2.880  0.00  0.00    +0.016 C 
ATOM     18  C   LIG    1       25.297 -20.521   5.375  0.00  0.00    +0.016 C 
ATOM     19  C   LIG    1       23.508 -21.494   3.882  0.00  0.00    +0.011 C 
ATOM     20  C   LIG    1       22.320 -21.381   4.815  0.00  0.00    +0.005 C 
ATOM     21  C   LIG    1       21.562 -20.097   4.528  0.00  0.00    +0.031 C 
ATOM     22  C   LIG    1       22.434 -18.868   4.341  0.00  0.00    -0.069 C 
ATOM     23  C   LIG    1       21.607 -17.602   4.393  0.00  0.00    +0.039 C 
ENDBRANCH  14  15
ENDBRANCH   2  13
TORSDOF 6
ENDMDL
MODEL 6
REMARK VINA RESULT:      -3.2      3.085      7.243
REMARK  Name = *****
REMARK                            x       y       z     vdW  Elec       q    Type
REMARK                         _______ _______ _______ _____ _____    ______ ____
ROOT
ATOM      1  C   LIG    1       27.918 -16.839   3.846  0.00  0.00    +0.044 C 
ATOM      2  C   LIG    1       26.507 -16.655   3.344  0.00  0.00    -0.050 C 
ATOM      3  C   LIG    1       26.084 -15.547   2.701  0.00  0.00    +0.003 C 
ENDROOT
BRANCH   3   4
ATOM      4  C   LIG    1       26.837 -14.324   2.483  0.00  0.00    +0.001 C 
ATOM      5  C   LIG    1       27.043 -13.342   3.375  0.00  0.00    +0.003 C 
BRANCH   5   6
ATOM      6  C   LIG    1       26.538 -13.288   4.735  0.00  0.00    -0.044 C 
ATOM      7  C   LIG    1       25.307 -12.877   5.087  0.00  0.00    +0.094 C 
ATOM      8  C   LIG    1       27.516 -13.664   5.824  0.00  0.00    +0.044 C 
BRANCH   7   9
ATOM      9  C   LIG    1       24.153 -12.400   4.301  0.00  0.00    +0.330 C 
ATOM     10  O   LIG    1       23.935 -12.841   3.172  0.00  0.00    -0.246 OA
BRANCH   9  11
ATOM     11  O   LIG    1       23.397 -11.449   4.862  0.00  0.00    -0.477 OA
ATOM     12  H   LIG    1       23.696 -10.545   4.685  0.00  0.00    +0.295 HD
ENDBRANCH   9  11
ENDBRANCH   7   9
ENDBRANCH   5   6
ENDBRANCH   3   4
BRANCH   2  13
ATOM     13  C   LIG    1       25.534 -17.725   3.614  0.00  0.00    +0.003 C 
ATOM     14  C   LIG    1       25.530 -18.560   4.669  0.00  0.00    +0.004 C 
BRANCH  14  15
ATOM     15  C   LIG    1       24.492 -19.555   4.961  0.00  0.00    -0.043 C 
ATOM     16  C   LIG    1       23.139 -19.336   4.221  0.00  0.00    -0.010 C 
ATOM     17  C   LIG    1       22.647 -17.868   4.209  0.00  0.00    +0.016 C 
ATOM     18  C   LIG    1       23.303 -19.798   2.754  0.00  0.00    +0.016 C 
ATOM     19  C   LIG    1       21.991 -20.146   4.884  0.00  0.00    +0.011 C 
ATOM     20  C   LIG    1       22.399 -21.571   5.194  0.00  0.00    +0.005 C 
ATOM     21  C   LIG    1       23.567 -21.571   6.165  0.00  0.00    +0.031 C 
ATOM     22  C   LIG    1       24.667 -20.576   5.842  0.00  0.00    -0.069 C 
ATOM     23  C   LIG    1       25.916 -20.868   6.643  0.00  0.00    +0.039 C 
ENDBRANCH  14  15
ENDBRANCH   2  13
TORSDOF 6
ENDMDL
MODEL 7
REMARK VINA RESULT:      -3.1      2.537      6.824
REMARK  Name = *****
REMARK                            x       y       z     vdW  Elec       q    Type
REMARK                         _______ _______ _______ _____ _____    ______ ____
ROOT
ATOM      1  C   LIG    1       27.922 -15.808   4.028  0.00  0.00    +0.044 C 
ATOM      2  C   LIG    1       26.572 -16.113   3.425  0.00  0.00    -0.050 C 
ATOM      3  C   LIG    1       25.967 -15.322   2.515  0.00  0.00    +0.003 C 
ENDROOT
BRANCH   3   4
ATOM      4  C   LIG    1       26.422 -14.023   2.049  0.00  0.00    +0.001 C 
ATOM      5  C   LIG    1       26.130 -12.831   2.593  0.00  0.00    +0.003 C 
BRANCH   5   6
ATOM      6  C   LIG    1       25.283 -12.591   3.746  0.00  0.00    -0.044 C 
ATOM      7  C   LIG    1       25.676 -12.687   5.028  0.00  0.00    +0.094 C 
ATOM      8  C   LIG    1       23.833 -12.278   3.455  0.00  0.00    +0.044 C 
BRANCH   7   9
ATOM      9  C   LIG    1       26.973 -13.019   5.650  0.00  0.00    +0.330 C 
ATOM     10  O   LIG    1       28.031 -12.691   5.113  0.00  0.00    -0.246 OA
BRANCH   9  11
ATOM     11  O   LIG    1       26.929 -13.721   6.789  0.00  0.00    -0.477 OA
ATOM     12  H   LIG    1       26.835 -14.677   6.666  0.00  0.00    +0.295 HD
ENDBRANCH   9  11
ENDBRANCH   7   9
ENDBRANCH   5   6
ENDBRANCH   3   4
BRANCH   2  13
ATOM     13  C   LIG    1       25.863 -17.313   3.895  0.00  0.00    +0.003 C 
ATOM     14  C   LIG    1       24.586 -17.646   3.632  0.00  0.00    +0.004 C 
BRANCH  14  15
ATOM     15  C   LIG    1       23.934 -18.898   4.036  0.00  0.00    -0.043 C 
ATOM     16  C   LIG    1       24.805 -20.179   3.875  0.00  0.00    -0.010 C 
ATOM     17  C   LIG    1       25.590 -20.255   2.542  0.00  0.00    +0.016 C 
ATOM     18  C   LIG    1       25.826 -20.225   5.035  0.00  0.00    +0.016 C 
ATOM     19  C   LIG    1       23.935 -21.465   3.910  0.00  0.00    +0.011 C 
ATOM     20  C   LIG    1       22.922 -21.442   5.036  0.00  0.00    +0.005 C 
ATOM     21  C   LIG    1       21.977 -20.267   4.852  0.00  0.00    +0.031 C 
ATOM     22  C   LIG    1       22.651 -18.958   4.480  0.00  0.00    -0.069 C 
ATOM     23  C   LIG    1       21.700 -17.793   4.643  0.00  0.00    +0.039 C 
ENDBRANCH  14  15
ENDBRANCH   2  13
TORSDOF 6
ENDMDL
MODEL 8
REMARK VINA RESULT:      -2.8      2.539      7.162
REMARK  Name = *****
REMARK                            x       y       z     vdW  Elec       q    Type
REMARK                         _______ _______ _______ _____ _____    ______ ____
ROOT
ATOM      1  C   LIG    1       27.855 -15.681   3.738  0.00  0.00    +0.044 C 
ATOM      2  C   LIG    1       26.383 -15.881   3.470  0.00  0.00    -0.050 C 
ATOM      3  C   LIG    1       25.657 -15.080   2.663  0.00  0.00    +0.003 C 
ENDROOT
BRANCH   3   4
ATOM      4  C   LIG    1       26.103 -13.857   2.019  0.00  0.00    +0.001 C 
ATOM      5  C   LIG    1       25.903 -12.603   2.457  0.00  0.00    +0.003 C 
BRANCH   5   6
ATOM      6  C   LIG    1       25.182 -12.211   3.654  0.00  0.00    -0.044 C 
ATOM      7  C   LIG    1       25.642 -12.339   4.911  0.00  0.00    +0.094 C 
ATOM      8  C   LIG    1       23.782 -11.684   3.445  0.00  0.00    +0.044 C 
BRANCH   7   9
ATOM      9  C   LIG    1       26.912 -12.854   5.460  0.00  0.00    +0.330 C 
ATOM     10  O   LIG    1       27.985 -12.588   4.919  0.00  0.00    -0.246 OA
BRANCH   9  11
ATOM     11  O   LIG    1       26.822 -13.646   6.535  0.00  0.00    -0.477 OA
ATOM     12  H   LIG    1       27.644 -13.727   7.041  0.00  0.00    +0.295 HD
ENDBRANCH   9  11
ENDBRANCH   7   9
ENDBRANCH   5   6
ENDBRANCH   3   4
BRANCH   2  13
ATOM     13  C   LIG    1       25.699 -16.982   4.166  0.00  0.00    +0.003 C 
ATOM     14  C   LIG    1       25.303 -18.150   3.628  0.00  0.00    +0.004 C 
BRANCH  14  15
ATOM     15  C   LIG    1       24.707 -19.268   4.369  0.00  0.00    -0.043 C 
ATOM     16  C   LIG    1       23.154 -19.364   4.287  0.00  0.00    -0.010 C 
ATOM     17  C   LIG    1       22.422 -18.010   4.454  0.00  0.00    +0.016 C 
ATOM     18  C   LIG    1       22.772 -19.948   2.907  0.00  0.00    +0.016 C 
ATOM     19  C   LIG    1       22.582 -20.278   5.404  0.00  0.00    +0.011 C 
ATOM     20  C   LIG    1       23.358 -21.571   5.541  0.00  0.00    +0.005 C 
ATOM     21  C   LIG    1       24.801 -21.268   5.905  0.00  0.00    +0.031 C 
ATOM     22  C   LIG    1       25.438 -20.143   5.110  0.00  0.00    -0.069 C 
ATOM     23  C   LIG    1       26.939 -20.129   5.294  0.00  0.00    +0.039 C 
ENDBRANCH  14  15
ENDBRANCH   2  13
TORSDOF 6
ENDMDL
MODEL 9
REMARK VINA RESULT:      -2.6      2.516      3.800
REMARK  Name = *****
REMARK                            x       y       z     vdW  Elec       q    Type
REMARK                         _______ _______ _______ _____ _____    ______ ____
ROOT
ATOM      1  C   LIG    1       26.412 -19.718   4.733  0.00  0.00    +0.044 C 
ATOM      2  C   LIG    1       25.717 -18.784   3.773  0.00  0.00    -0.050 C 
ATOM      3  C   LIG    1       24.623 -19.126   3.061  0.00  0.00    +0.003 C 
ENDROOT
BRANCH   3   4
ATOM      4  C   LIG    1       24.001 -20.437   2.996  0.00  0.00    +0.001 C 
ATOM      5  C   LIG    1       23.252 -21.015   3.949  0.00  0.00    +0.003 C 
BRANCH   5   6
ATOM      6  C   LIG    1       22.926 -20.459   5.249  0.00  0.00    -0.044 C 
ATOM      7  C   LIG    1       22.339 -19.267   5.455  0.00  0.00    +0.094 C 
ATOM      8  C   LIG    1       23.354 -21.273   6.448  0.00  0.00    +0.044 C 
BRANCH   7   9
ATOM      9  C   LIG    1       21.856 -18.221   4.532  0.00  0.00    +0.330 C 
ATOM     10  O   LIG    1       21.005 -18.478   3.681  0.00  0.00    -0.246 OA
BRANCH   9  11
ATOM     11  O   LIG    1       22.419 -17.013   4.648  0.00  0.00    -0.477 OA
ATOM     12  H   LIG    1       22.029 -16.335   4.076  0.00  0.00    +0.295 HD
ENDBRANCH   9  11
ENDBRANCH   7   9
ENDBRANCH   5   6
ENDBRANCH   3   4
BRANCH   2  13
ATOM     13  C   LIG    1       26.296 -17.447   3.571  0.00  0.00    +0.003 C 
ATOM     14  C   LIG    1       25.665 -16.267   3.718  0.00  0.00    +0.004 C 
BRANCH  14  15
ATOM     15  C   LIG    1       26.295 -14.946   3.602  0.00  0.00    -0.043 C 
ATOM     16  C   LIG    1       25.369 -13.818   3.057  0.00  0.00    -0.010 C 
ATOM     17  C   LIG    1       24.502 -14.235   1.843  0.00  0.00    +0.016 C 
ATOM     18  C   LIG    1       24.420 -13.372   4.193  0.00  0.00    +0.016 C 
ATOM     19  C   LIG    1       26.191 -12.595   2.570  0.00  0.00    +0.011 C 
ATOM     20  C   LIG    1       27.272 -12.200   3.556  0.00  0.00    +0.005 C 
ATOM     21  C   LIG    1       28.246 -13.351   3.737  0.00  0.00    +0.031 C 
ATOM     22  C   LIG    1       27.600 -14.715   3.905  0.00  0.00    -0.069 C 
ATOM     23  C   LIG    1       28.600 -15.733   4.405  0.00  0.00    +0.039 C 
ENDBRANCH  14  15
ENDBRANCH   2  13
TORSDOF 6
ENDMDL
