MODEL 1
REMARK VINA RESULT:      -8.2      0.000      0.000
REMARK  Name = *****
REMARK                            x       y       z     vdW  Elec       q    Type
REMARK                         _______ _______ _______ _____ _____    ______ ____
ROOT
ATOM      1  C   LIG    1       27.062 -20.366   7.420  0.00  0.00    +0.168 C 
ATOM      2  C   LIG    1       25.944 -20.740   6.621  0.00  0.00    +0.097 C 
ATOM      3  C   LIG    1       25.887 -20.265   5.299  0.00  0.00    +0.052 C 
ATOM      4  C   LIG    1       24.601 -20.321   4.564  0.00  0.00    +0.204 C 
ATOM      5  C   LIG    1       23.411 -20.812   5.285  0.00  0.00    +0.122 C 
ATOM      6  C   LIG    1       23.634 -21.424   6.454  0.00  0.00    +0.105 C 
ATOM      7  O   LIG    1       24.491 -19.879   3.422  0.00  0.00    -0.286 OA
ATOM      8  C   LIG    1       26.996 -19.686   4.698  0.00  0.00    +0.054 C 
ATOM      9  C   LIG    1       28.146 -19.472   5.451  0.00  0.00    +0.149 C 
ATOM     10  F   LIG    1       29.183 -18.911   4.808  0.00  0.00    -0.203 F 
ATOM     11  N   LIG    1       24.868 -21.576   7.074  0.00  0.00    -0.340 NA
ATOM     12  C   LIG    1       28.211 -19.734   6.840  0.00  0.00    +0.110 C 
ENDROOT
BRANCH  12  13
ATOM     13  N   LIG    1       29.338 -19.397   7.581  0.00  0.00    -0.323 NA
ATOM     14  C   LIG    1       30.144 -18.198   7.300  0.00  0.00    +0.124 C 
ATOM     15  C   LIG    1       31.535 -18.536   7.904  0.00  0.00    +0.075 C 
ATOM     16  C   LIG    1       31.182 -19.470   9.069  0.00  0.00    +0.025 C 
ATOM     17  C   LIG    1       30.724 -18.697  10.312  0.00  0.00    +0.008 C 
ATOM     18  C   LIG    1       31.736 -17.607  10.652  0.00  0.00    +0.015 C 
ATOM     19  C   LIG    1       31.970 -16.691   9.452  0.00  0.00    +0.081 C 
ATOM     20  N   LIG    1       32.424 -17.424   8.268  0.00  0.00    -0.311 NA
ATOM     21  H   LIG    1       33.346 -17.811   8.475  0.00  0.00    +0.122 HD
ATOM     22  C   LIG    1       30.065 -20.326   8.453  0.00  0.00    +0.110 C 
ENDBRANCH  12  13
BRANCH  11  23
ATOM     23  C   LIG    1       25.147 -23.016   7.402  0.00  0.00    +0.088 C 
ATOM     24  C   LIG    1       24.509 -24.137   6.604  0.00  0.00    +0.027 C 
ATOM     25  C   LIG    1       25.997 -23.956   6.591  0.00  0.00    +0.027 C 
ENDBRANCH  11  23
BRANCH   1  27
ATOM     26  C   LIG    1       26.030 -20.355   9.579  0.00  0.00    +0.277 C 
ATOM     27  O   LIG    1       27.156 -20.672   8.764  0.00  0.00    -0.491 OA
ENDBRANCH   1  27
BRANCH   5  28
ATOM     28  C   LIG    1       22.025 -20.698   4.787  0.00  0.00    +0.342 C 
ATOM     29  O   LIG    1       21.235 -21.617   4.792  0.00  0.00    -0.245 OA
BRANCH  28  30
ATOM     30  O   LIG    1       21.689 -19.447   4.397  0.00  0.00    -0.477 OA
ATOM     31  H   LIG    1       22.400 -18.777   4.520  0.00  0.00    +0.295 HD
ENDBRANCH  28  30
ENDBRANCH   5  28
TORSDOF 5
ENDMDL
MODEL 2
REMARK VINA RESULT:      -7.0      9.491     12.137
REMARK  Name = *****
REMARK                            x       y       z     vdW  Elec       q    Type
REMARK                         _______ _______ _______ _____ _____    ______ ____
ROOT
ATOM      1  C   LIG    1       24.591 -30.174   8.860  0.00  0.00    +0.168 C 
ATOM      2  C   LIG    1       24.570 -30.675   7.527  0.00  0.00    +0.097 C 
ATOM      3  C   LIG    1       23.940 -31.910   7.293  0.00  0.00    +0.052 C 
ATOM      4  C   LIG    1       24.204 -32.628   6.024  0.00  0.00    +0.204 C 
ATOM      5  C   LIG    1       25.179 -32.043   5.085  0.00  0.00    +0.122 C 
ATOM      6  C   LIG    1       25.547 -30.778   5.320  0.00  0.00    +0.105 C 
ATOM      7  O   LIG    1       23.712 -33.731   5.793  0.00  0.00    -0.286 OA
ATOM      8  C   LIG    1       23.132 -32.495   8.258  0.00  0.00    +0.054 C 
ATOM      9  C   LIG    1       23.033 -31.905   9.514  0.00  0.00    +0.149 C 
ATOM     10  F   LIG    1       22.232 -32.520  10.399  0.00  0.00    -0.203 F 
ATOM     11  N   LIG    1       25.146 -29.999   6.398  0.00  0.00    -0.340 NA
ATOM     12  C   LIG    1       23.796 -30.775   9.891  0.00  0.00    +0.110 C 
ENDROOT
BRANCH  12  13
ATOM     13  N   LIG    1       23.758 -30.285  11.191  0.00  0.00    -0.323 NA
ATOM     14  C   LIG    1       24.672 -30.758  12.245  0.00  0.00    +0.124 C 
ATOM     15  C   LIG    1       23.916 -30.435  13.564  0.00  0.00    +0.075 C 
ATOM     16  C   LIG    1       23.092 -29.196  13.189  0.00  0.00    +0.025 C 
ATOM     17  C   LIG    1       23.926 -27.910  13.240  0.00  0.00    +0.008 C 
ATOM     18  C   LIG    1       24.653 -27.813  14.577  0.00  0.00    +0.015 C 
ATOM     19  C   LIG    1       25.497 -29.061  14.829  0.00  0.00    +0.081 C 
ATOM     20  N   LIG    1       24.700 -30.290  14.798  0.00  0.00    -0.311 NA
ATOM     21  H   LIG    1       24.050 -30.262  15.584  0.00  0.00    +0.122 HD
ATOM     22  C   LIG    1       22.627 -29.551  11.768  0.00  0.00    +0.110 C 
ENDBRANCH  12  13
BRANCH  11  23
ATOM     23  C   LIG    1       24.553 -28.693   5.945  0.00  0.00    +0.088 C 
ATOM     24  C   LIG    1       25.141 -27.370   6.396  0.00  0.00    +0.027 C 
ATOM     25  C   LIG    1       25.162 -27.748   4.947  0.00  0.00    +0.027 C 
ENDBRANCH  11  23
BRANCH   1  27
ATOM     26  C   LIG    1       26.673 -29.196   9.518  0.00  0.00    +0.277 C 
ATOM     27  O   LIG    1       25.288 -29.037   9.220  0.00  0.00    -0.491 OA
ENDBRANCH   1  27
BRANCH   5  28
ATOM     28  C   LIG    1       25.735 -32.745   3.910  0.00  0.00    +0.342 C 
ATOM     29  O   LIG    1       26.908 -33.031   3.795  0.00  0.00    -0.245 OA
BRANCH  28  30
ATOM     30  O   LIG    1       24.800 -33.118   3.006  0.00  0.00    -0.477 OA
ATOM     31  H   LIG    1       24.409 -34.007   3.169  0.00  0.00    +0.295 HD
ENDBRANCH  28  30
ENDBRANCH   5  28
TORSDOF 5
ENDMDL
MODEL 3
REMARK VINA RESULT:      -7.0     10.984     13.391
REMARK  Name = *****
REMARK                            x       y       z     vdW  Elec       q    Type
REMARK                         _______ _______ _______ _____ _____    ______ ____
ROOT
ATOM      1  C   LIG    1       22.063 -29.448  12.736  0.00  0.00    +0.168 C 
ATOM      2  C   LIG    1       23.367 -29.717  12.231  0.00  0.00    +0.097 C 
ATOM      3  C   LIG    1       24.340 -28.708  12.336  0.00  0.00    +0.052 C 
ATOM      4  C   LIG    1       25.573 -28.802  11.519  0.00  0.00    +0.204 C 
ATOM      5  C   LIG    1       25.692 -29.926  10.572  0.00  0.00    +0.122 C 
ATOM      6  C   LIG    1       24.810 -30.921  10.714  0.00  0.00    +0.105 C 
ATOM      7  O   LIG    1       26.431 -27.922  11.544  0.00  0.00    -0.286 OA
ATOM      8  C   LIG    1       24.131 -27.595  13.140  0.00  0.00    +0.054 C 
ATOM      9  C   LIG    1       22.900 -27.424  13.763  0.00  0.00    +0.149 C 
ATOM     10  F   LIG    1       22.766 -26.329  14.529  0.00  0.00    -0.203 F 
ATOM     11  N   LIG    1       23.760 -30.958  11.623  0.00  0.00    -0.340 NA
ATOM     12  C   LIG    1       21.803 -28.289  13.541  0.00  0.00    +0.110 C 
ENDROOT
BRANCH  12  13
ATOM     13  N   LIG    1       20.554 -28.020  14.088  0.00  0.00    -0.323 NA
ATOM     14  C   LIG    1       19.755 -26.845  13.701  0.00  0.00    +0.124 C 
ATOM     15  C   LIG    1       18.813 -26.621  14.917  0.00  0.00    +0.075 C 
ATOM     16  C   LIG    1       18.628 -28.039  15.470  0.00  0.00    +0.025 C 
ATOM     17  C   LIG    1       17.579 -28.835  14.683  0.00  0.00    +0.008 C 
ATOM     18  C   LIG    1       16.293 -28.024  14.561  0.00  0.00    +0.015 C 
ATOM     19  C   LIG    1       16.570 -26.656  13.939  0.00  0.00    +0.081 C 
ATOM     20  N   LIG    1       17.558 -25.887  14.698  0.00  0.00    -0.311 NA
ATOM     21  H   LIG    1       17.155 -25.673  15.611  0.00  0.00    +0.122 HD
ATOM     22  C   LIG    1       20.045 -28.616  15.328  0.00  0.00    +0.110 C 
ENDBRANCH  12  13
BRANCH  11  23
ATOM     23  C   LIG    1       23.799 -32.205  12.462  0.00  0.00    +0.088 C 
ATOM     24  C   LIG    1       22.809 -33.330  12.234  0.00  0.00    +0.027 C 
ATOM     25  C   LIG    1       24.272 -33.558  12.007  0.00  0.00    +0.027 C 
ENDBRANCH  11  23
BRANCH   1  27
ATOM     26  C   LIG    1       20.454 -30.430  11.261  0.00  0.00    +0.277 C 
ATOM     27  O   LIG    1       21.003 -30.319  12.573  0.00  0.00    -0.491 OA
ENDBRANCH   1  27
BRANCH   5  28
ATOM     28  C   LIG    1       26.725 -30.027   9.521  0.00  0.00    +0.342 C 
ATOM     29  O   LIG    1       27.125 -31.081   9.074  0.00  0.00    -0.245 OA
BRANCH  28  30
ATOM     30  O   LIG    1       27.130 -28.829   9.038  0.00  0.00    -0.477 OA
ATOM     31  H   LIG    1       26.948 -28.068   9.636  0.00  0.00    +0.295 HD
ENDBRANCH  28  30
ENDBRANCH   5  28
TORSDOF 5
ENDMDL
MODEL 4
REMARK VINA RESULT:      -6.8     10.422     12.815
REMARK  Name = *****
REMARK                            x       y       z     vdW  Elec       q    Type
REMARK                         _______ _______ _______ _____ _____    ______ ____
ROOT
ATOM      1  C   LIG    1       24.646 -30.377  10.033  0.00  0.00    +0.168 C 
ATOM      2  C   LIG    1       24.115 -29.745  11.194  0.00  0.00    +0.097 C 
ATOM      3  C   LIG    1       22.742 -29.892  11.459  0.00  0.00    +0.052 C 
ATOM      4  C   LIG    1       22.089 -28.977  12.425  0.00  0.00    +0.204 C 
ATOM      5  C   LIG    1       22.902 -27.899  13.018  0.00  0.00    +0.122 C 
ATOM      6  C   LIG    1       24.226 -27.992  12.852  0.00  0.00    +0.105 C 
ATOM      7  O   LIG    1       20.883 -29.038  12.656  0.00  0.00    -0.286 OA
ATOM      8  C   LIG    1       21.980 -30.833  10.781  0.00  0.00    +0.054 C 
ATOM      9  C   LIG    1       22.558 -31.564   9.749  0.00  0.00    +0.149 C 
ATOM     10  F   LIG    1       21.766 -32.461   9.137  0.00  0.00    -0.203 F 
ATOM     11  N   LIG    1       24.891 -28.969  12.121  0.00  0.00    -0.340 NA
ATOM     12  C   LIG    1       23.874 -31.328   9.288  0.00  0.00    +0.110 C 
ENDROOT
BRANCH  12  13
ATOM     13  N   LIG    1       24.377 -31.997   8.178  0.00  0.00    -0.323 NA
ATOM     14  C   LIG    1       24.065 -31.590   6.797  0.00  0.00    +0.124 C 
ATOM     15  C   LIG    1       24.295 -32.884   5.968  0.00  0.00    +0.075 C 
ATOM     16  C   LIG    1       25.390 -33.608   6.763  0.00  0.00    +0.025 C 
ATOM     17  C   LIG    1       26.787 -33.052   6.461  0.00  0.00    +0.008 C 
ATOM     18  C   LIG    1       27.016 -33.007   4.954  0.00  0.00    +0.015 C 
ATOM     19  C   LIG    1       25.913 -32.210   4.260  0.00  0.00    +0.081 C 
ATOM     20  N   LIG    1       24.578 -32.749   4.532  0.00  0.00    -0.311 NA
ATOM     21  H   LIG    1       24.523 -33.677   4.110  0.00  0.00    +0.122 HD
ATOM     22  C   LIG    1       24.944 -33.350   8.211  0.00  0.00    +0.110 C 
ENDBRANCH  12  13
BRANCH  11  23
ATOM     23  C   LIG    1       25.948 -29.651  12.944  0.00  0.00    +0.088 C 
ATOM     24  C   LIG    1       27.421 -29.399  12.687  0.00  0.00    +0.027 C 
ATOM     25  C   LIG    1       26.805 -28.999  13.993  0.00  0.00    +0.027 C 
ENDBRANCH  11  23
BRANCH   1  27
ATOM     26  C   LIG    1       26.261 -28.949   8.995  0.00  0.00    +0.277 C 
ATOM     27  O   LIG    1       25.949 -30.195   9.614  0.00  0.00    -0.491 OA
ENDBRANCH   1  27
BRANCH   5  28
ATOM     28  C   LIG    1       22.353 -26.767  13.792  0.00  0.00    +0.342 C 
ATOM     29  O   LIG    1       22.960 -26.207  14.680  0.00  0.00    -0.245 OA
BRANCH  28  30
ATOM     30  O   LIG    1       21.138 -26.353  13.364  0.00  0.00    -0.477 OA
ATOM     31  H   LIG    1       21.149 -25.894  12.493  0.00  0.00    +0.295 HD
ENDBRANCH  28  30
ENDBRANCH   5  28
TORSDOF 5
ENDMDL
MODEL 5
REMARK VINA RESULT:      -6.5     10.664     13.443
REMARK  Name = *****
REMARK                            x       y       z     vdW  Elec       q    Type
REMARK                         _______ _______ _______ _____ _____    ______ ____
ROOT
ATOM      1  C   LIG    1       23.037 -29.645  12.347  0.00  0.00    +0.168 C 
ATOM      2  C   LIG    1       23.906 -30.181  11.353  0.00  0.00    +0.097 C 
ATOM      3  C   LIG    1       23.336 -30.928  10.308  0.00  0.00    +0.052 C 
ATOM      4  C   LIG    1       24.206 -31.792   9.476  0.00  0.00    +0.204 C 
ATOM      5  C   LIG    1       25.635 -31.883   9.830  0.00  0.00    +0.122 C 
ATOM      6  C   LIG    1       26.091 -30.975  10.700  0.00  0.00    +0.105 C 
ATOM      7  O   LIG    1       23.748 -32.497   8.579  0.00  0.00    -0.286 OA
ATOM      8  C   LIG    1       21.965 -30.920  10.089  0.00  0.00    +0.054 C 
ATOM      9  C   LIG    1       21.134 -30.253  10.982  0.00  0.00    +0.149 C 
ATOM     10  F   LIG    1       19.820 -30.281  10.709  0.00  0.00    -0.203 F 
ATOM     11  N   LIG    1       25.331 -30.006  11.344  0.00  0.00    -0.340 NA
ATOM     12  C   LIG    1       21.614 -29.652  12.170  0.00  0.00    +0.110 C 
ENDROOT
BRANCH  12  13
ATOM     13  N   LIG    1       20.740 -29.097  13.097  0.00  0.00    -0.323 NA
ATOM     14  C   LIG    1       20.498 -27.647  13.191  0.00  0.00    +0.124 C 
ATOM     15  C   LIG    1       19.993 -27.449  14.647  0.00  0.00    +0.075 C 
ATOM     16  C   LIG    1       19.293 -28.781  14.948  0.00  0.00    +0.025 C 
ATOM     17  C   LIG    1       17.876 -28.835  14.362  0.00  0.00    +0.008 C 
ATOM     18  C   LIG    1       17.092 -27.594  14.776  0.00  0.00    +0.015 C 
ATOM     19  C   LIG    1       17.838 -26.322  14.375  0.00  0.00    +0.081 C 
ATOM     20  N   LIG    1       19.185 -26.259  14.947  0.00  0.00    -0.311 NA
ATOM     21  H   LIG    1       19.091 -26.188  15.961  0.00  0.00    +0.122 HD
ATOM     22  C   LIG    1       20.249 -29.790  14.293  0.00  0.00    +0.110 C 
ENDBRANCH  12  13
BRANCH  11  23
ATOM     23  C   LIG    1       25.899 -28.630  11.134  0.00  0.00    +0.088 C 
ATOM     24  C   LIG    1       26.520 -27.858  12.283  0.00  0.00    +0.027 C 
ATOM     25  C   LIG    1       27.360 -28.273  11.114  0.00  0.00    +0.027 C 
ENDBRANCH  11  23
BRANCH   1  27
ATOM     26  C   LIG    1       23.968 -29.831  14.543  0.00  0.00    +0.277 C 
ATOM     27  O   LIG    1       23.501 -29.005  13.479  0.00  0.00    -0.491 OA
ENDBRANCH   1  27
BRANCH   5  28
ATOM     28  C   LIG    1       26.574 -32.875   9.269  0.00  0.00    +0.342 C 
ATOM     29  O   LIG    1       27.013 -33.813   9.901  0.00  0.00    -0.245 OA
BRANCH  28  30
ATOM     30  O   LIG    1       26.839 -32.691   7.955  0.00  0.00    -0.477 OA
ATOM     31  H   LIG    1       27.483 -33.333   7.576  0.00  0.00    +0.295 HD
ENDBRANCH  28  30
ENDBRANCH   5  28
TORSDOF 5
ENDMDL
MODEL 6
REMARK VINA RESULT:      -6.5      8.481     12.068
REMARK  Name = *****
REMARK                            x       y       z     vdW  Elec       q    Type
REMARK                         _______ _______ _______ _____ _____    ______ ____
ROOT
ATOM      1  C   LIG    1       23.973 -30.372   9.085  0.00  0.00    +0.168 C 
ATOM      2  C   LIG    1       24.501 -29.626   7.992  0.00  0.00    +0.097 C 
ATOM      3  C   LIG    1       25.508 -28.682   8.258  0.00  0.00    +0.052 C 
ATOM      4  C   LIG    1       25.822 -27.650   7.242  0.00  0.00    +0.204 C 
ATOM      5  C   LIG    1       25.006 -27.617   6.013  0.00  0.00    +0.122 C 
ATOM      6  C   LIG    1       24.230 -28.682   5.785  0.00  0.00    +0.105 C 
ATOM      7  O   LIG    1       26.663 -26.778   7.447  0.00  0.00    -0.286 OA
ATOM      8  C   LIG    1       26.163 -28.662   9.483  0.00  0.00    +0.054 C 
ATOM      9  C   LIG    1       25.740 -29.514  10.497  0.00  0.00    +0.149 C 
ATOM     10  F   LIG    1       26.419 -29.446  11.654  0.00  0.00    -0.203 F 
ATOM     11  N   LIG    1       24.075 -29.776   6.628  0.00  0.00    -0.340 NA
ATOM     12  C   LIG    1       24.603 -30.346  10.373  0.00  0.00    +0.110 C 
ENDROOT
BRANCH  12  13
ATOM     13  N   LIG    1       24.143 -31.097  11.448  0.00  0.00    -0.323 NA
ATOM     14  C   LIG    1       23.125 -30.597  12.388  0.00  0.00    +0.124 C 
ATOM     15  C   LIG    1       23.365 -31.433  13.675  0.00  0.00    +0.075 C 
ATOM     16  C   LIG    1       23.908 -32.758  13.125  0.00  0.00    +0.025 C 
ATOM     17  C   LIG    1       22.788 -33.677  12.622  0.00  0.00    +0.008 C 
ATOM     18  C   LIG    1       21.713 -33.825  13.693  0.00  0.00    +0.015 C 
ATOM     19  C   LIG    1       21.189 -32.457  14.129  0.00  0.00    +0.081 C 
ATOM     20  N   LIG    1       22.254 -31.582  14.625  0.00  0.00    -0.311 NA
ATOM     21  H   LIG    1       22.624 -31.995  15.482  0.00  0.00    +0.122 HD
ATOM     22  C   LIG    1       24.832 -32.270  11.997  0.00  0.00    +0.110 C 
ENDBRANCH  12  13
BRANCH  11  23
ATOM     23  C   LIG    1       24.351 -31.069   5.913  0.00  0.00    +0.088 C 
ATOM     24  C   LIG    1       25.520 -31.198   4.956  0.00  0.00    +0.027 C 
ATOM     25  C   LIG    1       25.481 -32.017   6.210  0.00  0.00    +0.027 C 
ENDBRANCH  11  23
BRANCH   1  27
ATOM     26  C   LIG    1       23.197 -32.616   8.791  0.00  0.00    +0.277 C 
ATOM     27  O   LIG    1       22.900 -31.231   8.955  0.00  0.00    -0.491 OA
ENDBRANCH   1  27
BRANCH   5  28
ATOM     28  C   LIG    1       25.022 -26.516   5.028  0.00  0.00    +0.342 C 
ATOM     29  O   LIG    1       25.850 -26.417   4.149  0.00  0.00    -0.245 OA
BRANCH  28  30
ATOM     30  O   LIG    1       23.975 -25.667   5.145  0.00  0.00    -0.477 OA
ATOM     31  H   LIG    1       23.182 -25.925   4.622  0.00  0.00    +0.295 HD
ENDBRANCH  28  30
ENDBRANCH   5  28
TORSDOF 5
ENDMDL
MODEL 7
REMARK VINA RESULT:      -6.4     10.118     13.533
REMARK  Name = *****
REMARK                            x       y       z     vdW  Elec       q    Type
REMARK                         _______ _______ _______ _____ _____    ______ ____
ROOT
ATOM      1  C   LIG    1       22.788 -28.017  14.185  0.00  0.00    +0.168 C 
ATOM      2  C   LIG    1       24.055 -28.110  13.540  0.00  0.00    +0.097 C 
ATOM      3  C   LIG    1       24.142 -28.865  12.357  0.00  0.00    +0.052 C 
ATOM      4  C   LIG    1       25.475 -29.283  11.861  0.00  0.00    +0.204 C 
ATOM      5  C   LIG    1       26.656 -28.944  12.678  0.00  0.00    +0.122 C 
ATOM      6  C   LIG    1       26.467 -28.054  13.658  0.00  0.00    +0.105 C 
ATOM      7  O   LIG    1       25.600 -29.981  10.857  0.00  0.00    -0.286 OA
ATOM      8  C   LIG    1       22.999 -29.279  11.687  0.00  0.00    +0.054 C 
ATOM      9  C   LIG    1       21.752 -29.039  12.253  0.00  0.00    +0.149 C 
ATOM     10  F   LIG    1       20.688 -29.462  11.551  0.00  0.00    -0.203 F 
ATOM     11  N   LIG    1       25.254 -27.477  14.014  0.00  0.00    -0.340 NA
ATOM     12  C   LIG    1       21.591 -28.468  13.537  0.00  0.00    +0.110 C 
ENDROOT
BRANCH  12  13
ATOM     13  N   LIG    1       20.334 -28.352  14.118  0.00  0.00    -0.323 NA
ATOM     14  C   LIG    1       19.528 -27.122  14.028  0.00  0.00    +0.124 C 
ATOM     15  C   LIG    1       18.572 -27.215  15.249  0.00  0.00    +0.075 C 
ATOM     16  C   LIG    1       18.393 -28.728  15.427  0.00  0.00    +0.025 C 
ATOM     17  C   LIG    1       17.360 -29.307  14.451  0.00  0.00    +0.008 C 
ATOM     18  C   LIG    1       16.068 -28.499  14.520  0.00  0.00    +0.015 C 
ATOM     19  C   LIG    1       16.339 -27.017  14.265  0.00  0.00    +0.081 C 
ATOM     20  N   LIG    1       17.313 -26.457  15.206  0.00  0.00    -0.311 NA
ATOM     21  H   LIG    1       16.897 -26.481  16.138  0.00  0.00    +0.122 HD
ATOM     22  C   LIG    1       19.817 -29.243  15.162  0.00  0.00    +0.110 C 
ENDBRANCH  12  13
BRANCH  11  23
ATOM     23  C   LIG    1       25.337 -25.976  14.020  0.00  0.00    +0.088 C 
ATOM     24  C   LIG    1       25.820 -25.225  15.246  0.00  0.00    +0.027 C 
ATOM     25  C   LIG    1       26.602 -25.163  13.969  0.00  0.00    +0.027 C 
ENDBRANCH  11  23
BRANCH   1  27
ATOM     26  C   LIG    1       22.295 -26.019  15.405  0.00  0.00    +0.277 C 
ATOM     27  O   LIG    1       22.618 -27.408  15.412  0.00  0.00    -0.491 OA
ENDBRANCH   1  27
BRANCH   5  28
ATOM     28  C   LIG    1       28.009 -29.495  12.460  0.00  0.00    +0.342 C 
ATOM     29  O   LIG    1       28.633 -30.094  13.309  0.00  0.00    -0.245 OA
BRANCH  28  30
ATOM     30  O   LIG    1       28.461 -29.343  11.193  0.00  0.00    -0.477 OA
ATOM     31  H   LIG    1       29.141 -28.640  11.085  0.00  0.00    +0.295 HD
ENDBRANCH  28  30
ENDBRANCH   5  28
TORSDOF 5
ENDMDL
MODEL 8
REMARK VINA RESULT:      -6.2      9.392     13.158
REMARK  Name = *****
REMARK                            x       y       z     vdW  Elec       q    Type
REMARK                         _______ _______ _______ _____ _____    ______ ____
ROOT
ATOM      1  C   LIG    1       23.168 -31.051   9.709  0.00  0.00    +0.168 C 
ATOM      2  C   LIG    1       23.978 -30.467   8.693  0.00  0.00    +0.097 C 
ATOM      3  C   LIG    1       24.981 -29.563   9.084  0.00  0.00    +0.052 C 
ATOM      4  C   LIG    1       25.591 -28.674   8.067  0.00  0.00    +0.204 C 
ATOM      5  C   LIG    1       25.063 -28.729   6.691  0.00  0.00    +0.122 C 
ATOM      6  C   LIG    1       24.266 -29.764   6.401  0.00  0.00    +0.105 C 
ATOM      7  O   LIG    1       26.440 -27.836   8.369  0.00  0.00    -0.286 OA
ATOM      8  C   LIG    1       25.358 -29.445  10.415  0.00  0.00    +0.054 C 
ATOM      9  C   LIG    1       24.659 -30.150  11.388  0.00  0.00    +0.149 C 
ATOM     10  F   LIG    1       25.078 -29.994  12.654  0.00  0.00    -0.203 F 
ATOM     11  N   LIG    1       23.842 -30.743   7.291  0.00  0.00    -0.340 NA
ATOM     12  C   LIG    1       23.508 -30.920  11.096  0.00  0.00    +0.110 C 
ENDROOT
BRANCH  12  13
ATOM     13  N   LIG    1       22.767 -31.515  12.110  0.00  0.00    -0.323 NA
ATOM     14  C   LIG    1       21.652 -30.829  12.786  0.00  0.00    +0.124 C 
ATOM     15  C   LIG    1       21.543 -31.557  14.154  0.00  0.00    +0.075 C 
ATOM     16  C   LIG    1       22.025 -32.976  13.824  0.00  0.00    +0.025 C 
ATOM     17  C   LIG    1       20.924 -33.825  13.177  0.00  0.00    +0.008 C 
ATOM     18  C   LIG    1       19.654 -33.762  14.019  0.00  0.00    +0.015 C 
ATOM     19  C   LIG    1       19.217 -32.315  14.236  0.00  0.00    +0.081 C 
ATOM     20  N   LIG    1       20.261 -31.505  14.870  0.00  0.00    -0.311 NA
ATOM     21  H   LIG    1       20.409 -31.868  15.812  0.00  0.00    +0.122 HD
ATOM     22  C   LIG    1       23.198 -32.691  12.872  0.00  0.00    +0.110 C 
ENDBRANCH  12  13
BRANCH  11  23
ATOM     23  C   LIG    1       24.155 -32.123   6.782  0.00  0.00    +0.088 C 
ATOM     24  C   LIG    1       23.206 -32.843   5.844  0.00  0.00    +0.027 C 
ATOM     25  C   LIG    1       24.582 -32.471   5.382  0.00  0.00    +0.027 C 
ENDBRANCH  11  23
BRANCH   1  27
ATOM     26  C   LIG    1       22.297 -33.261   9.419  0.00  0.00    +0.277 C 
ATOM     27  O   LIG    1       22.078 -31.852   9.428  0.00  0.00    -0.491 OA
ENDBRANCH   1  27
BRANCH   5  28
ATOM     28  C   LIG    1       25.381 -27.749   5.633  0.00  0.00    +0.342 C 
ATOM     29  O   LIG    1       24.556 -27.020   5.126  0.00  0.00    -0.245 OA
BRANCH  28  30
ATOM     30  O   LIG    1       26.700 -27.678   5.336  0.00  0.00    -0.477 OA
ATOM     31  H   LIG    1       27.241 -27.197   6.003  0.00  0.00    +0.295 HD
ENDBRANCH  28  30
ENDBRANCH   5  28
TORSDOF 5
ENDMDL
MODEL 9
REMARK VINA RESULT:      -5.8     10.592     13.264
REMARK  Name = *****
REMARK                            x       y       z     vdW  Elec       q    Type
REMARK                         _______ _______ _______ _____ _____    ______ ____
ROOT
ATOM      1  C   LIG    1       22.323 -30.689  10.418  0.00  0.00    +0.168 C 
ATOM      2  C   LIG    1       23.342 -30.667   9.423  0.00  0.00    +0.097 C 
ATOM      3  C   LIG    1       24.475 -29.867   9.654  0.00  0.00    +0.052 C 
ATOM      4  C   LIG    1       25.369 -29.532   8.520  0.00  0.00    +0.204 C 
ATOM      5  C   LIG    1       24.987 -30.001   7.174  0.00  0.00    +0.122 C 
ATOM      6  C   LIG    1       24.015 -30.918   7.117  0.00  0.00    +0.105 C 
ATOM      7  O   LIG    1       26.346 -28.800   8.663  0.00  0.00    -0.286 OA
ATOM      8  C   LIG    1       24.730 -29.333  10.910  0.00  0.00    +0.054 C 
ATOM      9  C   LIG    1       23.794 -29.500  11.925  0.00  0.00    +0.149 C 
ATOM     10  F   LIG    1       24.104 -28.961  13.116  0.00  0.00    -0.203 F 
ATOM     11  N   LIG    1       23.295 -31.414   8.197  0.00  0.00    -0.340 NA
ATOM     12  C   LIG    1       22.538 -30.115  11.714  0.00  0.00    +0.110 C 
ENDROOT
BRANCH  12  13
ATOM     13  N   LIG    1       21.582 -30.160  12.723  0.00  0.00    -0.323 NA
ATOM     14  C   LIG    1       20.571 -29.104  12.905  0.00  0.00    +0.124 C 
ATOM     15  C   LIG    1       20.164 -29.235  14.398  0.00  0.00    +0.075 C 
ATOM     16  C   LIG    1       20.368 -30.730  14.678  0.00  0.00    +0.025 C 
ATOM     17  C   LIG    1       19.189 -31.577  14.183  0.00  0.00    +0.008 C 
ATOM     18  C   LIG    1       17.877 -31.003  14.708  0.00  0.00    +0.015 C 
ATOM     19  C   LIG    1       17.736 -29.532  14.324  0.00  0.00    +0.081 C 
ATOM     20  N   LIG    1       18.851 -28.717  14.809  0.00  0.00    -0.311 NA
ATOM     21  H   LIG    1       18.817 -28.716  15.830  0.00  0.00    +0.122 HD
ATOM     22  C   LIG    1       21.670 -31.013  13.912  0.00  0.00    +0.110 C 
ENDBRANCH  12  13
BRANCH  11  23
ATOM     23  C   LIG    1       23.344 -32.916   8.252  0.00  0.00    +0.088 C 
ATOM     24  C   LIG    1       22.311 -33.757   7.529  0.00  0.00    +0.027 C 
ATOM     25  C   LIG    1       23.752 -33.825   7.125  0.00  0.00    +0.027 C 
ENDBRANCH  11  23
BRANCH   1  27
ATOM     26  C   LIG    1       21.004 -32.652  10.784  0.00  0.00    +0.277 C 
ATOM     27  O   LIG    1       21.118 -31.340  10.238  0.00  0.00    -0.491 OA
ENDBRANCH   1  27
BRANCH   5  28
ATOM     28  C   LIG    1       25.622 -29.549   5.920  0.00  0.00    +0.342 C 
ATOM     29  O   LIG    1       25.770 -30.262   4.950  0.00  0.00    -0.245 OA
BRANCH  28  30
ATOM     30  O   LIG    1       25.952 -28.237   5.919  0.00  0.00    -0.477 OA
ATOM     31  H   LIG    1       26.729 -28.012   6.480  0.00  0.00    +0.295 HD
ENDBRANCH  28  30
ENDBRANCH   5  28
TORSDOF 5
ENDMDL
