MODEL 1
REMARK VINA RESULT:      -4.7      0.000      0.000
REMARK  Name = *****
REMARK                            x       y       z     vdW  Elec       q    Type
REMARK                         _______ _______ _______ _____ _____    ______ ____
ROOT
ATOM      1  C   LIG    1       25.972 -20.745   8.341  0.00  0.00    +0.058 C 
ATOM      2  C   LIG    1       26.404 -21.515   7.088  0.00  0.00    +0.220 C 
ENDROOT
BRANCH   2   3
ATOM      3  C   LIG    1       25.919 -22.992   7.111  0.00  0.00    +0.177 C 
BRANCH   3   4
ATOM      4  N   LIG    1       24.789 -23.344   6.091  0.00  0.00    +0.239 N 
ATOM      5  C   LIG    1       24.632 -22.164   5.122  0.00  0.00    +0.192 C 
ATOM      6  C   LIG    1       23.454 -23.539   6.798  0.00  0.00    +0.192 C 
ATOM      7  C   LIG    1       25.121 -24.580   5.268  0.00  0.00    +0.192 C 
ENDBRANCH   3   4
ENDBRANCH   2   3
BRANCH   2   8
ATOM      8  O   LIG    1       27.824 -21.322   6.887  0.00  0.00    -0.442 OA
BRANCH   8   9
ATOM      9  C   LIG    1       28.232 -20.210   6.258  0.00  0.00    +0.398 C 
ATOM     10  O   LIG    1       29.077 -19.428   6.683  0.00  0.00    -0.227 OA
ATOM     11  N   LIG    1       27.555 -20.054   5.101  0.00  0.00    -0.295 N 
ATOM     12  H   LIG    1       27.584 -19.147   4.648  0.00  0.00    +0.148 HD
ATOM     13  H   LIG    1       26.723 -20.625   4.944  0.00  0.00    +0.148 HD
ENDBRANCH   8   9
ENDBRANCH   2   8
TORSDOF 4
ENDMDL
MODEL 2
REMARK VINA RESULT:      -4.7      0.239      1.300
REMARK  Name = *****
REMARK                            x       y       z     vdW  Elec       q    Type
REMARK                         _______ _______ _______ _____ _____    ______ ____
ROOT
ATOM      1  C   LIG    1       26.079 -20.723   8.341  0.00  0.00    +0.058 C 
ATOM      2  C   LIG    1       26.540 -21.527   7.120  0.00  0.00    +0.220 C 
ENDROOT
BRANCH   2   3
ATOM      3  C   LIG    1       25.955 -22.967   7.111  0.00  0.00    +0.177 C 
BRANCH   3   4
ATOM      4  N   LIG    1       24.832 -23.230   6.057  0.00  0.00    +0.239 N 
ATOM      5  C   LIG    1       23.501 -23.386   6.805  0.00  0.00    +0.192 C 
ATOM      6  C   LIG    1       25.087 -24.524   5.296  0.00  0.00    +0.192 C 
ATOM      7  C   LIG    1       24.682 -22.076   5.076  0.00  0.00    +0.192 C 
ENDBRANCH   3   4
ENDBRANCH   2   3
BRANCH   2   8
ATOM      8  O   LIG    1       27.981 -21.431   7.015  0.00  0.00    -0.442 OA
BRANCH   8   9
ATOM      9  C   LIG    1       28.503 -20.407   6.324  0.00  0.00    +0.398 C 
ATOM     10  O   LIG    1       29.504 -19.775   6.647  0.00  0.00    -0.227 OA
ATOM     11  N   LIG    1       27.747 -20.147   5.237  0.00  0.00    -0.295 N 
ATOM     12  H   LIG    1       27.881 -19.260   4.762  0.00  0.00    +0.148 HD
ATOM     13  H   LIG    1       26.821 -20.572   5.175  0.00  0.00    +0.148 HD
ENDBRANCH   8   9
ENDBRANCH   2   8
TORSDOF 4
ENDMDL
MODEL 3
REMARK VINA RESULT:      -4.6      3.047      4.303
REMARK  Name = *****
REMARK                            x       y       z     vdW  Elec       q    Type
REMARK                         _______ _______ _______ _____ _____    ______ ____
ROOT
ATOM      1  C   LIG    1       30.206 -19.534   6.561  0.00  0.00    +0.058 C 
ATOM      2  C   LIG    1       29.610 -20.359   7.708  0.00  0.00    +0.220 C 
ENDROOT
BRANCH   2   3
ATOM      3  C   LIG    1       28.167 -19.908   8.068  0.00  0.00    +0.177 C 
BRANCH   3   4
ATOM      4  N   LIG    1       27.019 -20.742   7.415  0.00  0.00    +0.239 N 
ATOM      5  C   LIG    1       25.760 -20.584   8.279  0.00  0.00    +0.192 C 
ATOM      6  C   LIG    1       27.371 -22.224   7.382  0.00  0.00    +0.192 C 
ATOM      7  C   LIG    1       26.683 -20.261   6.012  0.00  0.00    +0.192 C 
ENDBRANCH   3   4
ENDBRANCH   2   3
BRANCH   2   8
ATOM      8  O   LIG    1       30.555 -20.384   8.804  0.00  0.00    -0.442 OA
BRANCH   8   9
ATOM      9  C   LIG    1       31.005 -21.573   9.231  0.00  0.00    +0.398 C 
ATOM     10  O   LIG    1       30.600 -22.166  10.225  0.00  0.00    -0.227 OA
ATOM     11  N   LIG    1       31.995 -22.012   8.425  0.00  0.00    -0.295 N 
ATOM     12  H   LIG    1       32.584 -22.767   8.759  0.00  0.00    +0.148 HD
ATOM     13  H   LIG    1       32.412 -21.354   7.765  0.00  0.00    +0.148 HD
ENDBRANCH   8   9
ENDBRANCH   2   8
TORSDOF 4
ENDMDL
MODEL 4
REMARK VINA RESULT:      -4.6      1.923      2.652
REMARK  Name = *****
REMARK                            x       y       z     vdW  Elec       q    Type
REMARK                         _______ _______ _______ _____ _____    ______ ____
ROOT
ATOM      1  C   LIG    1       26.124 -20.210   5.011  0.00  0.00    +0.058 C 
ATOM      2  C   LIG    1       25.683 -21.240   6.057  0.00  0.00    +0.220 C 
ENDROOT
BRANCH   2   3
ATOM      3  C   LIG    1       24.647 -22.249   5.488  0.00  0.00    +0.177 C 
BRANCH   3   4
ATOM      4  N   LIG    1       24.781 -23.716   6.007  0.00  0.00    +0.239 N 
ATOM      5  C   LIG    1       23.479 -24.090   6.730  0.00  0.00    +0.192 C 
ATOM      6  C   LIG    1       25.918 -23.839   7.013  0.00  0.00    +0.192 C 
ATOM      7  C   LIG    1       24.985 -24.711   4.874  0.00  0.00    +0.192 C 
ENDBRANCH   3   4
ENDBRANCH   2   3
BRANCH   2   8
ATOM      8  O   LIG    1       25.287 -20.542   7.262  0.00  0.00    -0.442 OA
BRANCH   8   9
ATOM      9  C   LIG    1       26.102 -20.593   8.325  0.00  0.00    +0.398 C 
ATOM     10  O   LIG    1       25.763 -20.914   9.459  0.00  0.00    -0.227 OA
ATOM     11  N   LIG    1       27.347 -20.206   7.976  0.00  0.00    -0.295 N 
ATOM     12  H   LIG    1       27.999 -19.966   8.716  0.00  0.00    +0.148 HD
ATOM     13  H   LIG    1       27.478 -19.746   7.074  0.00  0.00    +0.148 HD
ENDBRANCH   8   9
ENDBRANCH   2   8
TORSDOF 4
ENDMDL
MODEL 5
REMARK VINA RESULT:      -4.5      2.966      5.241
REMARK  Name = *****
REMARK                            x       y       z     vdW  Elec       q    Type
REMARK                         _______ _______ _______ _____ _____    ______ ____
ROOT
ATOM      1  C   LIG    1       27.345 -19.954   5.596  0.00  0.00    +0.058 C 
ATOM      2  C   LIG    1       27.684 -20.400   7.023  0.00  0.00    +0.220 C 
ENDROOT
BRANCH   2   3
ATOM      3  C   LIG    1       29.138 -20.938   7.140  0.00  0.00    +0.177 C 
BRANCH   3   4
ATOM      4  N   LIG    1       30.167 -19.959   7.789  0.00  0.00    +0.239 N 
ATOM      5  C   LIG    1       31.039 -20.758   8.767  0.00  0.00    +0.192 C 
ATOM      6  C   LIG    1       29.460 -18.871   8.587  0.00  0.00    +0.192 C 
ATOM      7  C   LIG    1       31.088 -19.325   6.757  0.00  0.00    +0.192 C 
ENDBRANCH   3   4
ENDBRANCH   2   3
BRANCH   2   8
ATOM      8  O   LIG    1       26.643 -21.289   7.493  0.00  0.00    -0.442 OA
BRANCH   8   9
ATOM      9  C   LIG    1       25.740 -20.810   8.361  0.00  0.00    +0.398 C 
ATOM     10  O   LIG    1       25.992 -20.412   9.494  0.00  0.00    -0.227 OA
ATOM     11  N   LIG    1       24.505 -20.859   7.821  0.00  0.00    -0.295 N 
ATOM     12  H   LIG    1       23.708 -20.759   8.441  0.00  0.00    +0.148 HD
ATOM     13  H   LIG    1       24.367 -21.408   6.972  0.00  0.00    +0.148 HD
ENDBRANCH   8   9
ENDBRANCH   2   8
TORSDOF 4
ENDMDL
MODEL 6
REMARK VINA RESULT:      -4.5      2.219      3.416
REMARK  Name = *****
REMARK                            x       y       z     vdW  Elec       q    Type
REMARK                         _______ _______ _______ _____ _____    ______ ____
ROOT
ATOM      1  C   LIG    1       23.271 -23.706   6.813  0.00  0.00    +0.058 C 
ATOM      2  C   LIG    1       24.302 -22.576   6.711  0.00  0.00    +0.220 C 
ENDROOT
BRANCH   2   3
ATOM      3  C   LIG    1       24.749 -22.321   5.244  0.00  0.00    +0.177 C 
BRANCH   3   4
ATOM      4  N   LIG    1       24.513 -20.873   4.711  0.00  0.00    +0.239 N 
ATOM      5  C   LIG    1       25.792 -20.058   4.950  0.00  0.00    +0.192 C 
ATOM      6  C   LIG    1       23.383 -20.187   5.468  0.00  0.00    +0.192 C 
ATOM      7  C   LIG    1       24.220 -20.849   3.218  0.00  0.00    +0.192 C 
ENDBRANCH   3   4
ENDBRANCH   2   3
BRANCH   2   8
ATOM      8  O   LIG    1       25.365 -22.826   7.660  0.00  0.00    -0.442 OA
BRANCH   8   9
ATOM      9  C   LIG    1       25.903 -21.781   8.305  0.00  0.00    +0.398 C 
ATOM     10  O   LIG    1       27.068 -21.707   8.682  0.00  0.00    -0.227 OA
ATOM     11  N   LIG    1       24.967 -20.831   8.511  0.00  0.00    -0.295 N 
ATOM     12  H   LIG    1       25.166 -20.102   9.189  0.00  0.00    +0.148 HD
ATOM     13  H   LIG    1       23.986 -21.074   8.366  0.00  0.00    +0.148 HD
ENDBRANCH   8   9
ENDBRANCH   2   8
TORSDOF 4
ENDMDL
MODEL 7
REMARK VINA RESULT:      -4.5      3.008      4.395
REMARK  Name = *****
REMARK                            x       y       z     vdW  Elec       q    Type
REMARK                         _______ _______ _______ _____ _____    ______ ____
ROOT
ATOM      1  C   LIG    1       25.884 -20.794   7.345  0.00  0.00    +0.058 C 
ATOM      2  C   LIG    1       24.704 -21.470   6.637  0.00  0.00    +0.220 C 
ENDROOT
BRANCH   2   3
ATOM      3  C   LIG    1       23.472 -20.529   6.524  0.00  0.00    +0.177 C 
BRANCH   3   4
ATOM      4  N   LIG    1       22.882 -20.364   5.087  0.00  0.00    +0.239 N 
ATOM      5  C   LIG    1       23.989 -20.687   4.074  0.00  0.00    +0.192 C 
ATOM      6  C   LIG    1       22.436 -18.928   4.840  0.00  0.00    +0.192 C 
ATOM      7  C   LIG    1       21.723 -21.315   4.828  0.00  0.00    +0.192 C 
ENDBRANCH   3   4
ENDBRANCH   2   3
BRANCH   2   8
ATOM      8  O   LIG    1       24.460 -22.754   7.259  0.00  0.00    -0.442 OA
BRANCH   8   9
ATOM      9  C   LIG    1       23.935 -23.735   6.510  0.00  0.00    +0.398 C 
ATOM     10  O   LIG    1       22.918 -24.363   6.783  0.00  0.00    -0.227 OA
ATOM     11  N   LIG    1       24.707 -23.956   5.425  0.00  0.00    -0.295 N 
ATOM     12  H   LIG    1       24.568 -24.817   4.907  0.00  0.00    +0.148 HD
ATOM     13  H   LIG    1       25.641 -23.545   5.401  0.00  0.00    +0.148 HD
ENDBRANCH   8   9
ENDBRANCH   2   8
TORSDOF 4
ENDMDL
MODEL 8
REMARK VINA RESULT:      -4.5      2.727      4.364
REMARK  Name = *****
REMARK                            x       y       z     vdW  Elec       q    Type
REMARK                         _______ _______ _______ _____ _____    ______ ____
ROOT
ATOM      1  C   LIG    1       25.290 -24.458   5.607  0.00  0.00    +0.058 C 
ATOM      2  C   LIG    1       25.160 -23.098   6.303  0.00  0.00    +0.220 C 
ENDROOT
BRANCH   2   3
ATOM      3  C   LIG    1       26.377 -22.790   7.219  0.00  0.00    +0.177 C 
BRANCH   3   4
ATOM      4  N   LIG    1       26.860 -21.305   7.219  0.00  0.00    +0.239 N 
ATOM      5  C   LIG    1       28.395 -21.299   7.255  0.00  0.00    +0.192 C 
ATOM      6  C   LIG    1       26.368 -20.568   8.458  0.00  0.00    +0.192 C 
ATOM      7  C   LIG    1       26.423 -20.558   5.968  0.00  0.00    +0.192 C 
ENDBRANCH   3   4
ENDBRANCH   2   3
BRANCH   2   8
ATOM      8  O   LIG    1       23.860 -23.019   6.934  0.00  0.00    -0.442 OA
BRANCH   8   9
ATOM      9  C   LIG    1       23.171 -21.873   6.833  0.00  0.00    +0.398 C 
ATOM     10  O   LIG    1       23.109 -21.009   7.702  0.00  0.00    -0.227 OA
ATOM     11  N   LIG    1       22.527 -21.821   5.649  0.00  0.00    -0.295 N 
ATOM     12  H   LIG    1       21.785 -21.137   5.538  0.00  0.00    +0.148 HD
ATOM     13  H   LIG    1       22.457 -22.676   5.096  0.00  0.00    +0.148 HD
ENDBRANCH   8   9
ENDBRANCH   2   8
TORSDOF 4
ENDMDL
MODEL 9
REMARK VINA RESULT:      -4.4      2.990      4.802
REMARK  Name = *****
REMARK                            x       y       z     vdW  Elec       q    Type
REMARK                         _______ _______ _______ _____ _____    ______ ____
ROOT
ATOM      1  C   LIG    1       23.500 -24.393   6.610  0.00  0.00    +0.058 C 
ATOM      2  C   LIG    1       24.806 -24.010   5.904  0.00  0.00    +0.220 C 
ENDROOT
BRANCH   2   3
ATOM      3  C   LIG    1       24.800 -22.533   5.421  0.00  0.00    +0.177 C 
BRANCH   3   4
ATOM      4  N   LIG    1       25.555 -21.522   6.342  0.00  0.00    +0.239 N 
ATOM      5  C   LIG    1       24.542 -20.925   7.330  0.00  0.00    +0.192 C 
ATOM      6  C   LIG    1       26.139 -20.373   5.531  0.00  0.00    +0.192 C 
ATOM      7  C   LIG    1       26.654 -22.192   7.153  0.00  0.00    +0.192 C 
ENDBRANCH   3   4
ENDBRANCH   2   3
BRANCH   2   8
ATOM      8  O   LIG    1       25.097 -25.004   4.892  0.00  0.00    -0.442 OA
BRANCH   8   9
ATOM      9  C   LIG    1       25.741 -26.120   5.262  0.00  0.00    +0.398 C 
ATOM     10  O   LIG    1       26.865 -26.157   5.752  0.00  0.00    -0.227 OA
ATOM     11  N   LIG    1       24.987 -27.205   4.985  0.00  0.00    -0.295 N 
ATOM     12  H   LIG    1       25.439 -28.113   4.986  0.00  0.00    +0.148 HD
ATOM     13  H   LIG    1       24.175 -27.090   4.378  0.00  0.00    +0.148 HD
ENDBRANCH   8   9
ENDBRANCH   2   8
TORSDOF 4
ENDMDL
