MODEL 1
REMARK VINA RESULT:     -10.0      0.000      0.000
REMARK  Name = *****
REMARK                            x       y       z     vdW  Elec       q    Type
REMARK                         _______ _______ _______ _____ _____    ______ ____
ROOT
ATOM      1  C   LIG    1       28.812 -19.613   8.366  0.00  0.00    +0.105 C 
ATOM      2  N   LIG    1       28.889 -20.779   7.487  0.00  0.00    -0.301 NA
ATOM      3  C   LIG    1       27.666 -21.608   7.580  0.00  0.00    +0.116 C 
ATOM      4  C   LIG    1       26.542 -21.121   6.724  0.00  0.00    -0.040 C 
ATOM      5  C   LIG    1       25.107 -21.583   6.877  0.00  0.00    +0.077 C 
ATOM      6  C   LIG    1       24.445 -20.764   5.788  0.00  0.00    -0.029 A 
ATOM      7  C   LIG    1       25.403 -19.962   5.143  0.00  0.00    -0.018 A 
ATOM      8  C   LIG    1       25.042 -19.114   4.112  0.00  0.00    +0.008 A 
ATOM      9  C   LIG    1       23.698 -19.071   3.729  0.00  0.00    +0.001 A 
ATOM     10  C   LIG    1       22.740 -19.869   4.377  0.00  0.00    +0.000 A 
ATOM     11  C   LIG    1       23.109 -20.724   5.418  0.00  0.00    +0.005 A 
ATOM     12  C   LIG    1       26.700 -20.214   5.746  0.00  0.00    -0.037 C 
ATOM     13  C   LIG    1       28.012 -19.623   5.381  0.00  0.00    +0.051 C 
ATOM     14  C   LIG    1       29.157 -20.388   6.085  0.00  0.00    +0.089 C 
ENDROOT
BRANCH   5  15
ATOM     15  C   LIG    1       24.931 -23.083   6.745  0.00  0.00    -0.036 A 
ATOM     16  C   LIG    1       23.660 -23.673   6.635  0.00  0.00    +0.004 A 
ATOM     17  C   LIG    1       23.526 -25.055   6.498  0.00  0.00    +0.000 A 
ATOM     18  C   LIG    1       24.657 -25.867   6.462  0.00  0.00    +0.000 A 
ATOM     19  C   LIG    1       25.923 -25.298   6.564  0.00  0.00    +0.000 A 
ATOM     20  C   LIG    1       26.060 -23.915   6.703  0.00  0.00    +0.004 A 
ENDBRANCH   5  15
TORSDOF 1
ENDMDL
MODEL 2
REMARK VINA RESULT:      -9.7      1.642      4.716
REMARK  Name = *****
REMARK                            x       y       z     vdW  Elec       q    Type
REMARK                         _______ _______ _______ _____ _____    ______ ____
ROOT
ATOM      1  C   LIG    1       24.323 -25.324   5.150  0.00  0.00    +0.105 C 
ATOM      2  N   LIG    1       24.589 -24.609   6.397  0.00  0.00    -0.301 NA
ATOM      3  C   LIG    1       25.555 -23.506   6.194  0.00  0.00    +0.116 C 
ATOM      4  C   LIG    1       24.932 -22.247   5.683  0.00  0.00    -0.040 C 
ATOM      5  C   LIG    1       25.723 -21.098   5.092  0.00  0.00    +0.077 C 
ATOM      6  C   LIG    1       24.595 -20.146   4.748  0.00  0.00    -0.029 A 
ATOM      7  C   LIG    1       23.360 -20.719   5.103  0.00  0.00    -0.018 A 
ATOM      8  C   LIG    1       22.174 -20.044   4.881  0.00  0.00    +0.008 A 
ATOM      9  C   LIG    1       22.232 -18.779   4.290  0.00  0.00    +0.001 A 
ATOM     10  C   LIG    1       23.465 -18.208   3.931  0.00  0.00    +0.000 A 
ATOM     11  C   LIG    1       24.661 -18.894   4.157  0.00  0.00    +0.005 A 
ATOM     12  C   LIG    1       23.607 -22.025   5.690  0.00  0.00    -0.037 C 
ATOM     13  C   LIG    1       22.618 -22.986   6.237  0.00  0.00    +0.051 C 
ATOM     14  C   LIG    1       23.341 -24.110   7.017  0.00  0.00    +0.089 C 
ENDROOT
BRANCH   5  15
ATOM     15  C   LIG    1       26.772 -20.532   6.028  0.00  0.00    -0.036 A 
ATOM     16  C   LIG    1       26.618 -20.571   7.425  0.00  0.00    +0.004 A 
ATOM     17  C   LIG    1       27.606 -20.057   8.266  0.00  0.00    +0.000 A 
ATOM     18  C   LIG    1       28.765 -19.504   7.726  0.00  0.00    +0.000 A 
ATOM     19  C   LIG    1       28.936 -19.463   6.344  0.00  0.00    +0.000 A 
ATOM     20  C   LIG    1       27.947 -19.975   5.501  0.00  0.00    +0.004 A 
ENDBRANCH   5  15
TORSDOF 1
ENDMDL
MODEL 3
REMARK VINA RESULT:      -8.5      1.042      4.418
REMARK  Name = *****
REMARK                            x       y       z     vdW  Elec       q    Type
REMARK                         _______ _______ _______ _____ _____    ______ ____
ROOT
ATOM      1  C   LIG    1       29.678 -20.163   6.486  0.00  0.00    +0.105 C 
ATOM      2  N   LIG    1       28.465 -19.583   7.062  0.00  0.00    -0.301 NA
ATOM      3  C   LIG    1       27.332 -19.642   6.111  0.00  0.00    +0.116 C 
ATOM      4  C   LIG    1       26.620 -20.956   6.103  0.00  0.00    -0.040 C 
ATOM      5  C   LIG    1       25.656 -21.384   5.015  0.00  0.00    +0.077 C 
ATOM      6  C   LIG    1       25.277 -22.761   5.521  0.00  0.00    -0.029 A 
ATOM      7  C   LIG    1       25.958 -23.035   6.720  0.00  0.00    -0.018 A 
ATOM      8  C   LIG    1       25.785 -24.240   7.377  0.00  0.00    +0.008 A 
ATOM      9  C   LIG    1       24.917 -25.181   6.816  0.00  0.00    +0.001 A 
ATOM     10  C   LIG    1       24.239 -24.909   5.614  0.00  0.00    +0.000 A 
ATOM     11  C   LIG    1       24.418 -23.691   4.955  0.00  0.00    +0.005 A 
ATOM     12  C   LIG    1       26.781 -21.887   7.059  0.00  0.00    -0.037 C 
ATOM     13  C   LIG    1       27.654 -21.701   8.245  0.00  0.00    +0.051 C 
ATOM     14  C   LIG    1       28.110 -20.226   8.347  0.00  0.00    +0.089 C 
ENDROOT
BRANCH   5  15
ATOM     15  C   LIG    1       24.492 -20.432   4.821  0.00  0.00    -0.036 A 
ATOM     16  C   LIG    1       23.404 -20.401   5.710  0.00  0.00    +0.004 A 
ATOM     17  C   LIG    1       22.352 -19.504   5.518  0.00  0.00    +0.000 A 
ATOM     18  C   LIG    1       22.374 -18.622   4.440  0.00  0.00    +0.000 A 
ATOM     19  C   LIG    1       23.447 -18.636   3.554  0.00  0.00    +0.000 A 
ATOM     20  C   LIG    1       24.501 -19.534   3.743  0.00  0.00    +0.004 A 
ENDBRANCH   5  15
TORSDOF 1
ENDMDL
MODEL 4
REMARK VINA RESULT:      -8.3      1.882      5.386
REMARK  Name = *****
REMARK                            x       y       z     vdW  Elec       q    Type
REMARK                         _______ _______ _______ _____ _____    ______ ____
ROOT
ATOM      1  C   LIG    1       22.269 -19.136   4.364  0.00  0.00    +0.105 C 
ATOM      2  N   LIG    1       23.641 -19.097   3.859  0.00  0.00    -0.301 NA
ATOM      3  C   LIG    1       24.626 -19.230   4.955  0.00  0.00    +0.116 C 
ATOM      4  C   LIG    1       24.887 -20.644   5.361  0.00  0.00    -0.040 C 
ATOM      5  C   LIG    1       25.586 -21.035   6.647  0.00  0.00    +0.077 C 
ATOM      6  C   LIG    1       25.549 -22.545   6.524  0.00  0.00    -0.029 A 
ATOM      7  C   LIG    1       24.905 -22.912   5.329  0.00  0.00    -0.018 A 
ATOM      8  C   LIG    1       24.738 -24.243   4.991  0.00  0.00    +0.008 A 
ATOM      9  C   LIG    1       25.224 -25.215   5.869  0.00  0.00    +0.001 A 
ATOM     10  C   LIG    1       25.864 -24.848   7.066  0.00  0.00    +0.000 A 
ATOM     11  C   LIG    1       26.029 -23.503   7.403  0.00  0.00    +0.005 A 
ATOM     12  C   LIG    1       24.511 -21.704   4.625  0.00  0.00    -0.037 C 
ATOM     13  C   LIG    1       23.829 -21.588   3.312  0.00  0.00    +0.051 C 
ATOM     14  C   LIG    1       23.867 -20.123   2.817  0.00  0.00    +0.089 C 
ENDROOT
BRANCH   5  15
ATOM     15  C   LIG    1       26.974 -20.441   6.793  0.00  0.00    -0.036 A 
ATOM     16  C   LIG    1       27.712 -20.001   5.681  0.00  0.00    +0.004 A 
ATOM     17  C   LIG    1       28.981 -19.442   5.844  0.00  0.00    +0.000 A 
ATOM     18  C   LIG    1       29.527 -19.309   7.118  0.00  0.00    +0.000 A 
ATOM     19  C   LIG    1       28.806 -19.735   8.231  0.00  0.00    +0.000 A 
ATOM     20  C   LIG    1       27.537 -20.296   8.070  0.00  0.00    +0.004 A 
ENDBRANCH   5  15
TORSDOF 1
ENDMDL
MODEL 5
REMARK VINA RESULT:      -7.8      5.719      8.732
REMARK  Name = *****
REMARK                            x       y       z     vdW  Elec       q    Type
REMARK                         _______ _______ _______ _____ _____    ______ ____
ROOT
ATOM      1  C   LIG    1       24.660 -29.923  11.542  0.00  0.00    +0.105 C 
ATOM      2  N   LIG    1       25.625 -30.620  10.693  0.00  0.00    -0.301 NA
ATOM      3  C   LIG    1       25.045 -30.951   9.372  0.00  0.00    +0.116 C 
ATOM      4  C   LIG    1       25.097 -29.824   8.392  0.00  0.00    -0.040 C 
ATOM      5  C   LIG    1       24.296 -29.789   7.107  0.00  0.00    +0.077 C 
ATOM      6  C   LIG    1       24.732 -28.445   6.557  0.00  0.00    -0.029 A 
ATOM      7  C   LIG    1       25.643 -27.839   7.440  0.00  0.00    -0.018 A 
ATOM      8  C   LIG    1       26.182 -26.596   7.163  0.00  0.00    +0.008 A 
ATOM      9  C   LIG    1       25.796 -25.955   5.982  0.00  0.00    +0.001 A 
ATOM     10  C   LIG    1       24.882 -26.560   5.101  0.00  0.00    +0.000 A 
ATOM     11  C   LIG    1       24.340 -27.815   5.386  0.00  0.00    +0.005 A 
ATOM     12  C   LIG    1       25.854 -28.727   8.570  0.00  0.00    -0.037 C 
ATOM     13  C   LIG    1       26.748 -28.530   9.738  0.00  0.00    +0.051 C 
ATOM     14  C   LIG    1       26.877 -29.846  10.541  0.00  0.00    +0.089 C 
ENDROOT
BRANCH   5  15
ATOM     15  C   LIG    1       24.557 -30.969   6.191  0.00  0.00    -0.036 A 
ATOM     16  C   LIG    1       25.727 -31.061   5.417  0.00  0.00    +0.004 A 
ATOM     17  C   LIG    1       25.950 -32.166   4.594  0.00  0.00    +0.000 A 
ATOM     18  C   LIG    1       25.015 -33.196   4.537  0.00  0.00    +0.000 A 
ATOM     19  C   LIG    1       23.854 -33.122   5.302  0.00  0.00    +0.000 A 
ATOM     20  C   LIG    1       23.627 -32.017   6.126  0.00  0.00    +0.004 A 
ENDBRANCH   5  15
TORSDOF 1
ENDMDL
MODEL 6
REMARK VINA RESULT:      -7.1      6.077     10.433
REMARK  Name = *****
REMARK                            x       y       z     vdW  Elec       q    Type
REMARK                         _______ _______ _______ _____ _____    ______ ____
ROOT
ATOM      1  C   LIG    1       25.645 -33.819   4.748  0.00  0.00    +0.105 C 
ATOM      2  N   LIG    1       26.567 -32.706   4.972  0.00  0.00    -0.301 NA
ATOM      3  C   LIG    1       25.839 -31.447   5.246  0.00  0.00    +0.116 C 
ATOM      4  C   LIG    1       25.414 -31.295   6.671  0.00  0.00    -0.040 C 
ATOM      5  C   LIG    1       24.393 -30.280   7.141  0.00  0.00    +0.077 C 
ATOM      6  C   LIG    1       24.362 -30.597   8.623  0.00  0.00    -0.029 A 
ATOM      7  C   LIG    1       25.248 -31.652   8.904  0.00  0.00    -0.018 A 
ATOM      8  C   LIG    1       25.394 -32.132  10.193  0.00  0.00    +0.008 A 
ATOM      9  C   LIG    1       24.635 -31.544  11.209  0.00  0.00    +0.001 A 
ATOM     10  C   LIG    1       23.746 -30.492  10.926  0.00  0.00    +0.000 A 
ATOM     11  C   LIG    1       23.602 -30.011   9.623  0.00  0.00    +0.005 A 
ATOM     12  C   LIG    1       25.892 -32.059   7.668  0.00  0.00    -0.037 C 
ATOM     13  C   LIG    1       26.921 -33.112   7.473  0.00  0.00    +0.051 C 
ATOM     14  C   LIG    1       27.530 -33.006   6.055  0.00  0.00    +0.089 C 
ENDROOT
BRANCH   5  15
ATOM     15  C   LIG    1       24.755 -28.847   6.802  0.00  0.00    -0.036 A 
ATOM     16  C   LIG    1       24.100 -28.139   5.779  0.00  0.00    +0.004 A 
ATOM     17  C   LIG    1       24.442 -26.816   5.498  0.00  0.00    +0.000 A 
ATOM     18  C   LIG    1       25.436 -26.178   6.236  0.00  0.00    +0.000 A 
ATOM     19  C   LIG    1       26.090 -26.864   7.256  0.00  0.00    +0.000 A 
ATOM     20  C   LIG    1       25.752 -28.189   7.539  0.00  0.00    +0.004 A 
ENDBRANCH   5  15
TORSDOF 1
ENDMDL
MODEL 7
REMARK VINA RESULT:      -7.1      2.032      5.311
REMARK  Name = *****
REMARK                            x       y       z     vdW  Elec       q    Type
REMARK                         _______ _______ _______ _____ _____    ______ ____
ROOT
ATOM      1  C   LIG    1       23.836 -26.184   6.768  0.00  0.00    +0.105 C 
ATOM      2  N   LIG    1       24.110 -25.460   5.527  0.00  0.00    -0.301 NA
ATOM      3  C   LIG    1       23.717 -24.037   5.633  0.00  0.00    +0.116 C 
ATOM      4  C   LIG    1       24.748 -23.174   6.286  0.00  0.00    -0.040 C 
ATOM      5  C   LIG    1       24.471 -21.777   6.802  0.00  0.00    +0.077 C 
ATOM      6  C   LIG    1       25.837 -21.419   7.352  0.00  0.00    -0.029 A 
ATOM      7  C   LIG    1       26.726 -22.492   7.160  0.00  0.00    -0.018 A 
ATOM      8  C   LIG    1       28.039 -22.412   7.586  0.00  0.00    +0.008 A 
ATOM      9  C   LIG    1       28.460 -21.237   8.216  0.00  0.00    +0.001 A 
ATOM     10  C   LIG    1       27.570 -20.167   8.412  0.00  0.00    +0.000 A 
ATOM     11  C   LIG    1       26.245 -20.253   7.980  0.00  0.00    +0.005 A 
ATOM     12  C   LIG    1       26.017 -23.566   6.486  0.00  0.00    -0.037 C 
ATOM     13  C   LIG    1       26.546 -24.883   6.051  0.00  0.00    +0.051 C 
ATOM     14  C   LIG    1       25.528 -25.588   5.124  0.00  0.00    +0.089 C 
ENDROOT
BRANCH   5  15
ATOM     15  C   LIG    1       23.939 -20.829   5.745  0.00  0.00    -0.036 A 
ATOM     16  C   LIG    1       22.736 -20.124   5.920  0.00  0.00    +0.004 A 
ATOM     17  C   LIG    1       22.277 -19.244   4.938  0.00  0.00    +0.000 A 
ATOM     18  C   LIG    1       23.014 -19.052   3.773  0.00  0.00    +0.000 A 
ATOM     19  C   LIG    1       24.211 -19.738   3.587  0.00  0.00    +0.000 A 
ATOM     20  C   LIG    1       24.672 -20.620   4.567  0.00  0.00    +0.004 A 
ENDBRANCH   5  15
TORSDOF 1
ENDMDL
