MODEL 1
REMARK VINA RESULT:      -7.2      0.000      0.000
REMARK  Name = *****
REMARK                            x       y       z     vdW  Elec       q    Type
REMARK                         _______ _______ _______ _____ _____    ______ ____
ROOT
ATOM      1  C   LIG    1       25.928 -20.279   9.075  0.00  0.00    +0.158 C 
ATOM      2  N   LIG    1       26.767 -21.161   8.216  0.00  0.00    -0.198 N 
ATOM      3  S   LIG    1       25.894 -22.321   7.306  0.00  0.00    +0.076 S 
ATOM      4  O   LIG    1       24.638 -22.618   7.946  0.00  0.00    -0.150 OA
ATOM      5  O   LIG    1       26.816 -23.345   6.861  0.00  0.00    -0.150 OA
ATOM      6  C   LIG    1       25.473 -21.499   5.863  0.00  0.00    +0.128 A 
ATOM      7  C   LIG    1       26.275 -20.446   5.477  0.00  0.00    +0.084 A 
ATOM      8  S   LIG    1       25.666 -19.774   4.015  0.00  0.00    -0.072 S 
ATOM      9  C   LIG    1       24.430 -20.934   3.923  0.00  0.00    +0.081 A 
ATOM     10 CL   LIG    1       23.355 -20.934   2.583  0.00  0.00    -0.076 Cl
ATOM     11  C   LIG    1       27.465 -20.018   6.151  0.00  0.00    +0.160 C 
ATOM     12  C   LIG    1       24.412 -21.810   4.977  0.00  0.00    +0.057 A 
ATOM     13  C   LIG    1       27.749 -20.431   7.412  0.00  0.00    +0.155 C 
ENDROOT
BRANCH  13  14
ATOM     14  C   LIG    1       29.064 -20.089   8.063  0.00  0.00    +0.269 C 
ATOM     15  N   LIG    1       29.197 -18.736   8.287  0.00  0.00    -0.265 N 
ATOM     16  H   LIG    1       28.400 -18.159   8.051  0.00  0.00    +0.157 HD
ATOM     17  O   LIG    1       29.835 -20.994   8.369  0.00  0.00    -0.268 OA
BRANCH  15  18
ATOM     18  C   LIG    1       30.278 -18.119   8.926  0.00  0.00    +0.125 A 
ATOM     19  N   LIG    1       31.424 -17.901   8.260  0.00  0.00    -0.240 NA
ATOM     20  C   LIG    1       32.454 -17.346   8.937  0.00  0.00    +0.113 A 
ATOM     21  C   LIG    1       32.395 -16.990  10.272  0.00  0.00    +0.020 A 
ATOM     22  C   LIG    1       31.200 -17.199  10.945  0.00  0.00    +0.005 A 
ATOM     23  C   LIG    1       30.120 -17.759  10.262  0.00  0.00    +0.044 A 
ENDBRANCH  15  18
ENDBRANCH  13  14
BRANCH  11  24
ATOM     24  O   LIG    1       28.312 -19.248   5.378  0.00  0.00    -0.504 OA
ATOM     25  H   LIG    1       28.172 -18.298   5.603  0.00  0.00    +0.292 HD
ENDBRANCH  11  24
TORSDOF 3
ENDMDL
MODEL 2
REMARK VINA RESULT:      -6.8      4.487      7.789
REMARK  Name = *****
REMARK                            x       y       z     vdW  Elec       q    Type
REMARK                         _______ _______ _______ _____ _____    ______ ____
ROOT
ATOM      1  C   LIG    1       26.943 -22.383   7.491  0.00  0.00    +0.158 C 
ATOM      2  N   LIG    1       25.566 -22.944   7.400  0.00  0.00    -0.198 N 
ATOM      3  S   LIG    1       24.309 -21.812   7.672  0.00  0.00    +0.076 S 
ATOM      4  O   LIG    1       24.785 -20.721   8.483  0.00  0.00    -0.150 OA
ATOM      5  O   LIG    1       23.090 -22.538   7.963  0.00  0.00    -0.150 OA
ATOM      6  C   LIG    1       24.014 -21.124   6.132  0.00  0.00    +0.128 A 
ATOM      7  C   LIG    1       24.341 -21.882   5.027  0.00  0.00    +0.084 A 
ATOM      8  S   LIG    1       23.966 -20.998   3.600  0.00  0.00    -0.072 S 
ATOM      9  C   LIG    1       23.331 -19.701   4.494  0.00  0.00    +0.081 A 
ATOM     10 CL   LIG    1       22.655 -18.350   3.678  0.00  0.00    -0.076 Cl
ATOM     11  C   LIG    1       24.852 -23.220   5.060  0.00  0.00    +0.160 C 
ATOM     12  C   LIG    1       23.418 -19.870   5.851  0.00  0.00    +0.057 A 
ATOM     13  C   LIG    1       25.345 -23.759   6.204  0.00  0.00    +0.155 C 
ENDROOT
BRANCH  13  14
ATOM     14  C   LIG    1       25.754 -25.208   6.266  0.00  0.00    +0.269 C 
ATOM     15  N   LIG    1       24.677 -26.043   6.473  0.00  0.00    -0.265 N 
ATOM     16  H   LIG    1       23.765 -25.606   6.498  0.00  0.00    +0.157 HD
ATOM     17  O   LIG    1       26.930 -25.508   6.085  0.00  0.00    -0.268 OA
BRANCH  15  18
ATOM     18  C   LIG    1       24.728 -27.440   6.520  0.00  0.00    +0.125 A 
ATOM     19  N   LIG    1       25.180 -28.066   7.619  0.00  0.00    -0.240 NA
ATOM     20  C   LIG    1       25.254 -29.415   7.595  0.00  0.00    +0.113 A 
ATOM     21  C   LIG    1       24.892 -30.187   6.506  0.00  0.00    +0.020 A 
ATOM     22  C   LIG    1       24.405 -29.533   5.383  0.00  0.00    +0.005 A 
ATOM     23  C   LIG    1       24.308 -28.141   5.391  0.00  0.00    +0.044 A 
ENDBRANCH  15  18
ENDBRANCH  13  14
BRANCH  11  24
ATOM     24  O   LIG    1       24.709 -23.915   3.874  0.00  0.00    -0.504 OA
ATOM     25  H   LIG    1       25.586 -23.964   3.427  0.00  0.00    +0.292 HD
ENDBRANCH  11  24
TORSDOF 3
ENDMDL
MODEL 3
REMARK VINA RESULT:      -6.4      2.361      3.334
REMARK  Name = *****
REMARK                            x       y       z     vdW  Elec       q    Type
REMARK                         _______ _______ _______ _____ _____    ______ ____
ROOT
ATOM      1  C   LIG    1       25.465 -20.139   4.406  0.00  0.00    +0.158 C 
ATOM      2  N   LIG    1       25.509 -20.278   5.889  0.00  0.00    -0.198 N 
ATOM      3  S   LIG    1       24.167 -21.091   6.576  0.00  0.00    +0.076 S 
ATOM      4  O   LIG    1       23.016 -20.973   5.717  0.00  0.00    -0.150 OA
ATOM      5  O   LIG    1       24.127 -20.798   7.993  0.00  0.00    -0.150 OA
ATOM      6  C   LIG    1       24.597 -22.748   6.516  0.00  0.00    +0.128 A 
ATOM      7  C   LIG    1       25.941 -23.052   6.499  0.00  0.00    +0.084 A 
ATOM      8  S   LIG    1       26.136 -24.761   6.435  0.00  0.00    -0.072 S 
ATOM      9  C   LIG    1       24.460 -25.018   6.504  0.00  0.00    +0.081 A 
ATOM     10 CL   LIG    1       23.841 -26.619   6.540  0.00  0.00    -0.076 Cl
ATOM     11  C   LIG    1       27.009 -22.102   6.584  0.00  0.00    +0.160 C 
ATOM     12  C   LIG    1       23.723 -23.863   6.535  0.00  0.00    +0.057 A 
ATOM     13  C   LIG    1       26.791 -20.776   6.391  0.00  0.00    +0.155 C 
ENDROOT
BRANCH  13  14
ATOM     14  C   LIG    1       27.888 -19.767   6.617  0.00  0.00    +0.269 C 
ATOM     15  N   LIG    1       28.507 -19.938   7.837  0.00  0.00    -0.265 N 
ATOM     16  H   LIG    1       28.203 -20.728   8.391  0.00  0.00    +0.157 HD
ATOM     17  O   LIG    1       28.157 -18.964   5.730  0.00  0.00    -0.268 OA
BRANCH  15  18
ATOM     18  C   LIG    1       29.595 -19.196   8.308  0.00  0.00    +0.125 A 
ATOM     19  N   LIG    1       29.467 -18.422   9.399  0.00  0.00    -0.240 NA
ATOM     20  C   LIG    1       30.534 -17.689   9.784  0.00  0.00    +0.113 A 
ATOM     21  C   LIG    1       31.748 -17.688   9.121  0.00  0.00    +0.020 A 
ATOM     22  C   LIG    1       31.877 -18.507   8.008  0.00  0.00    +0.005 A 
ATOM     23  C   LIG    1       30.791 -19.282   7.601  0.00  0.00    +0.044 A 
ENDBRANCH  15  18
ENDBRANCH  13  14
BRANCH  11  24
ATOM     24  O   LIG    1       28.223 -22.640   6.967  0.00  0.00    -0.504 OA
ATOM     25  H   LIG    1       28.197 -22.825   7.935  0.00  0.00    +0.292 HD
ENDBRANCH  11  24
TORSDOF 3
ENDMDL
MODEL 4
REMARK VINA RESULT:      -6.1      4.486      7.782
REMARK  Name = *****
REMARK                            x       y       z     vdW  Elec       q    Type
REMARK                         _______ _______ _______ _____ _____    ______ ____
ROOT
ATOM      1  C   LIG    1       22.993 -21.349   6.942  0.00  0.00    +0.158 C 
ATOM      2  N   LIG    1       23.698 -21.968   5.784  0.00  0.00    -0.198 N 
ATOM      3  S   LIG    1       24.319 -20.854   4.640  0.00  0.00    +0.076 S 
ATOM      4  O   LIG    1       23.575 -19.621   4.687  0.00  0.00    -0.150 OA
ATOM      5  O   LIG    1       24.594 -21.563   3.409  0.00  0.00    -0.150 OA
ATOM      6  C   LIG    1       25.875 -20.456   5.236  0.00  0.00    +0.128 A 
ATOM      7  C   LIG    1       26.498 -21.382   6.045  0.00  0.00    +0.084 A 
ATOM      8  S   LIG    1       28.035 -20.774   6.525  0.00  0.00    -0.072 S 
ATOM      9  C   LIG    1       27.838 -19.366   5.596  0.00  0.00    +0.081 A 
ATOM     10 CL   LIG    1       29.100 -18.203   5.529  0.00  0.00    -0.076 Cl
ATOM     11  C   LIG    1       25.979 -22.673   6.383  0.00  0.00    +0.160 C 
ATOM     12  C   LIG    1       26.631 -19.293   4.950  0.00  0.00    +0.057 A 
ATOM     13  C   LIG    1       24.675 -22.987   6.172  0.00  0.00    +0.155 C 
ENDROOT
BRANCH  13  14
ATOM     14  C   LIG    1       24.166 -24.387   6.400  0.00  0.00    +0.269 C 
ATOM     15  N   LIG    1       25.117 -25.340   6.101  0.00  0.00    -0.265 N 
ATOM     16  H   LIG    1       26.030 -24.998   5.831  0.00  0.00    +0.157 HD
ATOM     17  O   LIG    1       23.038 -24.549   6.856  0.00  0.00    -0.268 OA
BRANCH  15  18
ATOM     18  C   LIG    1       24.963 -26.721   6.264  0.00  0.00    +0.125 A 
ATOM     19  N   LIG    1       24.189 -27.421   5.420  0.00  0.00    -0.240 NA
ATOM     20  C   LIG    1       24.036 -28.744   5.650  0.00  0.00    +0.113 A 
ATOM     21  C   LIG    1       24.629 -29.416   6.703  0.00  0.00    +0.020 A 
ATOM     22  C   LIG    1       25.445 -28.688   7.558  0.00  0.00    +0.005 A 
ATOM     23  C   LIG    1       25.626 -27.323   7.331  0.00  0.00    +0.044 A 
ENDBRANCH  15  18
ENDBRANCH  13  14
BRANCH  11  24
ATOM     24  O   LIG    1       26.928 -23.569   6.838  0.00  0.00    -0.504 OA
ATOM     25  H   LIG    1       26.864 -24.397   6.307  0.00  0.00    +0.292 HD
ENDBRANCH  11  24
TORSDOF 3
ENDMDL
MODEL 5
REMARK VINA RESULT:      -5.5      9.143     10.926
REMARK  Name = *****
REMARK                            x       y       z     vdW  Elec       q    Type
REMARK                         _______ _______ _______ _____ _____    ______ ____
ROOT
ATOM      1  C   LIG    1       23.193 -30.554   9.021  0.00  0.00    +0.158 C 
ATOM      2  N   LIG    1       24.524 -30.849   8.422  0.00  0.00    -0.198 N 
ATOM      3  S   LIG    1       24.601 -30.676   6.719  0.00  0.00    +0.076 S 
ATOM      4  O   LIG    1       23.293 -30.850   6.139  0.00  0.00    -0.150 OA
ATOM      5  O   LIG    1       25.776 -31.371   6.238  0.00  0.00    -0.150 OA
ATOM      6  C   LIG    1       24.977 -29.023   6.476  0.00  0.00    +0.128 A 
ATOM      7  C   LIG    1       25.638 -28.368   7.493  0.00  0.00    +0.084 A 
ATOM      8  S   LIG    1       25.908 -26.732   7.035  0.00  0.00    -0.072 S 
ATOM      9  C   LIG    1       25.213 -26.979   5.506  0.00  0.00    +0.081 A 
ATOM     10 CL   LIG    1       25.172 -25.694   4.368  0.00  0.00    -0.076 Cl
ATOM     11  C   LIG    1       26.087 -28.969   8.714  0.00  0.00    +0.160 C 
ATOM     12  C   LIG    1       24.735 -28.249   5.315  0.00  0.00    +0.057 A 
ATOM     13  C   LIG    1       25.634 -30.186   9.109  0.00  0.00    +0.155 C 
ENDROOT
BRANCH  13  14
ATOM     14  C   LIG    1       26.211 -30.874  10.320  0.00  0.00    +0.269 C 
ATOM     15  N   LIG    1       26.060 -30.121  11.465  0.00  0.00    -0.265 N 
ATOM     16  H   LIG    1       25.546 -29.254  11.372  0.00  0.00    +0.157 HD
ATOM     17  O   LIG    1       26.687 -31.998  10.202  0.00  0.00    -0.268 OA
BRANCH  15  18
ATOM     18  C   LIG    1       26.441 -30.514  12.753  0.00  0.00    +0.125 A 
ATOM     19  N   LIG    1       27.626 -30.131  13.256  0.00  0.00    -0.240 NA
ATOM     20  C   LIG    1       27.966 -30.577  14.485  0.00  0.00    +0.113 A 
ATOM     21  C   LIG    1       27.167 -31.404  15.253  0.00  0.00    +0.020 A 
ATOM     22  C   LIG    1       25.934 -31.776  14.734  0.00  0.00    +0.005 A 
ATOM     23  C   LIG    1       25.558 -31.316  13.471  0.00  0.00    +0.044 A 
ENDBRANCH  15  18
ENDBRANCH  13  14
BRANCH  11  24
ATOM     24  O   LIG    1       27.066 -28.254   9.376  0.00  0.00    -0.504 OA
ATOM     25  H   LIG    1       27.083 -28.537  10.320  0.00  0.00    +0.292 HD
ENDBRANCH  11  24
TORSDOF 3
ENDMDL
MODEL 6
REMARK VINA RESULT:      -5.3      9.661     11.942
REMARK  Name = *****
REMARK                            x       y       z     vdW  Elec       q    Type
REMARK                         _______ _______ _______ _____ _____    ______ ____
ROOT
ATOM      1  C   LIG    1       26.608 -32.102   8.202  0.00  0.00    +0.158 C 
ATOM      2  N   LIG    1       25.291 -31.433   8.391  0.00  0.00    -0.198 N 
ATOM      3  S   LIG    1       24.036 -32.459   8.946  0.00  0.00    +0.076 S 
ATOM      4  O   LIG    1       24.307 -33.825   8.580  0.00  0.00    -0.150 OA
ATOM      5  O   LIG    1       22.766 -31.810   8.693  0.00  0.00    -0.150 OA
ATOM      6  C   LIG    1       24.179 -32.420  10.653  0.00  0.00    +0.128 A 
ATOM      7  C   LIG    1       24.768 -31.307  11.213  0.00  0.00    +0.084 A 
ATOM      8  S   LIG    1       24.808 -31.486  12.924  0.00  0.00    -0.072 S 
ATOM      9  C   LIG    1       23.993 -32.973  12.851  0.00  0.00    +0.081 A 
ATOM     10 CL   LIG    1       23.592 -33.801  14.301  0.00  0.00    -0.076 Cl
ATOM     11  C   LIG    1       25.218 -30.153  10.493  0.00  0.00    +0.160 C 
ATOM     12  C   LIG    1       23.711 -33.388  11.575  0.00  0.00    +0.057 A 
ATOM     13  C   LIG    1       25.375 -30.180   9.145  0.00  0.00    +0.155 C 
ENDROOT
BRANCH  13  14
ATOM     14  C   LIG    1       25.716 -28.929   8.377  0.00  0.00    +0.269 C 
ATOM     15  N   LIG    1       24.983 -28.817   7.215  0.00  0.00    -0.265 N 
ATOM     16  H   LIG    1       24.286 -29.532   7.050  0.00  0.00    +0.157 HD
ATOM     17  O   LIG    1       26.526 -28.138   8.849  0.00  0.00    -0.268 OA
BRANCH  15  18
ATOM     18  C   LIG    1       25.033 -27.741   6.322  0.00  0.00    +0.125 A 
ATOM     19  N   LIG    1       25.878 -27.764   5.279  0.00  0.00    -0.240 NA
ATOM     20  C   LIG    1       25.922 -26.680   4.474  0.00  0.00    +0.113 A 
ATOM     21  C   LIG    1       25.148 -25.550   4.663  0.00  0.00    +0.020 A 
ATOM     22  C   LIG    1       24.262 -25.543   5.732  0.00  0.00    +0.005 A 
ATOM     23  C   LIG    1       24.192 -26.659   6.567  0.00  0.00    +0.044 A 
ENDBRANCH  15  18
ENDBRANCH  13  14
BRANCH  11  24
ATOM     24  O   LIG    1       25.377 -29.022  11.269  0.00  0.00    -0.504 OA
ATOM     25  H   LIG    1       24.521 -28.819  11.714  0.00  0.00    +0.292 HD
ENDBRANCH  11  24
TORSDOF 3
ENDMDL
MODEL 7
REMARK VINA RESULT:      -5.2      1.883      2.450
REMARK  Name = *****
REMARK                            x       y       z     vdW  Elec       q    Type
REMARK                         _______ _______ _______ _____ _____    ______ ____
ROOT
ATOM      1  C   LIG    1       24.929 -21.579   8.721  0.00  0.00    +0.158 C 
ATOM      2  N   LIG    1       25.363 -22.081   7.387  0.00  0.00    -0.198 N 
ATOM      3  S   LIG    1       24.122 -22.799   6.450  0.00  0.00    +0.076 S 
ATOM      4  O   LIG    1       23.076 -23.301   7.304  0.00  0.00    -0.150 OA
ATOM      5  O   LIG    1       24.734 -23.591   5.404  0.00  0.00    -0.150 OA
ATOM      6  C   LIG    1       23.414 -21.488   5.606  0.00  0.00    +0.128 A 
ATOM      7  C   LIG    1       24.201 -20.378   5.386  0.00  0.00    +0.084 A 
ATOM      8  S   LIG    1       23.290 -19.195   4.531  0.00  0.00    -0.072 S 
ATOM      9  C   LIG    1       21.939 -20.218   4.428  0.00  0.00    +0.081 A 
ATOM     10 CL   LIG    1       20.535 -19.698   3.589  0.00  0.00    -0.076 Cl
ATOM     11  C   LIG    1       25.580 -20.251   5.755  0.00  0.00    +0.160 C 
ATOM     12  C   LIG    1       22.112 -21.427   5.051  0.00  0.00    +0.057 A 
ATOM     13  C   LIG    1       26.158 -21.113   6.629  0.00  0.00    +0.155 C 
ENDROOT
BRANCH  13  14
ATOM     14  C   LIG    1       27.638 -21.060   6.908  0.00  0.00    +0.269 C 
ATOM     15  N   LIG    1       28.040 -19.817   7.347  0.00  0.00    -0.265 N 
ATOM     16  H   LIG    1       27.310 -19.129   7.483  0.00  0.00    +0.157 HD
ATOM     17  O   LIG    1       28.310 -22.079   6.780  0.00  0.00    -0.268 OA
BRANCH  15  18
ATOM     18  C   LIG    1       29.338 -19.472   7.739  0.00  0.00    +0.125 A 
ATOM     19  N   LIG    1       29.588 -19.101   9.005  0.00  0.00    -0.240 NA
ATOM     20  C   LIG    1       30.849 -18.733   9.320  0.00  0.00    +0.113 A 
ATOM     21  C   LIG    1       31.895 -18.716   8.416  0.00  0.00    +0.020 A 
ATOM     22  C   LIG    1       31.632 -19.122   7.115  0.00  0.00    +0.005 A 
ATOM     23  C   LIG    1       30.338 -19.518   6.772  0.00  0.00    +0.044 A 
ENDBRANCH  15  18
ENDBRANCH  13  14
BRANCH  11  24
ATOM     24  O   LIG    1       26.261 -19.256   5.081  0.00  0.00    -0.504 OA
ATOM     25  H   LIG    1       25.778 -18.405   5.197  0.00  0.00    +0.292 HD
ENDBRANCH  11  24
TORSDOF 3
ENDMDL
MODEL 8
REMARK VINA RESULT:      -5.2      9.851     11.271
REMARK  Name = *****
REMARK                            x       y       z     vdW  Elec       q    Type
REMARK                         _______ _______ _______ _____ _____    ______ ____
ROOT
ATOM      1  C   LIG    1       26.296 -28.212   8.425  0.00  0.00    +0.158 C 
ATOM      2  N   LIG    1       25.411 -29.356   8.780  0.00  0.00    -0.198 N 
ATOM      3  S   LIG    1       24.481 -29.976   7.481  0.00  0.00    +0.076 S 
ATOM      4  O   LIG    1       24.281 -28.961   6.479  0.00  0.00    -0.150 OA
ATOM      5  O   LIG    1       23.400 -30.770   8.027  0.00  0.00    -0.150 OA
ATOM      6  C   LIG    1       25.503 -31.135   6.742  0.00  0.00    +0.128 A 
ATOM      7  C   LIG    1       26.478 -31.712   7.528  0.00  0.00    +0.084 A 
ATOM      8  S   LIG    1       27.379 -32.833   6.584  0.00  0.00    -0.072 S 
ATOM      9  C   LIG    1       26.407 -32.561   5.219  0.00  0.00    +0.081 A 
ATOM     10 CL   LIG    1       26.693 -33.446   3.775  0.00  0.00    -0.076 Cl
ATOM     11  C   LIG    1       26.671 -31.465   8.926  0.00  0.00    +0.160 C 
ATOM     12  C   LIG    1       25.431 -31.618   5.413  0.00  0.00    +0.057 A 
ATOM     13  C   LIG    1       26.090 -30.405   9.543  0.00  0.00    +0.155 C 
ENDROOT
BRANCH  13  14
ATOM     14  C   LIG    1       26.185 -30.228  11.036  0.00  0.00    +0.269 C 
ATOM     15  N   LIG    1       27.418 -29.752  11.426  0.00  0.00    -0.265 N 
ATOM     16  H   LIG    1       28.070 -29.528  10.686  0.00  0.00    +0.157 HD
ATOM     17  O   LIG    1       25.199 -30.458  11.731  0.00  0.00    -0.268 OA
BRANCH  15  18
ATOM     18  C   LIG    1       27.790 -29.433  12.736  0.00  0.00    +0.125 A 
ATOM     19  N   LIG    1       28.560 -30.274  13.446  0.00  0.00    -0.240 NA
ATOM     20  C   LIG    1       28.850 -29.941  14.723  0.00  0.00    +0.113 A 
ATOM     21  C   LIG    1       28.401 -28.788  15.340  0.00  0.00    +0.020 A 
ATOM     22  C   LIG    1       27.624 -27.915  14.592  0.00  0.00    +0.005 A 
ATOM     23  C   LIG    1       27.323 -28.233  13.267  0.00  0.00    +0.044 A 
ENDBRANCH  15  18
ENDBRANCH  13  14
BRANCH  11  24
ATOM     24  O   LIG    1       27.405 -32.437   9.580  0.00  0.00    -0.504 OA
ATOM     25  H   LIG    1       27.269 -33.299   9.121  0.00  0.00    +0.292 HD
ENDBRANCH  11  24
TORSDOF 3
ENDMDL
MODEL 9
REMARK VINA RESULT:      -5.1      4.792      6.998
REMARK  Name = *****
REMARK                            x       y       z     vdW  Elec       q    Type
REMARK                         _______ _______ _______ _____ _____    ______ ____
ROOT
ATOM      1  C   LIG    1       23.319 -20.595   6.729  0.00  0.00    +0.158 C 
ATOM      2  N   LIG    1       23.967 -21.182   5.523  0.00  0.00    -0.198 N 
ATOM      3  S   LIG    1       23.810 -20.247   4.095  0.00  0.00    +0.076 S 
ATOM      4  O   LIG    1       22.642 -19.409   4.172  0.00  0.00    -0.150 OA
ATOM      5  O   LIG    1       24.102 -21.093   2.957  0.00  0.00    -0.150 OA
ATOM      6  C   LIG    1       25.137 -19.165   4.148  0.00  0.00    +0.128 A 
ATOM      7  C   LIG    1       26.245 -19.557   4.870  0.00  0.00    +0.084 A 
ATOM      8  S   LIG    1       27.442 -18.324   4.788  0.00  0.00    -0.072 S 
ATOM      9  C   LIG    1       26.483 -17.374   3.757  0.00  0.00    +0.081 A 
ATOM     10 CL   LIG    1       27.091 -15.886   3.154  0.00  0.00    -0.076 Cl
ATOM     11  C   LIG    1       26.401 -20.818   5.533  0.00  0.00    +0.160 C 
ATOM     12  C   LIG    1       25.255 -17.919   3.486  0.00  0.00    +0.057 A 
ATOM     13  C   LIG    1       25.340 -21.633   5.758  0.00  0.00    +0.155 C 
ENDROOT
BRANCH  13  14
ATOM     14  C   LIG    1       25.529 -23.014   6.330  0.00  0.00    +0.269 C 
ATOM     15  N   LIG    1       25.179 -24.000   5.432  0.00  0.00    -0.265 N 
ATOM     16  H   LIG    1       24.902 -23.693   4.509  0.00  0.00    +0.157 HD
ATOM     17  O   LIG    1       26.002 -23.138   7.455  0.00  0.00    -0.268 OA
BRANCH  15  18
ATOM     18  C   LIG    1       25.297 -25.377   5.649  0.00  0.00    +0.125 A 
ATOM     19  N   LIG    1       26.481 -25.990   5.490  0.00  0.00    -0.240 NA
ATOM     20  C   LIG    1       26.530 -27.329   5.665  0.00  0.00    +0.113 A 
ATOM     21  C   LIG    1       25.434 -28.103   5.999  0.00  0.00    +0.020 A 
ATOM     22  C   LIG    1       24.219 -27.458   6.184  0.00  0.00    +0.005 A 
ATOM     23  C   LIG    1       24.149 -26.074   6.020  0.00  0.00    +0.044 A 
ENDBRANCH  15  18
ENDBRANCH  13  14
BRANCH  11  24
ATOM     24  O   LIG    1       27.711 -21.151   5.821  0.00  0.00    -0.504 OA
ATOM     25  H   LIG    1       28.255 -21.031   5.009  0.00  0.00    +0.292 HD
ENDBRANCH  11  24
TORSDOF 3
ENDMDL
