MODEL 1
REMARK VINA RESULT:      -8.6      0.000      0.000
REMARK  Name = *****
REMARK                            x       y       z     vdW  Elec       q    Type
REMARK                         _______ _______ _______ _____ _____    ______ ____
ROOT
ATOM      1  C   LIG    1       23.278 -19.040   4.075  0.00  0.00    +0.000 A 
ATOM      2  C   LIG    1       22.810 -19.775   5.164  0.00  0.00    +0.004 A 
ATOM      3  C   LIG    1       23.683 -20.574   5.919  0.00  0.00    -0.043 A 
ATOM      4  C   LIG    1       23.129 -21.360   7.080  0.00  0.00    +0.035 C 
ATOM      5  C   LIG    1       24.035 -22.518   7.487  0.00  0.00    +0.006 C 
ATOM      6  C   LIG    1       25.457 -22.016   7.695  0.00  0.00    +0.020 C 
ATOM      7  C   LIG    1       26.042 -21.443   6.394  0.00  0.00    +0.134 C 
ATOM      8  C   LIG    1       25.054 -20.597   5.599  0.00  0.00    -0.030 A 
ATOM      9  C   LIG    1       25.504 -19.875   4.479  0.00  0.00    +0.005 A 
ATOM     10  C   LIG    1       24.623 -19.097   3.728  0.00  0.00    +0.000 A 
ENDROOT
BRANCH   7  11
ATOM     11  C   LIG    1       27.306 -20.673   6.754  0.00  0.00    +0.288 C 
ATOM     12  N   LIG    1       28.289 -20.404   5.828  0.00  0.00    -0.233 N 
ATOM     13  H   LIG    1       28.408 -21.084   5.084  0.00  0.00    +0.291 HD
ATOM     14  C   LIG    1       29.463 -19.984   6.553  0.00  0.00    +0.272 C 
ATOM     15  C   LIG    1       28.845 -19.567   7.892  0.00  0.00    +0.333 C 
ATOM     16  N   LIG    1       27.521 -20.248   7.975  0.00  0.00    -0.083 NA
ENDBRANCH   7  11
TORSDOF 1
ENDMDL
MODEL 2
REMARK VINA RESULT:      -8.3      2.773      4.164
REMARK  Name = *****
REMARK                            x       y       z     vdW  Elec       q    Type
REMARK                         _______ _______ _______ _____ _____    ______ ____
ROOT
ATOM      1  C   LIG    1       25.150 -19.821   3.697  0.00  0.00    +0.000 A 
ATOM      2  C   LIG    1       25.961 -19.707   4.825  0.00  0.00    +0.004 A 
ATOM      3  C   LIG    1       25.848 -20.619   5.886  0.00  0.00    -0.043 A 
ATOM      4  C   LIG    1       26.738 -20.449   7.091  0.00  0.00    +0.035 C 
ATOM      5  C   LIG    1       26.197 -21.165   8.324  0.00  0.00    +0.006 C 
ATOM      6  C   LIG    1       25.877 -22.613   7.985  0.00  0.00    +0.020 C 
ATOM      7  C   LIG    1       24.780 -22.706   6.911  0.00  0.00    +0.134 C 
ATOM      8  C   LIG    1       24.934 -21.686   5.789  0.00  0.00    -0.030 A 
ATOM      9  C   LIG    1       24.102 -21.769   4.658  0.00  0.00    +0.005 A 
ATOM     10  C   LIG    1       24.215 -20.847   3.618  0.00  0.00    +0.000 A 
ENDROOT
BRANCH   7  11
ATOM     11  C   LIG    1       24.757 -24.138   6.394  0.00  0.00    +0.288 C 
ATOM     12  N   LIG    1       25.842 -24.709   5.769  0.00  0.00    -0.233 N 
ATOM     13  H   LIG    1       26.444 -24.082   5.245  0.00  0.00    +0.291 HD
ATOM     14  C   LIG    1       25.381 -25.909   5.112  0.00  0.00    +0.272 C 
ATOM     15  C   LIG    1       24.082 -26.179   5.877  0.00  0.00    +0.333 C 
ATOM     16  N   LIG    1       23.685 -24.886   6.505  0.00  0.00    -0.083 NA
ENDBRANCH   7  11
TORSDOF 1
ENDMDL
MODEL 3
REMARK VINA RESULT:      -7.8      2.175      3.503
REMARK  Name = *****
REMARK                            x       y       z     vdW  Elec       q    Type
REMARK                         _______ _______ _______ _____ _____    ______ ____
ROOT
ATOM      1  C   LIG    1       24.664 -25.607   5.995  0.00  0.00    +0.000 A 
ATOM      2  C   LIG    1       23.743 -24.562   5.937  0.00  0.00    +0.004 A 
ATOM      3  C   LIG    1       24.014 -23.332   6.556  0.00  0.00    -0.043 A 
ATOM      4  C   LIG    1       22.984 -22.234   6.477  0.00  0.00    +0.035 C 
ATOM      5  C   LIG    1       23.172 -21.176   7.560  0.00  0.00    +0.006 C 
ATOM      6  C   LIG    1       24.611 -20.682   7.558  0.00  0.00    +0.020 C 
ATOM      7  C   LIG    1       25.593 -21.819   7.885  0.00  0.00    +0.134 C 
ATOM      8  C   LIG    1       25.249 -23.139   7.205  0.00  0.00    -0.030 A 
ATOM      9  C   LIG    1       26.153 -24.214   7.281  0.00  0.00    +0.005 A 
ATOM     10  C   LIG    1       25.865 -25.436   6.674  0.00  0.00    +0.000 A 
ENDROOT
BRANCH   7  11
ATOM     11  C   LIG    1       26.995 -21.336   7.539  0.00  0.00    +0.288 C 
ATOM     12  N   LIG    1       27.294 -20.764   6.323  0.00  0.00    -0.233 N 
ATOM     13  H   LIG    1       26.750 -21.082   5.527  0.00  0.00    +0.291 HD
ATOM     14  C   LIG    1       28.731 -20.746   6.194  0.00  0.00    +0.272 C 
ATOM     15  C   LIG    1       29.156 -20.885   7.659  0.00  0.00    +0.333 C 
ATOM     16  N   LIG    1       27.989 -21.465   8.384  0.00  0.00    -0.083 NA
ENDBRANCH   7  11
TORSDOF 1
ENDMDL
MODEL 4
REMARK VINA RESULT:      -7.6      2.332      4.584
REMARK  Name = *****
REMARK                            x       y       z     vdW  Elec       q    Type
REMARK                         _______ _______ _______ _____ _____    ______ ____
ROOT
ATOM      1  C   LIG    1       27.268 -21.819   7.880  0.00  0.00    +0.000 A 
ATOM      2  C   LIG    1       26.506 -22.941   7.554  0.00  0.00    +0.004 A 
ATOM      3  C   LIG    1       25.183 -22.804   7.109  0.00  0.00    -0.043 A 
ATOM      4  C   LIG    1       24.394 -24.046   6.779  0.00  0.00    +0.035 C 
ATOM      5  C   LIG    1       22.888 -23.802   6.789  0.00  0.00    +0.006 C 
ATOM      6  C   LIG    1       22.551 -22.600   5.918  0.00  0.00    +0.020 C 
ATOM      7  C   LIG    1       23.203 -21.318   6.461  0.00  0.00    +0.134 C 
ATOM      8  C   LIG    1       24.633 -21.517   6.948  0.00  0.00    -0.030 A 
ATOM      9  C   LIG    1       25.404 -20.399   7.311  0.00  0.00    +0.005 A 
ATOM     10  C   LIG    1       26.714 -20.549   7.766  0.00  0.00    +0.000 A 
ENDROOT
BRANCH   7  11
ATOM     11  C   LIG    1       23.103 -20.252   5.378  0.00  0.00    +0.288 C 
ATOM     12  N   LIG    1       23.829 -20.323   4.211  0.00  0.00    -0.233 N 
ATOM     13  H   LIG    1       24.733 -20.782   4.267  0.00  0.00    +0.291 HD
ATOM     14  C   LIG    1       23.770 -19.024   3.585  0.00  0.00    +0.272 C 
ATOM     15  C   LIG    1       22.532 -18.429   4.264  0.00  0.00    +0.333 C 
ATOM     16  N   LIG    1       22.330 -19.203   5.523  0.00  0.00    -0.083 NA
ENDBRANCH   7  11
TORSDOF 1
ENDMDL
MODEL 5
REMARK VINA RESULT:      -7.2      2.428      4.651
REMARK  Name = *****
REMARK                            x       y       z     vdW  Elec       q    Type
REMARK                         _______ _______ _______ _____ _____    ______ ____
ROOT
ATOM      1  C   LIG    1       25.091 -25.398   6.198  0.00  0.00    +0.000 A 
ATOM      2  C   LIG    1       25.584 -24.686   7.291  0.00  0.00    +0.004 A 
ATOM      3  C   LIG    1       25.772 -23.297   7.217  0.00  0.00    -0.043 A 
ATOM      4  C   LIG    1       26.317 -22.571   8.421  0.00  0.00    +0.035 C 
ATOM      5  C   LIG    1       26.918 -21.215   8.063  0.00  0.00    +0.006 C 
ATOM      6  C   LIG    1       25.922 -20.406   7.244  0.00  0.00    +0.020 C 
ATOM      7  C   LIG    1       25.596 -21.102   5.913  0.00  0.00    +0.134 C 
ATOM      8  C   LIG    1       25.418 -22.611   6.039  0.00  0.00    -0.030 A 
ATOM      9  C   LIG    1       24.952 -23.348   4.936  0.00  0.00    +0.005 A 
ATOM     10  C   LIG    1       24.784 -24.731   5.018  0.00  0.00    +0.000 A 
ENDROOT
BRANCH   7  11
ATOM     11  C   LIG    1       24.370 -20.421   5.320  0.00  0.00    +0.288 C 
ATOM     12  N   LIG    1       24.387 -19.836   4.075  0.00  0.00    -0.233 N 
ATOM     13  H   LIG    1       25.273 -19.446   3.770  0.00  0.00    +0.291 HD
ATOM     14  C   LIG    1       23.213 -19.005   3.971  0.00  0.00    +0.272 C 
ATOM     15  C   LIG    1       22.329 -19.610   5.066  0.00  0.00    +0.333 C 
ATOM     16  N   LIG    1       23.244 -20.345   5.987  0.00  0.00    -0.083 NA
ENDBRANCH   7  11
TORSDOF 1
ENDMDL
MODEL 6
REMARK VINA RESULT:      -7.1      2.923      4.669
REMARK  Name = *****
REMARK                            x       y       z     vdW  Elec       q    Type
REMARK                         _______ _______ _______ _____ _____    ______ ____
ROOT
ATOM      1  C   LIG    1       27.370 -20.533   8.457  0.00  0.00    +0.000 A 
ATOM      2  C   LIG    1       25.986 -20.374   8.520  0.00  0.00    +0.004 A 
ATOM      3  C   LIG    1       25.141 -21.104   7.670  0.00  0.00    -0.043 A 
ATOM      4  C   LIG    1       23.651 -20.890   7.766  0.00  0.00    +0.035 C 
ATOM      5  C   LIG    1       22.913 -21.345   6.511  0.00  0.00    +0.006 C 
ATOM      6  C   LIG    1       23.318 -22.769   6.158  0.00  0.00    +0.020 C 
ATOM      7  C   LIG    1       24.818 -22.860   5.837  0.00  0.00    +0.134 C 
ATOM      8  C   LIG    1       25.695 -22.039   6.775  0.00  0.00    -0.030 A 
ATOM      9  C   LIG    1       27.095 -22.164   6.702  0.00  0.00    +0.005 A 
ATOM     10  C   LIG    1       27.924 -21.421   7.543  0.00  0.00    +0.000 A 
ENDROOT
BRANCH   7  11
ATOM     11  C   LIG    1       25.203 -24.334   5.827  0.00  0.00    +0.288 C 
ATOM     12  N   LIG    1       25.029 -25.128   4.717  0.00  0.00    -0.233 N 
ATOM     13  H   LIG    1       24.252 -24.892   4.108  0.00  0.00    +0.291 HD
ATOM     14  C   LIG    1       25.160 -26.501   5.142  0.00  0.00    +0.272 C 
ATOM     15  C   LIG    1       25.922 -26.326   6.460  0.00  0.00    +0.333 C 
ATOM     16  N   LIG    1       25.700 -24.916   6.891  0.00  0.00    -0.083 NA
ENDBRANCH   7  11
TORSDOF 1
ENDMDL
MODEL 7
REMARK VINA RESULT:      -6.6      2.022      4.018
REMARK  Name = *****
REMARK                            x       y       z     vdW  Elec       q    Type
REMARK                         _______ _______ _______ _____ _____    ______ ____
ROOT
ATOM      1  C   LIG    1       24.889 -21.575   7.531  0.00  0.00    +0.000 A 
ATOM      2  C   LIG    1       25.340 -21.075   6.309  0.00  0.00    +0.004 A 
ATOM      3  C   LIG    1       26.554 -20.377   6.224  0.00  0.00    -0.043 A 
ATOM      4  C   LIG    1       26.995 -19.845   4.884  0.00  0.00    +0.035 C 
ATOM      5  C   LIG    1       28.027 -18.729   5.009  0.00  0.00    +0.006 C 
ATOM      6  C   LIG    1       29.170 -19.177   5.909  0.00  0.00    +0.020 C 
ATOM      7  C   LIG    1       28.675 -19.473   7.334  0.00  0.00    +0.134 C 
ATOM      8  C   LIG    1       27.346 -20.217   7.378  0.00  0.00    -0.030 A 
ATOM      9  C   LIG    1       26.861 -20.700   8.607  0.00  0.00    +0.005 A 
ATOM     10  C   LIG    1       25.646 -21.380   8.680  0.00  0.00    +0.000 A 
ENDROOT
BRANCH   7  11
ATOM     11  C   LIG    1       29.782 -20.221   8.065  0.00  0.00    +0.288 C 
ATOM     12  N   LIG    1       30.020 -21.560   7.859  0.00  0.00    -0.233 N 
ATOM     13  H   LIG    1       29.217 -22.131   7.616  0.00  0.00    +0.291 HD
ATOM     14  C   LIG    1       30.874 -22.017   8.929  0.00  0.00    +0.272 C 
ATOM     15  C   LIG    1       31.470 -20.692   9.412  0.00  0.00    +0.333 C 
ATOM     16  N   LIG    1       30.548 -19.618   8.942  0.00  0.00    -0.083 NA
ENDBRANCH   7  11
TORSDOF 1
ENDMDL
MODEL 8
REMARK VINA RESULT:      -6.0      8.028      9.770
REMARK  Name = *****
REMARK                            x       y       z     vdW  Elec       q    Type
REMARK                         _______ _______ _______ _____ _____    ______ ____
ROOT
ATOM      1  C   LIG    1       25.441 -26.088   5.805  0.00  0.00    +0.000 A 
ATOM      2  C   LIG    1       26.048 -26.521   6.983  0.00  0.00    +0.004 A 
ATOM      3  C   LIG    1       25.776 -27.795   7.503  0.00  0.00    -0.043 A 
ATOM      4  C   LIG    1       26.448 -28.216   8.786  0.00  0.00    +0.035 C 
ATOM      5  C   LIG    1       25.721 -29.367   9.476  0.00  0.00    +0.006 C 
ATOM      6  C   LIG    1       25.493 -30.503   8.489  0.00  0.00    +0.020 C 
ATOM      7  C   LIG    1       24.595 -30.058   7.324  0.00  0.00    +0.134 C 
ATOM      8  C   LIG    1       24.914 -28.662   6.803  0.00  0.00    -0.030 A 
ATOM      9  C   LIG    1       24.286 -28.198   5.633  0.00  0.00    +0.005 A 
ATOM     10  C   LIG    1       24.554 -26.923   5.135  0.00  0.00    +0.000 A 
ENDROOT
BRANCH   7  11
ATOM     11  C   LIG    1       24.689 -31.119   6.234  0.00  0.00    +0.288 C 
ATOM     12  N   LIG    1       23.597 -31.851   5.829  0.00  0.00    -0.233 N 
ATOM     13  H   LIG    1       22.886 -32.032   6.531  0.00  0.00    +0.291 HD
ATOM     14  C   LIG    1       24.087 -32.971   5.062  0.00  0.00    +0.272 C 
ATOM     15  C   LIG    1       25.482 -32.470   4.675  0.00  0.00    +0.333 C 
ATOM     16  N   LIG    1       25.828 -31.394   5.648  0.00  0.00    -0.083 NA
ENDBRANCH   7  11
TORSDOF 1
ENDMDL
MODEL 9
REMARK VINA RESULT:      -5.9      7.695      9.822
REMARK  Name = *****
REMARK                            x       y       z     vdW  Elec       q    Type
REMARK                         _______ _______ _______ _____ _____    ______ ____
ROOT
ATOM      1  C   LIG    1       27.381 -30.110  10.203  0.00  0.00    +0.000 A 
ATOM      2  C   LIG    1       26.866 -31.164   9.450  0.00  0.00    +0.004 A 
ATOM      3  C   LIG    1       25.898 -30.933   8.461  0.00  0.00    -0.043 A 
ATOM      4  C   LIG    1       25.361 -32.105   7.678  0.00  0.00    +0.035 C 
ATOM      5  C   LIG    1       24.020 -31.803   7.018  0.00  0.00    +0.006 C 
ATOM      6  C   LIG    1       24.115 -30.511   6.219  0.00  0.00    +0.020 C 
ATOM      7  C   LIG    1       24.430 -29.313   7.129  0.00  0.00    +0.134 C 
ATOM      8  C   LIG    1       25.474 -29.615   8.198  0.00  0.00    -0.030 A 
ATOM      9  C   LIG    1       25.981 -28.568   8.988  0.00  0.00    +0.005 A 
ATOM     10  C   LIG    1       26.932 -28.814   9.978  0.00  0.00    +0.000 A 
ENDROOT
BRANCH   7  11
ATOM     11  C   LIG    1       24.835 -28.146   6.238  0.00  0.00    +0.288 C 
ATOM     12  N   LIG    1       25.935 -28.201   5.413  0.00  0.00    -0.233 N 
ATOM     13  H   LIG    1       26.709 -28.777   5.729  0.00  0.00    +0.291 HD
ATOM     14  C   LIG    1       26.226 -26.853   4.990  0.00  0.00    +0.272 C 
ATOM     15  C   LIG    1       24.881 -26.168   5.251  0.00  0.00    +0.333 C 
ATOM     16  N   LIG    1       24.157 -27.024   6.235  0.00  0.00    -0.083 NA
ENDBRANCH   7  11
TORSDOF 1
ENDMDL
