MODEL 1
REMARK VINA RESULT:      -7.0      0.000      0.000
REMARK  Name = *****
REMARK                            x       y       z     vdW  Elec       q    Type
REMARK                         _______ _______ _______ _____ _____    ______ ____
ROOT
ATOM      1  C   LIG    1       24.511 -30.875   8.511  0.00  0.00    +0.134 C 
ATOM      2  C   LIG    1       24.682 -29.497   9.179  0.00  0.00    +0.079 C 
ATOM      3  C   LIG    1       24.427 -29.560  10.697  0.00  0.00    +0.158 C 
ATOM      4  C   LIG    1       22.998 -30.007  10.901  0.00  0.00    +0.030 A 
ATOM      5  C   LIG    1       22.503 -31.085  10.150  0.00  0.00    +0.007 A 
ATOM      6  C   LIG    1       21.283 -31.662  10.520  0.00  0.00    +0.132 A 
ATOM      7  C   LIG    1       20.525 -31.137  11.575  0.00  0.00    +0.078 A 
ATOM      8  C   LIG    1       19.300 -31.816  12.010  0.00  0.00    +0.198 C 
ATOM      9  O   LIG    1       18.905 -32.801  11.395  0.00  0.00    -0.286 OA
ATOM     10  C   LIG    1       18.581 -31.333  13.198  0.00  0.00    +0.037 A 
ATOM     11  C   LIG    1       18.931 -30.124  13.805  0.00  0.00    +0.075 A 
ATOM     12  C   LIG    1       18.199 -29.689  14.926  0.00  0.00    +0.132 A 
ATOM     13  C   LIG    1       17.140 -30.474  15.406  0.00  0.00    +0.046 A 
ATOM     14  C   LIG    1       16.822 -31.691  14.806  0.00  0.00    +0.004 A 
ATOM     15  C   LIG    1       20.094 -29.368  13.267  0.00  0.00    +0.202 C 
ATOM     16  O   LIG    1       20.407 -28.248  13.661  0.00  0.00    -0.286 OA
ATOM     17  C   LIG    1       17.540 -32.121  13.699  0.00  0.00    +0.012 A 
ATOM     18  C   LIG    1       20.943 -29.979  12.220  0.00  0.00    +0.078 A 
ATOM     19  C   LIG    1       22.182 -29.415  11.878  0.00  0.00    +0.135 A 
ATOM     20  C   LIG    1       23.220 -31.609   8.923  0.00  0.00    +0.082 C 
ENDROOT
BRANCH   1  21
ATOM     21  O   LIG    1       25.607 -31.714   8.929  0.00  0.00    -0.381 OA
ATOM     22  H   LIG    1       25.303 -32.230   9.703  0.00  0.00    +0.211 HD
ENDBRANCH   1  21
BRANCH  19  23
ATOM     23  O   LIG    1       22.653 -28.280  12.483  0.00  0.00    -0.506 OA
ATOM     24  H   LIG    1       21.891 -27.696  12.708  0.00  0.00    +0.292 HD
ENDBRANCH  19  23
BRANCH   6  25
ATOM     25  O   LIG    1       20.879 -32.761   9.805  0.00  0.00    -0.506 OA
ATOM     26  H   LIG    1       19.921 -32.918   9.976  0.00  0.00    +0.292 HD
ENDBRANCH   6  25
BRANCH  12  27
ATOM     27  O   LIG    1       18.519 -28.480  15.482  0.00  0.00    -0.494 OA
ATOM     28  C   LIG    1       17.554 -27.443  15.347  0.00  0.00    +0.277 C 
ENDBRANCH  12  27
BRANCH   1  29
ATOM     29  C   LIG    1       24.590 -30.747   6.957  0.00  0.00    +0.202 C 
ATOM     30  O   LIG    1       23.974 -31.511   6.206  0.00  0.00    -0.291 OA
BRANCH  29  31
ATOM     31  C   LIG    1       25.436 -29.597   6.364  0.00  0.00    +0.309 C 
BRANCH  31  32
ATOM     32  O   LIG    1       24.633 -28.499   5.917  0.00  0.00    -0.457 OA
BRANCH  32  33
ATOM     33  C   LIG    1       25.138 -27.289   6.192  0.00  0.00    +0.307 C 
ATOM     34  O   LIG    1       26.124 -27.094   6.925  0.00  0.00    -0.251 OA
BRANCH  33  35
ATOM     35  C   LIG    1       24.316 -26.189   5.588  0.00  0.00    +0.120 C 
BRANCH  35  36
ATOM     36  C   LIG    1       25.051 -24.855   5.386  0.00  0.00    +0.011 C 
BRANCH  36  38
ATOM     37  C   LIG    1       23.086 -23.936   6.743  0.00  0.00    +0.004 C 
ATOM     38  C   LIG    1       24.541 -23.754   6.322  0.00  0.00    -0.003 C 
ENDBRANCH  36  38
ENDBRANCH  35  36
ENDBRANCH  33  35
ENDBRANCH  32  33
ENDBRANCH  31  32
ENDBRANCH  29  31
ENDBRANCH   1  29
BRANCH   3  39
ATOM     39  O   LIG    1       25.331 -30.524  11.282  0.00  0.00    -0.343 OA
BRANCH  39  40
ATOM     40  C   LIG    1       25.961 -30.102  12.510  0.00  0.00    +0.253 C 
ATOM     41  O   LIG    1       25.566 -28.783  12.846  0.00  0.00    -0.346 OA
ATOM     42  C   LIG    1       26.194 -28.257  14.017  0.00  0.00    +0.148 C 
ATOM     43  C   LIG    1       25.827 -29.025  15.293  0.00  0.00    +0.040 C 
ATOM     44  C   LIG    1       27.705 -28.117  13.780  0.00  0.00    +0.163 C 
ATOM     45  C   LIG    1       28.332 -29.459  13.330  0.00  0.00    +0.109 C 
ATOM     46  C   LIG    1       27.473 -30.173  12.274  0.00  0.00    +0.086 C 
BRANCH  45  47
ATOM     47  N   LIG    1       29.685 -29.252  12.771  0.00  0.00    -0.302 N 
ATOM     48  H   LIG    1       29.787 -28.611  11.984  0.00  0.00    +0.149 HD
ATOM     49  C   LIG    1       30.860 -29.680  13.378  0.00  0.00    +0.318 C 
ATOM     50  O   LIG    1       30.842 -30.279  14.454  0.00  0.00    -0.266 OA
BRANCH  49  51
ATOM     51  C   LIG    1       32.162 -29.311  12.620  0.00  0.00    +0.469 C 
ATOM     52  F   LIG    1       33.024 -30.354  12.506  0.00  0.00    -0.162 F 
ATOM     53  F   LIG    1       32.839 -28.297  13.223  0.00  0.00    -0.162 F 
ATOM     54  F   LIG    1       31.898 -28.886  11.348  0.00  0.00    -0.162 F 
ENDBRANCH  49  51
ENDBRANCH  45  47
BRANCH  44  55
ATOM     55  O   LIG    1       28.319 -27.596  14.958  0.00  0.00    -0.387 OA
ATOM     56  H   LIG    1       28.558 -26.659  14.796  0.00  0.00    +0.210 HD
ENDBRANCH  44  55
ENDBRANCH  39  40
ENDBRANCH   3  39
TORSDOF 16
ENDMDL
MODEL 2
REMARK VINA RESULT:      -5.8      2.640      3.366
REMARK  Name = *****
REMARK                            x       y       z     vdW  Elec       q    Type
REMARK                         _______ _______ _______ _____ _____    ______ ____
ROOT
ATOM      1  C   LIG    1       25.424 -30.660   7.244  0.00  0.00    +0.134 C 
ATOM      2  C   LIG    1       25.387 -29.378   8.098  0.00  0.00    +0.079 C 
ATOM      3  C   LIG    1       25.153 -29.688   9.589  0.00  0.00    +0.158 C 
ATOM      4  C   LIG    1       23.809 -30.369   9.707  0.00  0.00    +0.030 A 
ATOM      5  C   LIG    1       23.479 -31.395   8.808  0.00  0.00    +0.007 A 
ATOM      6  C   LIG    1       22.364 -32.196   9.075  0.00  0.00    +0.132 A 
ATOM      7  C   LIG    1       21.540 -31.941  10.181  0.00  0.00    +0.078 A 
ATOM      8  C   LIG    1       20.434 -32.851  10.499  0.00  0.00    +0.198 C 
ATOM      9  O   LIG    1       20.190 -33.790   9.749  0.00  0.00    -0.286 OA
ATOM     10  C   LIG    1       19.657 -32.651  11.730  0.00  0.00    +0.037 A 
ATOM     11  C   LIG    1       19.822 -31.498  12.503  0.00  0.00    +0.075 A 
ATOM     12  C   LIG    1       19.038 -31.337  13.661  0.00  0.00    +0.132 A 
ATOM     13  C   LIG    1       18.114 -32.332  14.012  0.00  0.00    +0.046 A 
ATOM     14  C   LIG    1       17.980 -33.489  13.246  0.00  0.00    +0.004 A 
ATOM     15  C   LIG    1       20.854 -30.508  12.091  0.00  0.00    +0.202 C 
ATOM     16  O   LIG    1       20.995 -29.419  12.641  0.00  0.00    -0.286 OA
ATOM     17  C   LIG    1       18.750 -33.649  12.102  0.00  0.00    +0.012 A 
ATOM     18  C   LIG    1       21.781 -30.833  10.985  0.00  0.00    +0.078 A 
ATOM     19  C   LIG    1       22.918 -30.048  10.743  0.00  0.00    +0.135 A 
ATOM     20  C   LIG    1       24.261 -31.631   7.532  0.00  0.00    +0.082 C 
ENDROOT
BRANCH   1  21
ATOM     21  O   LIG    1       26.637 -31.374   7.562  0.00  0.00    -0.381 OA
ATOM     22  H   LIG    1       26.984 -31.007   8.399  0.00  0.00    +0.211 HD
ENDBRANCH   1  21
BRANCH  19  23
ATOM     23  O   LIG    1       23.214 -28.949  11.505  0.00  0.00    -0.506 OA
ATOM     24  H   LIG    1       24.160 -28.708  11.367  0.00  0.00    +0.292 HD
ENDBRANCH  19  23
BRANCH   6  25
ATOM     25  O   LIG    1       22.127 -33.234   8.210  0.00  0.00    -0.506 OA
ATOM     26  H   LIG    1       21.167 -33.251   7.987  0.00  0.00    +0.292 HD
ENDBRANCH   6  25
BRANCH  12  27
ATOM     27  O   LIG    1       19.174 -30.183  14.383  0.00  0.00    -0.494 OA
ATOM     28  C   LIG    1       17.974 -29.486  14.699  0.00  0.00    +0.277 C 
ENDBRANCH  12  27
BRANCH   1  29
ATOM     29  C   LIG    1       25.475 -30.309   5.725  0.00  0.00    +0.202 C 
ATOM     30  O   LIG    1       25.216 -31.145   4.852  0.00  0.00    -0.291 OA
BRANCH  29  31
ATOM     31  C   LIG    1       25.819 -28.856   5.325  0.00  0.00    +0.309 C 
BRANCH  31  32
ATOM     32  O   LIG    1       24.731 -27.953   5.548  0.00  0.00    -0.457 OA
BRANCH  32  33
ATOM     33  C   LIG    1       25.096 -26.734   5.971  0.00  0.00    +0.307 C 
ATOM     34  O   LIG    1       26.178 -26.483   6.529  0.00  0.00    -0.251 OA
BRANCH  33  35
ATOM     35  C   LIG    1       24.002 -25.725   5.777  0.00  0.00    +0.120 C 
BRANCH  35  36
ATOM     36  C   LIG    1       24.285 -24.331   6.358  0.00  0.00    +0.011 C 
BRANCH  36  38
ATOM     37  C   LIG    1       23.143 -22.080   6.777  0.00  0.00    +0.004 C 
ATOM     38  C   LIG    1       23.006 -23.600   6.782  0.00  0.00    -0.003 C 
ENDBRANCH  36  38
ENDBRANCH  35  36
ENDBRANCH  33  35
ENDBRANCH  32  33
ENDBRANCH  31  32
ENDBRANCH  29  31
ENDBRANCH   1  29
BRANCH   3  39
ATOM     39  O   LIG    1       26.196 -30.576  10.050  0.00  0.00    -0.343 OA
BRANCH  39  40
ATOM     40  C   LIG    1       26.382 -30.605  11.481  0.00  0.00    +0.253 C 
ATOM     41  O   LIG    1       25.225 -31.108  12.126  0.00  0.00    -0.346 OA
ATOM     42  C   LIG    1       25.295 -31.112  13.553  0.00  0.00    +0.148 C 
ATOM     43  C   LIG    1       26.384 -32.043  14.100  0.00  0.00    +0.040 C 
ATOM     44  C   LIG    1       25.382 -29.669  14.074  0.00  0.00    +0.163 C 
ATOM     45  C   LIG    1       26.565 -28.908  13.429  0.00  0.00    +0.109 C 
ATOM     46  C   LIG    1       26.662 -29.162  11.917  0.00  0.00    +0.086 C 
BRANCH  45  47
ATOM     47  N   LIG    1       26.443 -27.451  13.651  0.00  0.00    -0.302 N 
ATOM     48  H   LIG    1       27.279 -26.877  13.548  0.00  0.00    +0.149 HD
ATOM     49  C   LIG    1       25.235 -26.771  13.761  0.00  0.00    +0.318 C 
ATOM     50  O   LIG    1       24.159 -27.364  13.677  0.00  0.00    -0.266 OA
BRANCH  49  51
ATOM     51  C   LIG    1       25.361 -25.237  13.951  0.00  0.00    +0.469 C 
ATOM     52  F   LIG    1       24.342 -24.545  13.377  0.00  0.00    -0.162 F 
ATOM     53  F   LIG    1       26.519 -24.747  13.430  0.00  0.00    -0.162 F 
ATOM     54  F   LIG    1       25.365 -24.894  15.274  0.00  0.00    -0.162 F 
ENDBRANCH  49  51
ENDBRANCH  45  47
BRANCH  44  55
ATOM     55  O   LIG    1       25.457 -29.688  15.499  0.00  0.00    -0.387 OA
ATOM     56  H   LIG    1       24.548 -29.629  15.859  0.00  0.00    +0.210 HD
ENDBRANCH  44  55
ENDBRANCH  39  40
ENDBRANCH   3  39
TORSDOF 16
ENDMDL
MODEL 3
REMARK VINA RESULT:      -4.3      3.667      8.168
REMARK  Name = *****
REMARK                            x       y       z     vdW  Elec       q    Type
REMARK                         _______ _______ _______ _____ _____    ______ ____
ROOT
ATOM      1  C   LIG    1       21.405 -31.355  14.516  0.00  0.00    +0.134 C 
ATOM      2  C   LIG    1       22.440 -32.435  14.888  0.00  0.00    +0.079 C 
ATOM      3  C   LIG    1       23.838 -32.106  14.330  0.00  0.00    +0.158 C 
ATOM      4  C   LIG    1       23.727 -32.061  12.824  0.00  0.00    +0.030 A 
ATOM      5  C   LIG    1       22.655 -31.372  12.235  0.00  0.00    +0.007 A 
ATOM      6  C   LIG    1       22.694 -31.106  10.862  0.00  0.00    +0.132 A 
ATOM      7  C   LIG    1       23.746 -31.576  10.065  0.00  0.00    +0.078 A 
ATOM      8  C   LIG    1       23.818 -31.202   8.648  0.00  0.00    +0.198 C 
ATOM      9  O   LIG    1       22.914 -30.541   8.151  0.00  0.00    -0.286 OA
ATOM     10  C   LIG    1       24.991 -31.591   7.851  0.00  0.00    +0.037 A 
ATOM     11  C   LIG    1       25.944 -32.476   8.362  0.00  0.00    +0.075 A 
ATOM     12  C   LIG    1       27.038 -32.840   7.554  0.00  0.00    +0.132 A 
ATOM     13  C   LIG    1       27.146 -32.308   6.260  0.00  0.00    +0.046 A 
ATOM     14  C   LIG    1       26.201 -31.405   5.775  0.00  0.00    +0.004 A 
ATOM     15  C   LIG    1       25.785 -32.962   9.759  0.00  0.00    +0.202 C 
ATOM     16  O   LIG    1       26.507 -33.823  10.255  0.00  0.00    -0.286 OA
ATOM     17  C   LIG    1       25.121 -31.047   6.569  0.00  0.00    +0.012 A 
ATOM     18  C   LIG    1       24.730 -32.385  10.620  0.00  0.00    +0.078 A 
ATOM     19  C   LIG    1       24.716 -32.626  12.002  0.00  0.00    +0.135 A 
ATOM     20  C   LIG    1       21.433 -30.955  13.028  0.00  0.00    +0.082 C 
ENDROOT
BRANCH   1  21
ATOM     21  O   LIG    1       21.717 -30.161  15.264  0.00  0.00    -0.381 OA
ATOM     22  H   LIG    1       22.235 -30.432  16.048  0.00  0.00    +0.211 HD
ENDBRANCH   1  21
BRANCH  19  23
ATOM     23  O   LIG    1       25.663 -33.407  12.611  0.00  0.00    -0.506 OA
ATOM     24  H   LIG    1       25.742 -34.258  12.119  0.00  0.00    +0.292 HD
ENDBRANCH  19  23
BRANCH   6  25
ATOM     25  O   LIG    1       21.661 -30.364  10.348  0.00  0.00    -0.506 OA
ATOM     26  H   LIG    1       21.581 -29.528  10.865  0.00  0.00    +0.292 HD
ENDBRANCH   6  25
BRANCH  12  27
ATOM     27  O   LIG    1       27.938 -33.744   8.047  0.00  0.00    -0.494 OA
ATOM     28  C   LIG    1       29.191 -33.824   7.375  0.00  0.00    +0.277 C 
ENDBRANCH  12  27
BRANCH   1  29
ATOM     29  C   LIG    1       19.969 -31.803  14.931  0.00  0.00    +0.202 C 
ATOM     30  O   LIG    1       19.695 -32.986  15.161  0.00  0.00    -0.291 OA
BRANCH  29  31
ATOM     31  C   LIG    1       18.886 -30.712  15.096  0.00  0.00    +0.309 C 
BRANCH  31  32
ATOM     32  O   LIG    1       18.447 -30.181  13.842  0.00  0.00    -0.457 OA
BRANCH  32  33
ATOM     33  C   LIG    1       17.382 -30.801  13.316  0.00  0.00    +0.307 C 
ATOM     34  O   LIG    1       16.210 -30.615  13.688  0.00  0.00    -0.251 OA
BRANCH  33  35
ATOM     35  C   LIG    1       17.779 -31.819  12.288  0.00  0.00    +0.120 C 
BRANCH  35  36
ATOM     36  C   LIG    1       17.927 -31.283  10.856  0.00  0.00    +0.011 C 
BRANCH  36  38
ATOM     37  C   LIG    1       19.374 -33.386  10.666  0.00  0.00    +0.004 C 
ATOM     38  C   LIG    1       18.980 -32.048  10.046  0.00  0.00    -0.003 C 
ENDBRANCH  36  38
ENDBRANCH  35  36
ENDBRANCH  33  35
ENDBRANCH  32  33
ENDBRANCH  31  32
ENDBRANCH  29  31
ENDBRANCH   1  29
BRANCH   3  39
ATOM     39  O   LIG    1       24.249 -30.815  14.832  0.00  0.00    -0.343 OA
BRANCH  39  40
ATOM     40  C   LIG    1       25.027 -30.023  13.910  0.00  0.00    +0.253 C 
ATOM     41  O   LIG    1       26.411 -30.276  14.078  0.00  0.00    -0.346 OA
ATOM     42  C   LIG    1       27.264 -29.484  13.249  0.00  0.00    +0.148 C 
ATOM     43  C   LIG    1       27.078 -29.765  11.752  0.00  0.00    +0.040 C 
ATOM     44  C   LIG    1       27.133 -28.002  13.631  0.00  0.00    +0.163 C 
ATOM     45  C   LIG    1       25.659 -27.534  13.575  0.00  0.00    +0.109 C 
ATOM     46  C   LIG    1       24.703 -28.556  14.209  0.00  0.00    +0.086 C 
BRANCH  45  47
ATOM     47  N   LIG    1       25.487 -26.239  14.268  0.00  0.00    -0.302 N 
ATOM     48  H   LIG    1       25.332 -26.250  15.275  0.00  0.00    +0.149 HD
ATOM     49  C   LIG    1       25.751 -24.999  13.695  0.00  0.00    +0.318 C 
ATOM     50  O   LIG    1       26.157 -24.905  12.536  0.00  0.00    -0.266 OA
BRANCH  49  51
ATOM     51  C   LIG    1       25.534 -23.784  14.633  0.00  0.00    +0.469 C 
ATOM     52  F   LIG    1       25.290 -22.630  13.960  0.00  0.00    -0.162 F 
ATOM     53  F   LIG    1       26.607 -23.556  15.438  0.00  0.00    -0.162 F 
ATOM     54  F   LIG    1       24.469 -23.979  15.468  0.00  0.00    -0.162 F 
ENDBRANCH  49  51
ENDBRANCH  45  47
BRANCH  44  55
ATOM     55  O   LIG    1       27.986 -27.224  12.792  0.00  0.00    -0.387 OA
ATOM     56  H   LIG    1       28.564 -26.673  13.360  0.00  0.00    +0.210 HD
ENDBRANCH  44  55
ENDBRANCH  39  40
ENDBRANCH   3  39
TORSDOF 16
ENDMDL
