MODEL 1
REMARK VINA RESULT:      -4.6      0.000      0.000
REMARK  Name = *****
REMARK                            x       y       z     vdW  Elec       q    Type
REMARK                         _______ _______ _______ _____ _____    ______ ____
ROOT
ATOM      1  C   LIG    1       24.506 -18.114   3.687  0.00  0.00    +0.105 C 
ATOM      2  N   LIG    1       23.745 -19.335   3.882  0.00  0.00    -0.298 NA
ATOM      3  C   LIG    1       24.523 -20.568   4.074  0.00  0.00    +0.088 C 
ATOM      4  C   LIG    1       23.435 -21.548   4.532  0.00  0.00    +0.025 C 
ATOM      5  C   LIG    1       22.350 -20.693   5.184  0.00  0.00    +0.017 C 
ATOM      6  C   LIG    1       22.778 -19.248   4.969  0.00  0.00    +0.085 C 
ENDROOT
BRANCH   3   7
ATOM      7  C   LIG    1       25.720 -20.473   5.001  0.00  0.00    -0.012 A 
ATOM      8  C   LIG    1       26.852 -19.707   4.731  0.00  0.00    +0.115 A 
ATOM      9  N   LIG    1       27.931 -19.613   5.544  0.00  0.00    -0.263 NA
ATOM     10  C   LIG    1       27.890 -20.322   6.692  0.00  0.00    +0.111 A 
ATOM     11  C   LIG    1       26.823 -21.119   7.062  0.00  0.00    +0.020 A 
ATOM     12  C   LIG    1       25.729 -21.194   6.204  0.00  0.00    +0.008 A 
ENDBRANCH   3   7
TORSDOF 1
ENDMDL
MODEL 2
REMARK VINA RESULT:      -4.3      0.896      1.428
REMARK  Name = *****
REMARK                            x       y       z     vdW  Elec       q    Type
REMARK                         _______ _______ _______ _____ _____    ______ ____
ROOT
ATOM      1  C   LIG    1       24.987 -18.221   3.325  0.00  0.00    +0.105 C 
ATOM      2  N   LIG    1       23.989 -19.220   3.660  0.00  0.00    -0.298 NA
ATOM      3  C   LIG    1       24.494 -20.538   4.075  0.00  0.00    +0.088 C 
ATOM      4  C   LIG    1       23.220 -21.197   4.618  0.00  0.00    +0.025 C 
ATOM      5  C   LIG    1       22.319 -20.053   5.076  0.00  0.00    +0.017 C 
ATOM      6  C   LIG    1       23.038 -18.774   4.671  0.00  0.00    +0.085 C 
ENDROOT
BRANCH   3   7
ATOM      7  C   LIG    1       25.666 -20.538   5.039  0.00  0.00    -0.012 A 
ATOM      8  C   LIG    1       25.725 -21.323   6.188  0.00  0.00    +0.115 A 
ATOM      9  N   LIG    1       26.761 -21.333   7.062  0.00  0.00    -0.263 NA
ATOM     10  C   LIG    1       27.798 -20.518   6.783  0.00  0.00    +0.111 A 
ATOM     11  C   LIG    1       27.848 -19.693   5.675  0.00  0.00    +0.020 A 
ATOM     12  C   LIG    1       26.768 -19.705   4.797  0.00  0.00    +0.008 A 
ENDBRANCH   3   7
TORSDOF 1
ENDMDL
MODEL 3
REMARK VINA RESULT:      -3.7      5.756      6.904
REMARK  Name = *****
REMARK                            x       y       z     vdW  Elec       q    Type
REMARK                         _______ _______ _______ _____ _____    ______ ____
ROOT
ATOM      1  C   LIG    1       24.842 -12.167   2.020  0.00  0.00    +0.105 C 
ATOM      2  N   LIG    1       24.494 -13.472   2.552  0.00  0.00    -0.298 NA
ATOM      3  C   LIG    1       25.615 -14.343   2.937  0.00  0.00    +0.088 C 
ATOM      4  C   LIG    1       24.888 -15.456   3.702  0.00  0.00    +0.025 C 
ATOM      5  C   LIG    1       23.610 -14.823   4.249  0.00  0.00    +0.017 C 
ATOM      6  C   LIG    1       23.573 -13.412   3.680  0.00  0.00    +0.085 C 
ENDROOT
BRANCH   3   7
ATOM      7  C   LIG    1       26.748 -13.686   3.702  0.00  0.00    -0.012 A 
ATOM      8  C   LIG    1       27.954 -13.300   3.121  0.00  0.00    +0.115 A 
ATOM      9  N   LIG    1       28.979 -12.715   3.789  0.00  0.00    -0.263 NA
ATOM     10  C   LIG    1       28.800 -12.503   5.109  0.00  0.00    +0.111 A 
ATOM     11  C   LIG    1       27.649 -12.848   5.792  0.00  0.00    +0.020 A 
ATOM     12  C   LIG    1       26.615 -13.447   5.078  0.00  0.00    +0.008 A 
ENDBRANCH   3   7
TORSDOF 1
ENDMDL
MODEL 4
REMARK VINA RESULT:      -3.4      1.767      2.261
REMARK  Name = *****
REMARK                            x       y       z     vdW  Elec       q    Type
REMARK                         _______ _______ _______ _____ _____    ______ ____
ROOT
ATOM      1  C   LIG    1       22.448 -18.277   4.331  0.00  0.00    +0.105 C 
ATOM      2  N   LIG    1       22.748 -19.683   4.529  0.00  0.00    -0.298 NA
ATOM      3  C   LIG    1       23.961 -20.194   3.871  0.00  0.00    +0.088 C 
ATOM      4  C   LIG    1       24.108 -21.572   4.529  0.00  0.00    +0.025 C 
ATOM      5  C   LIG    1       23.434 -21.458   5.895  0.00  0.00    +0.017 C 
ATOM      6  C   LIG    1       22.811 -20.070   5.933  0.00  0.00    +0.085 C 
ENDROOT
BRANCH   3   7
ATOM      7  C   LIG    1       25.196 -19.316   3.958  0.00  0.00    -0.012 A 
ATOM      8  C   LIG    1       25.335 -18.105   3.284  0.00  0.00    +0.115 A 
ATOM      9  N   LIG    1       26.432 -17.311   3.346  0.00  0.00    -0.263 NA
ATOM     10  C   LIG    1       27.451 -17.741   4.118  0.00  0.00    +0.111 A 
ATOM     11  C   LIG    1       27.426 -18.927   4.828  0.00  0.00    +0.020 A 
ATOM     12  C   LIG    1       26.285 -19.721   4.743  0.00  0.00    +0.008 A 
ENDBRANCH   3   7
TORSDOF 1
ENDMDL
MODEL 5
REMARK VINA RESULT:      -3.3      5.714      8.313
REMARK  Name = *****
REMARK                            x       y       z     vdW  Elec       q    Type
REMARK                         _______ _______ _______ _____ _____    ______ ____
ROOT
ATOM      1  C   LIG    1       25.725 -15.903   3.280  0.00  0.00    +0.105 C 
ATOM      2  N   LIG    1       26.938 -15.112   3.181  0.00  0.00    -0.298 NA
ATOM      3  C   LIG    1       26.813 -13.799   2.531  0.00  0.00    +0.088 C 
ATOM      4  C   LIG    1       28.165 -13.159   2.872  0.00  0.00    +0.025 C 
ATOM      5  C   LIG    1       28.629 -13.824   4.166  0.00  0.00    +0.017 C 
ATOM      6  C   LIG    1       27.603 -14.909   4.462  0.00  0.00    +0.085 C 
ENDROOT
BRANCH   3   7
ATOM      7  C   LIG    1       25.605 -12.967   2.916  0.00  0.00    -0.012 A 
ATOM      8  C   LIG    1       25.087 -12.904   4.207  0.00  0.00    +0.115 A 
ATOM      9  N   LIG    1       24.006 -12.169   4.569  0.00  0.00    -0.263 NA
ATOM     10  C   LIG    1       23.402 -11.458   3.595  0.00  0.00    +0.111 A 
ATOM     11  C   LIG    1       23.825 -11.448   2.279  0.00  0.00    +0.020 A 
ATOM     12  C   LIG    1       24.938 -12.212   1.939  0.00  0.00    +0.008 A 
ENDBRANCH   3   7
TORSDOF 1
ENDMDL
MODEL 6
REMARK VINA RESULT:      -2.9      4.260      6.628
REMARK  Name = *****
REMARK                            x       y       z     vdW  Elec       q    Type
REMARK                         _______ _______ _______ _____ _____    ______ ____
ROOT
ATOM      1  C   LIG    1       24.616 -13.113   1.845  0.00  0.00    +0.105 C 
ATOM      2  N   LIG    1       25.592 -13.013   2.914  0.00  0.00    -0.298 NA
ATOM      3  C   LIG    1       25.219 -13.620   4.201  0.00  0.00    +0.088 C 
ATOM      4  C   LIG    1       26.555 -13.588   4.954  0.00  0.00    +0.025 C 
ATOM      5  C   LIG    1       27.641 -13.610   3.880  0.00  0.00    +0.017 C 
ATOM      6  C   LIG    1       26.907 -13.525   2.549  0.00  0.00    +0.085 C 
ENDROOT
BRANCH   3   7
ATOM      7  C   LIG    1       24.561 -14.986   4.137  0.00  0.00    -0.012 A 
ATOM      8  C   LIG    1       25.196 -16.130   3.660  0.00  0.00    +0.115 A 
ATOM      9  N   LIG    1       24.624 -17.357   3.592  0.00  0.00    -0.263 NA
ATOM     10  C   LIG    1       23.348 -17.457   4.018  0.00  0.00    +0.111 A 
ATOM     11  C   LIG    1       22.619 -16.389   4.507  0.00  0.00    +0.020 A 
ATOM     12  C   LIG    1       23.235 -15.142   4.565  0.00  0.00    +0.008 A 
ENDBRANCH   3   7
TORSDOF 1
ENDMDL
MODEL 7
REMARK VINA RESULT:      -2.9      6.919      7.447
REMARK  Name = *****
REMARK                            x       y       z     vdW  Elec       q    Type
REMARK                         _______ _______ _______ _____ _____    ______ ____
ROOT
ATOM      1  C   LIG    1       24.610 -11.666   1.812  0.00  0.00    +0.105 C 
ATOM      2  N   LIG    1       23.950 -12.330   2.921  0.00  0.00    -0.298 NA
ATOM      3  C   LIG    1       24.601 -13.542   3.441  0.00  0.00    +0.088 C 
ATOM      4  C   LIG    1       23.818 -13.777   4.739  0.00  0.00    +0.025 C 
ATOM      5  C   LIG    1       23.303 -12.406   5.171  0.00  0.00    +0.017 C 
ATOM      6  C   LIG    1       23.690 -11.449   4.052  0.00  0.00    +0.085 C 
ENDROOT
BRANCH   3   7
ATOM      7  C   LIG    1       26.107 -13.479   3.613  0.00  0.00    -0.012 A 
ATOM      8  C   LIG    1       27.015 -13.680   2.576  0.00  0.00    +0.115 A 
ATOM      9  N   LIG    1       28.362 -13.631   2.712  0.00  0.00    -0.263 NA
ATOM     10  C   LIG    1       28.840 -13.371   3.946  0.00  0.00    +0.111 A 
ATOM     11  C   LIG    1       28.034 -13.159   5.049  0.00  0.00    +0.020 A 
ATOM     12  C   LIG    1       26.654 -13.216   4.877  0.00  0.00    +0.008 A 
ENDBRANCH   3   7
TORSDOF 1
ENDMDL
MODEL 8
REMARK VINA RESULT:      -2.6      4.264      6.010
REMARK  Name = *****
REMARK                            x       y       z     vdW  Elec       q    Type
REMARK                         _______ _______ _______ _____ _____    ______ ____
ROOT
ATOM      1  C   LIG    1       26.801 -13.367   5.618  0.00  0.00    +0.105 C 
ATOM      2  N   LIG    1       26.132 -13.072   4.364  0.00  0.00    -0.298 NA
ATOM      3  C   LIG    1       26.498 -13.911   3.213  0.00  0.00    +0.088 C 
ATOM      4  C   LIG    1       25.416 -13.524   2.196  0.00  0.00    +0.025 C 
ATOM      5  C   LIG    1       24.214 -13.063   3.019  0.00  0.00    +0.017 C 
ATOM      6  C   LIG    1       24.678 -13.075   4.469  0.00  0.00    +0.085 C 
ENDROOT
BRANCH   3   7
ATOM      7  C   LIG    1       26.617 -15.401   3.473  0.00  0.00    -0.012 A 
ATOM      8  C   LIG    1       27.728 -15.998   4.066  0.00  0.00    +0.115 A 
ATOM      9  N   LIG    1       27.853 -17.326   4.303  0.00  0.00    -0.263 NA
ATOM     10  C   LIG    1       26.821 -18.110   3.929  0.00  0.00    +0.111 A 
ATOM     11  C   LIG    1       25.672 -17.629   3.329  0.00  0.00    +0.020 A 
ATOM     12  C   LIG    1       25.573 -16.260   3.100  0.00  0.00    +0.008 A 
ENDBRANCH   3   7
TORSDOF 1
ENDMDL
MODEL 9
REMARK VINA RESULT:      -2.6      4.404      6.149
REMARK  Name = *****
REMARK                            x       y       z     vdW  Elec       q    Type
REMARK                         _______ _______ _______ _____ _____    ______ ____
ROOT
ATOM      1  C   LIG    1       26.570 -13.313   5.704  0.00  0.00    +0.105 C 
ATOM      2  N   LIG    1       25.958 -12.975   4.432  0.00  0.00    -0.298 NA
ATOM      3  C   LIG    1       26.410 -13.745   3.263  0.00  0.00    +0.088 C 
ATOM      4  C   LIG    1       25.371 -13.339   2.210  0.00  0.00    +0.025 C 
ATOM      5  C   LIG    1       24.114 -12.955   2.988  0.00  0.00    +0.017 C 
ATOM      6  C   LIG    1       24.501 -13.026   4.458  0.00  0.00    +0.085 C 
ENDROOT
BRANCH   3   7
ATOM      7  C   LIG    1       26.562 -15.242   3.457  0.00  0.00    -0.012 A 
ATOM      8  C   LIG    1       25.608 -16.176   3.060  0.00  0.00    +0.115 A 
ATOM      9  N   LIG    1       25.725 -17.515   3.229  0.00  0.00    -0.263 NA
ATOM     10  C   LIG    1       26.850 -17.956   3.829  0.00  0.00    +0.111 A 
ATOM     11  C   LIG    1       27.861 -17.122   4.268  0.00  0.00    +0.020 A 
ATOM     12  C   LIG    1       27.711 -15.751   4.079  0.00  0.00    +0.008 A 
ENDBRANCH   3   7
TORSDOF 1
ENDMDL
