MODEL 1
REMARK VINA RESULT:      -7.1      0.000      0.000
REMARK  Name = *****
REMARK                            x       y       z     vdW  Elec       q    Type
REMARK                         _______ _______ _______ _____ _____    ______ ____
ROOT
ATOM      1  C   LIG    1       25.420 -28.494  13.911  0.00  0.00    +0.042 C 
ATOM      2  C   LIG    1       25.529 -28.885  12.449  0.00  0.00    -0.034 C 
ATOM      3  C   LIG    1       26.918 -28.590  11.906  0.00  0.00    +0.103 C 
ATOM      4  S   LIG    1       27.003 -28.447  10.104  0.00  0.00    -0.131 S 
ATOM      5  C   LIG    1       26.048 -29.961   9.851  0.00  0.00    +0.169 C 
ATOM      6  N   LIG    1       24.727 -29.754  10.415  0.00  0.00    -0.249 N 
ATOM      7  C   LIG    1       24.033 -30.086   9.303  0.00  0.00    +0.244 C 
ATOM      8  O   LIG    1       22.848 -30.226   9.156  0.00  0.00    -0.273 OA
ATOM      9  CA  LIG    1       25.359 -30.133   8.461  0.00  0.00    +0.191 C 
ATOM     10  CA  LIG    1       24.502 -29.410  11.721  0.00  0.00    +0.122 C 
ENDROOT
BRANCH   9  11
ATOM     11  N   LIG    1       25.558 -29.034   7.483  0.00  0.00    -0.300 N 
ATOM     12  H   LIG    1       26.404 -28.462   7.511  0.00  0.00    +0.150 HD
ATOM     13  C   LIG    1       24.768 -28.854   6.366  0.00  0.00    +0.235 C 
ATOM     14  O   LIG    1       23.797 -29.570   6.134  0.00  0.00    -0.274 OA
BRANCH  13  15
ATOM     15  CA  LIG    1       25.227 -27.694   5.432  0.00  0.00    +0.168 C 
BRANCH  15  16
ATOM     16  C   LIG    1       24.988 -26.294   5.982  0.00  0.00    -0.022 A 
ATOM     17  C   LIG    1       26.082 -25.536   6.446  0.00  0.00    +0.006 A 
ATOM     18  C   LIG    1       25.907 -24.238   6.938  0.00  0.00    +0.000 A 
ATOM     19  C   LIG    1       24.635 -23.678   6.990  0.00  0.00    +0.000 A 
ATOM     20  C   LIG    1       23.536 -24.422   6.566  0.00  0.00    +0.000 A 
ATOM     21  C   LIG    1       23.709 -25.722   6.073  0.00  0.00    +0.006 A 
ENDBRANCH  15  16
BRANCH  15  22
ATOM     22  N   LIG    1       26.652 -27.883   5.046  0.00  0.00    -0.316 NA
ATOM     23  H1  LIG    1       27.127 -28.318   5.838  0.00  0.00    +0.119 HD
ATOM     24  H2  LIG    1       26.690 -28.584   4.305  0.00  0.00    +0.119 HD
ENDBRANCH  15  22
ENDBRANCH  13  15
ENDBRANCH   9  11
BRANCH  10  25
ATOM     25  C   LIG    1       23.135 -29.594  12.364  0.00  0.00    +0.351 C 
ATOM     26  O   LIG    1       22.295 -28.707  12.441  0.00  0.00    -0.244 OA
BRANCH  25  27
ATOM     27  OXT LIG    1       22.878 -30.786  12.932  0.00  0.00    -0.476 OA
ATOM     28  HXT LIG    1       22.985 -30.873  13.903  0.00  0.00    +0.295 HD
ENDBRANCH  25  27
ENDBRANCH  10  25
TORSDOF 6
ENDMDL
MODEL 2
REMARK VINA RESULT:      -7.0      2.624      3.990
REMARK  Name = *****
REMARK                            x       y       z     vdW  Elec       q    Type
REMARK                         _______ _______ _______ _____ _____    ______ ____
ROOT
ATOM      1  C   LIG    1       25.762 -32.104  10.040  0.00  0.00    +0.042 C 
ATOM      2  C   LIG    1       25.683 -30.955   9.052  0.00  0.00    -0.034 C 
ATOM      3  C   LIG    1       26.629 -29.831   9.443  0.00  0.00    +0.103 C 
ATOM      4  S   LIG    1       26.215 -28.221   8.728  0.00  0.00    -0.131 S 
ATOM      5  C   LIG    1       25.994 -28.913   7.074  0.00  0.00    +0.169 C 
ATOM      6  N   LIG    1       24.891 -29.855   7.129  0.00  0.00    -0.249 N 
ATOM      7  C   LIG    1       24.173 -29.307   6.122  0.00  0.00    +0.244 C 
ATOM      8  O   LIG    1       23.173 -29.711   5.590  0.00  0.00    -0.273 OA
ATOM      9  CA  LIG    1       25.144 -28.073   6.069  0.00  0.00    +0.191 C 
ATOM     10  CA  LIG    1       24.852 -30.934   7.970  0.00  0.00    +0.122 C 
ENDROOT
BRANCH   9  11
ATOM     11  N   LIG    1       24.603 -26.787   6.574  0.00  0.00    -0.300 N 
ATOM     12  H   LIG    1       24.092 -26.750   7.457  0.00  0.00    +0.150 HD
ATOM     13  C   LIG    1       24.933 -25.558   6.038  0.00  0.00    +0.235 C 
ATOM     14  O   LIG    1       25.663 -25.451   5.057  0.00  0.00    -0.274 OA
BRANCH  13  15
ATOM     15  CA  LIG    1       24.322 -24.340   6.795  0.00  0.00    +0.168 C 
BRANCH  15  16
ATOM     16  C   LIG    1       25.083 -23.032   6.628  0.00  0.00    -0.022 A 
ATOM     17  C   LIG    1       26.243 -22.801   7.393  0.00  0.00    +0.006 A 
ATOM     18  C   LIG    1       26.981 -21.621   7.252  0.00  0.00    +0.000 A 
ATOM     19  C   LIG    1       26.566 -20.642   6.356  0.00  0.00    +0.000 A 
ATOM     20  C   LIG    1       25.404 -20.836   5.613  0.00  0.00    +0.000 A 
ATOM     21  C   LIG    1       24.663 -22.017   5.752  0.00  0.00    +0.006 A 
ENDBRANCH  15  16
BRANCH  15  22
ATOM     22  N   LIG    1       22.889 -24.178   6.428  0.00  0.00    -0.316 NA
ATOM     23  H1  LIG    1       22.342 -24.266   7.285  0.00  0.00    +0.119 HD
ATOM     24  H2  LIG    1       22.745 -23.213   6.127  0.00  0.00    +0.119 HD
ENDBRANCH  15  22
ENDBRANCH  13  15
ENDBRANCH   9  11
BRANCH  10  25
ATOM     25  C   LIG    1       23.900 -32.095   7.725  0.00  0.00    +0.351 C 
ATOM     26  O   LIG    1       22.798 -32.193   8.248  0.00  0.00    -0.244 OA
BRANCH  25  27
ATOM     27  OXT LIG    1       24.338 -33.095   6.938  0.00  0.00    -0.476 OA
ATOM     28  HXT LIG    1       23.745 -33.862   6.786  0.00  0.00    +0.295 HD
ENDBRANCH  25  27
ENDBRANCH  10  25
TORSDOF 6
ENDMDL
MODEL 3
REMARK VINA RESULT:      -6.7      4.931      8.609
REMARK  Name = *****
REMARK                            x       y       z     vdW  Elec       q    Type
REMARK                         _______ _______ _______ _____ _____    ______ ____
ROOT
ATOM      1  C   LIG    1       28.243 -18.405   4.995  0.00  0.00    +0.042 C 
ATOM      2  C   LIG    1       27.548 -19.599   5.621  0.00  0.00    -0.034 C 
ATOM      3  C   LIG    1       28.334 -20.130   6.809  0.00  0.00    +0.103 C 
ATOM      4  S   LIG    1       27.953 -21.842   7.255  0.00  0.00    -0.131 S 
ATOM      5  C   LIG    1       26.169 -21.556   7.186  0.00  0.00    +0.169 C 
ATOM      6  N   LIG    1       25.828 -21.193   5.823  0.00  0.00    -0.249 N 
ATOM      7  C   LIG    1       24.873 -22.134   5.650  0.00  0.00    +0.244 C 
ATOM      8  O   LIG    1       24.109 -22.287   4.733  0.00  0.00    -0.273 OA
ATOM      9  CA  LIG    1       25.262 -22.814   7.012  0.00  0.00    +0.191 C 
ATOM     10  CA  LIG    1       26.380 -20.132   5.156  0.00  0.00    +0.122 C 
ENDROOT
BRANCH   9  11
ATOM     11  N   LIG    1       25.957 -24.123   6.921  0.00  0.00    -0.300 N 
ATOM     12  H   LIG    1       26.929 -24.215   7.218  0.00  0.00    +0.150 HD
ATOM     13  C   LIG    1       25.310 -25.314   6.661  0.00  0.00    +0.235 C 
ATOM     14  O   LIG    1       24.105 -25.361   6.427  0.00  0.00    -0.274 OA
BRANCH  13  15
ATOM     15  CA  LIG    1       26.229 -26.571   6.711  0.00  0.00    +0.168 C 
BRANCH  15  16
ATOM     16  C   LIG    1       25.508 -27.883   6.990  0.00  0.00    -0.022 A 
ATOM     17  C   LIG    1       25.678 -28.516   8.237  0.00  0.00    +0.006 A 
ATOM     18  C   LIG    1       25.017 -29.711   8.539  0.00  0.00    +0.000 A 
ATOM     19  C   LIG    1       24.185 -30.305   7.596  0.00  0.00    +0.000 A 
ATOM     20  C   LIG    1       24.029 -29.713   6.345  0.00  0.00    +0.000 A 
ATOM     21  C   LIG    1       24.690 -28.517   6.040  0.00  0.00    +0.006 A 
ENDBRANCH  15  16
BRANCH  15  22
ATOM     22  N   LIG    1       27.041 -26.659   5.467  0.00  0.00    -0.316 NA
ATOM     23  H1  LIG    1       27.716 -25.894   5.488  0.00  0.00    +0.119 HD
ATOM     24  H2  LIG    1       27.609 -27.506   5.517  0.00  0.00    +0.119 HD
ENDBRANCH  15  22
ENDBRANCH  13  15
ENDBRANCH   9  11
BRANCH  10  25
ATOM     25  C   LIG    1       25.725 -19.551   3.912  0.00  0.00    +0.351 C 
ATOM     26  O   LIG    1       25.245 -18.426   3.859  0.00  0.00    -0.244 OA
BRANCH  25  27
ATOM     27  OXT LIG    1       25.619 -20.356   2.840  0.00  0.00    -0.476 OA
ATOM     28  HXT LIG    1       25.119 -21.195   2.934  0.00  0.00    +0.295 HD
ENDBRANCH  25  27
ENDBRANCH  10  25
TORSDOF 6
ENDMDL
MODEL 4
REMARK VINA RESULT:      -6.5      3.238      6.420
REMARK  Name = *****
REMARK                            x       y       z     vdW  Elec       q    Type
REMARK                         _______ _______ _______ _____ _____    ______ ____
ROOT
ATOM      1  C   LIG    1       23.633 -32.534   5.802  0.00  0.00    +0.042 C 
ATOM      2  C   LIG    1       24.417 -31.881   6.924  0.00  0.00    -0.034 C 
ATOM      3  C   LIG    1       24.636 -32.850   8.075  0.00  0.00    +0.103 C 
ATOM      4  S   LIG    1       25.010 -32.059   9.659  0.00  0.00    -0.131 S 
ATOM      5  C   LIG    1       26.247 -30.966   8.922  0.00  0.00    +0.169 C 
ATOM      6  N   LIG    1       25.573 -30.113   7.962  0.00  0.00    -0.249 N 
ATOM      7  C   LIG    1       26.007 -28.938   8.471  0.00  0.00    +0.244 C 
ATOM      8  O   LIG    1       25.881 -27.824   8.036  0.00  0.00    -0.273 OA
ATOM      9  CA  LIG    1       26.609 -29.675   9.721  0.00  0.00    +0.191 C 
ATOM     10  CA  LIG    1       24.845 -30.585   6.903  0.00  0.00    +0.122 C 
ENDROOT
BRANCH   9  11
ATOM     11  N   LIG    1       25.900 -29.474  11.010  0.00  0.00    -0.300 N 
ATOM     12  H   LIG    1       25.350 -30.229  11.422  0.00  0.00    +0.150 HD
ATOM     13  C   LIG    1       26.106 -28.385  11.832  0.00  0.00    +0.235 C 
ATOM     14  O   LIG    1       26.860 -27.467  11.519  0.00  0.00    -0.274 OA
BRANCH  13  15
ATOM     15  CA  LIG    1       25.324 -28.437  13.179  0.00  0.00    +0.168 C 
BRANCH  15  16
ATOM     16  C   LIG    1       23.871 -27.992  13.097  0.00  0.00    -0.022 A 
ATOM     17  C   LIG    1       22.890 -28.905  12.662  0.00  0.00    +0.006 A 
ATOM     18  C   LIG    1       21.540 -28.540  12.593  0.00  0.00    +0.000 A 
ATOM     19  C   LIG    1       21.148 -27.252  12.943  0.00  0.00    +0.000 A 
ATOM     20  C   LIG    1       22.106 -26.324  13.344  0.00  0.00    +0.000 A 
ATOM     21  C   LIG    1       23.458 -26.687  13.413  0.00  0.00    +0.006 A 
ENDBRANCH  15  16
BRANCH  15  22
ATOM     22  N   LIG    1       25.436 -29.794  13.781  0.00  0.00    -0.316 NA
ATOM     23  H1  LIG    1       26.299 -29.817  14.325  0.00  0.00    +0.119 HD
ATOM     24  H2  LIG    1       24.692 -29.898  14.472  0.00  0.00    +0.119 HD
ENDBRANCH  15  22
ENDBRANCH  13  15
ENDBRANCH   9  11
BRANCH  10  25
ATOM     25  C   LIG    1       24.500 -29.694   5.719  0.00  0.00    +0.351 C 
ATOM     26  O   LIG    1       25.337 -29.195   4.977  0.00  0.00    -0.244 OA
BRANCH  25  27
ATOM     27  OXT LIG    1       23.202 -29.396   5.530  0.00  0.00    -0.476 OA
ATOM     28  HXT LIG    1       22.860 -28.551   5.894  0.00  0.00    +0.295 HD
ENDBRANCH  25  27
ENDBRANCH  10  25
TORSDOF 6
ENDMDL
MODEL 5
REMARK VINA RESULT:      -6.3      2.890      4.475
REMARK  Name = *****
REMARK                            x       y       z     vdW  Elec       q    Type
REMARK                         _______ _______ _______ _____ _____    ______ ____
ROOT
ATOM      1  C   LIG    1       26.989 -33.818   5.999  0.00  0.00    +0.042 C 
ATOM      2  C   LIG    1       26.269 -32.506   6.247  0.00  0.00    -0.034 C 
ATOM      3  C   LIG    1       25.907 -31.824   4.938  0.00  0.00    +0.103 C 
ATOM      4  S   LIG    1       25.600 -30.046   5.079  0.00  0.00    -0.131 S 
ATOM      5  C   LIG    1       24.523 -30.256   6.516  0.00  0.00    +0.169 C 
ATOM      6  N   LIG    1       25.319 -30.823   7.590  0.00  0.00    -0.249 N 
ATOM      7  C   LIG    1       25.022 -29.880   8.512  0.00  0.00    +0.244 C 
ATOM      8  O   LIG    1       25.295 -29.844   9.683  0.00  0.00    -0.273 OA
ATOM      9  CA  LIG    1       24.307 -29.003   7.421  0.00  0.00    +0.191 C 
ATOM     10  CA  LIG    1       26.005 -32.003   7.488  0.00  0.00    +0.122 C 
ENDROOT
BRANCH   9  11
ATOM     11  N   LIG    1       25.008 -27.761   7.010  0.00  0.00    -0.300 N 
ATOM     12  H   LIG    1       25.946 -27.557   7.356  0.00  0.00    +0.150 HD
ATOM     13  C   LIG    1       24.568 -26.939   5.992  0.00  0.00    +0.235 C 
ATOM     14  O   LIG    1       23.521 -27.155   5.388  0.00  0.00    -0.274 OA
BRANCH  13  15
ATOM     15  CA  LIG    1       25.519 -25.747   5.671  0.00  0.00    +0.168 C 
BRANCH  15  16
ATOM     16  C   LIG    1       25.168 -24.439   6.367  0.00  0.00    -0.022 A 
ATOM     17  C   LIG    1       23.832 -23.991   6.366  0.00  0.00    +0.006 A 
ATOM     18  C   LIG    1       23.466 -22.805   7.013  0.00  0.00    +0.000 A 
ATOM     19  C   LIG    1       24.429 -22.038   7.660  0.00  0.00    +0.000 A 
ATOM     20  C   LIG    1       25.760 -22.446   7.645  0.00  0.00    +0.000 A 
ATOM     21  C   LIG    1       26.130 -23.633   6.998  0.00  0.00    +0.006 A 
ENDBRANCH  15  16
BRANCH  15  22
ATOM     22  N   LIG    1       26.931 -26.134   5.939  0.00  0.00    -0.316 NA
ATOM     23  H1  LIG    1       27.357 -26.375   5.043  0.00  0.00    +0.119 HD
ATOM     24  H2  LIG    1       27.436 -25.303   6.249  0.00  0.00    +0.119 HD
ENDBRANCH  15  22
ENDBRANCH  13  15
ENDBRANCH   9  11
BRANCH  10  25
ATOM     25  C   LIG    1       26.482 -32.751   8.724  0.00  0.00    +0.351 C 
ATOM     26  O   LIG    1       26.022 -33.825   9.089  0.00  0.00    -0.244 OA
BRANCH  25  27
ATOM     27  OXT LIG    1       27.417 -32.151   9.483  0.00  0.00    -0.476 OA
ATOM     28  HXT LIG    1       27.814 -31.314   9.159  0.00  0.00    +0.295 HD
ENDBRANCH  25  27
ENDBRANCH  10  25
TORSDOF 6
ENDMDL
MODEL 6
REMARK VINA RESULT:      -6.1      6.815      9.882
REMARK  Name = *****
REMARK                            x       y       z     vdW  Elec       q    Type
REMARK                         _______ _______ _______ _____ _____    ______ ____
ROOT
ATOM      1  C   LIG    1       23.777 -22.152   3.138  0.00  0.00    +0.042 C 
ATOM      2  C   LIG    1       24.565 -21.626   4.323  0.00  0.00    -0.034 C 
ATOM      3  C   LIG    1       24.931 -20.164   4.132  0.00  0.00    +0.103 C 
ATOM      4  S   LIG    1       26.326 -19.602   5.139  0.00  0.00    -0.131 S 
ATOM      5  C   LIG    1       25.659 -20.357   6.641  0.00  0.00    +0.169 C 
ATOM      6  N   LIG    1       25.600 -21.792   6.430  0.00  0.00    -0.249 N 
ATOM      7  C   LIG    1       26.303 -22.136   7.532  0.00  0.00    +0.244 C 
ATOM      8  O   LIG    1       26.510 -23.226   7.997  0.00  0.00    -0.273 OA
ATOM      9  CA  LIG    1       26.670 -20.631   7.798  0.00  0.00    +0.191 C 
ATOM     10  CA  LIG    1       24.914 -22.383   5.404  0.00  0.00    +0.122 C 
ENDROOT
BRANCH   9  11
ATOM     11  N   LIG    1       28.081 -20.242   7.549  0.00  0.00    -0.300 N 
ATOM     12  H   LIG    1       28.301 -19.434   6.966  0.00  0.00    +0.150 HD
ATOM     13  C   LIG    1       29.151 -20.773   8.240  0.00  0.00    +0.235 C 
ATOM     14  O   LIG    1       29.009 -21.657   9.081  0.00  0.00    -0.274 OA
BRANCH  13  15
ATOM     15  CA  LIG    1       30.529 -20.142   7.878  0.00  0.00    +0.168 C 
BRANCH  15  16
ATOM     16  C   LIG    1       30.867 -18.860   8.627  0.00  0.00    -0.022 A 
ATOM     17  C   LIG    1       30.015 -18.416   9.658  0.00  0.00    +0.006 A 
ATOM     18  C   LIG    1       30.302 -17.254  10.384  0.00  0.00    +0.000 A 
ATOM     19  C   LIG    1       31.436 -16.507  10.085  0.00  0.00    +0.000 A 
ATOM     20  C   LIG    1       32.274 -16.911   9.048  0.00  0.00    +0.000 A 
ATOM     21  C   LIG    1       31.989 -18.073   8.319  0.00  0.00    +0.006 A 
ENDBRANCH  15  16
BRANCH  15  22
ATOM     22  N   LIG    1       31.610 -21.154   8.032  0.00  0.00    -0.316 NA
ATOM     23  H1  LIG    1       31.169 -22.074   8.031  0.00  0.00    +0.119 HD
ATOM     24  H2  LIG    1       32.183 -21.139   7.187  0.00  0.00    +0.119 HD
ENDBRANCH  15  22
ENDBRANCH  13  15
ENDBRANCH   9  11
BRANCH  10  25
ATOM     25  C   LIG    1       24.546 -23.859   5.445  0.00  0.00    +0.351 C 
ATOM     26  O   LIG    1       25.184 -24.735   4.875  0.00  0.00    -0.244 OA
BRANCH  25  27
ATOM     27  OXT LIG    1       23.416 -24.194   6.094  0.00  0.00    -0.476 OA
ATOM     28  HXT LIG    1       22.571 -23.791   5.797  0.00  0.00    +0.295 HD
ENDBRANCH  25  27
ENDBRANCH  10  25
TORSDOF 6
ENDMDL
MODEL 7
REMARK VINA RESULT:      -6.0      6.451      9.187
REMARK  Name = *****
REMARK                            x       y       z     vdW  Elec       q    Type
REMARK                         _______ _______ _______ _____ _____    ______ ____
ROOT
ATOM      1  C   LIG    1       21.808 -22.583   5.905  0.00  0.00    +0.042 C 
ATOM      2  C   LIG    1       23.154 -22.339   6.561  0.00  0.00    -0.034 C 
ATOM      3  C   LIG    1       23.177 -21.001   7.282  0.00  0.00    +0.103 C 
ATOM      4  S   LIG    1       24.835 -20.339   7.580  0.00  0.00    -0.131 S 
ATOM      5  C   LIG    1       25.446 -21.916   8.219  0.00  0.00    +0.169 C 
ATOM      6  N   LIG    1       25.365 -22.892   7.148  0.00  0.00    -0.249 N 
ATOM      7  C   LIG    1       26.657 -23.286   7.204  0.00  0.00    +0.244 C 
ATOM      8  O   LIG    1       27.207 -24.184   6.624  0.00  0.00    -0.273 OA
ATOM      9  CA  LIG    1       26.992 -22.126   8.210  0.00  0.00    +0.191 C 
ATOM     10  CA  LIG    1       24.207 -23.204   6.488  0.00  0.00    +0.122 C 
ENDROOT
BRANCH   9  11
ATOM     11  N   LIG    1       27.808 -21.006   7.676  0.00  0.00    -0.300 N 
ATOM     12  H   LIG    1       27.369 -20.250   7.150  0.00  0.00    +0.150 HD
ATOM     13  C   LIG    1       29.124 -20.785   8.032  0.00  0.00    +0.235 C 
ATOM     14  O   LIG    1       29.732 -21.545   8.780  0.00  0.00    -0.274 OA
BRANCH  13  15
ATOM     15  CA  LIG    1       29.747 -19.492   7.423  0.00  0.00    +0.168 C 
BRANCH  15  16
ATOM     16  C   LIG    1       30.377 -18.545   8.434  0.00  0.00    -0.022 A 
ATOM     17  C   LIG    1       31.705 -18.114   8.245  0.00  0.00    +0.006 A 
ATOM     18  C   LIG    1       32.313 -17.227   9.141  0.00  0.00    +0.000 A 
ATOM     19  C   LIG    1       31.611 -16.765  10.250  0.00  0.00    +0.000 A 
ATOM     20  C   LIG    1       30.309 -17.205  10.472  0.00  0.00    +0.000 A 
ATOM     21  C   LIG    1       29.698 -18.093   9.578  0.00  0.00    +0.006 A 
ENDBRANCH  15  16
BRANCH  15  22
ATOM     22  N   LIG    1       30.712 -19.849   6.348  0.00  0.00    -0.316 NA
ATOM     23  H1  LIG    1       30.229 -20.470   5.697  0.00  0.00    +0.119 HD
ATOM     24  H2  LIG    1       30.909 -19.008   5.804  0.00  0.00    +0.119 HD
ENDBRANCH  15  22
ENDBRANCH  13  15
ENDBRANCH   9  11
BRANCH  10  25
ATOM     25  C   LIG    1       24.079 -24.484   5.675  0.00  0.00    +0.351 C 
ATOM     26  O   LIG    1       23.522 -25.495   6.081  0.00  0.00    -0.244 OA
BRANCH  25  27
ATOM     27  OXT LIG    1       24.676 -24.509   4.469  0.00  0.00    -0.476 OA
ATOM     28  HXT LIG    1       24.971 -23.658   4.078  0.00  0.00    +0.295 HD
ENDBRANCH  25  27
ENDBRANCH  10  25
TORSDOF 6
ENDMDL
MODEL 8
REMARK VINA RESULT:      -5.9      1.609      2.339
REMARK  Name = *****
REMARK                            x       y       z     vdW  Elec       q    Type
REMARK                         _______ _______ _______ _____ _____    ______ ____
ROOT
ATOM      1  C   LIG    1       26.328 -26.503  13.783  0.00  0.00    +0.042 C 
ATOM      2  C   LIG    1       25.964 -27.542  12.739  0.00  0.00    -0.034 C 
ATOM      3  C   LIG    1       27.123 -27.789  11.786  0.00  0.00    +0.103 C 
ATOM      4  S   LIG    1       26.646 -28.521  10.201  0.00  0.00    -0.131 S 
ATOM      5  C   LIG    1       25.615 -29.778  10.991  0.00  0.00    +0.169 C 
ATOM      6  N   LIG    1       24.543 -29.098  11.693  0.00  0.00    -0.249 N 
ATOM      7  C   LIG    1       23.527 -29.779  11.115  0.00  0.00    +0.244 C 
ATOM      8  O   LIG    1       22.352 -29.755  11.366  0.00  0.00    -0.273 OA
ATOM      9  CA  LIG    1       24.523 -30.451  10.102  0.00  0.00    +0.191 C 
ATOM     10  CA  LIG    1       24.746 -28.151  12.661  0.00  0.00    +0.122 C 
ENDROOT
BRANCH   9  11
ATOM     11  N   LIG    1       24.441 -29.990   8.693  0.00  0.00    -0.300 N 
ATOM     12  H   LIG    1       23.937 -29.135   8.456  0.00  0.00    +0.150 HD
ATOM     13  C   LIG    1       25.199 -30.524   7.671  0.00  0.00    +0.235 C 
ATOM     14  O   LIG    1       25.962 -31.469   7.852  0.00  0.00    -0.274 OA
BRANCH  13  15
ATOM     15  CA  LIG    1       25.017 -29.814   6.295  0.00  0.00    +0.168 C 
BRANCH  15  16
ATOM     16  C   LIG    1       25.097 -28.294   6.340  0.00  0.00    -0.022 A 
ATOM     17  C   LIG    1       24.073 -27.529   5.749  0.00  0.00    +0.006 A 
ATOM     18  C   LIG    1       24.099 -26.130   5.788  0.00  0.00    +0.000 A 
ATOM     19  C   LIG    1       25.156 -25.470   6.406  0.00  0.00    +0.000 A 
ATOM     20  C   LIG    1       26.195 -26.208   6.968  0.00  0.00    +0.000 A 
ATOM     21  C   LIG    1       26.171 -27.608   6.930  0.00  0.00    +0.006 A 
ENDBRANCH  15  16
BRANCH  15  22
ATOM     22  N   LIG    1       25.976 -30.372   5.302  0.00  0.00    -0.316 NA
ATOM     23  H1  LIG    1       26.881 -30.458   5.767  0.00  0.00    +0.119 HD
ATOM     24  H2  LIG    1       25.698 -31.332   5.097  0.00  0.00    +0.119 HD
ENDBRANCH  15  22
ENDBRANCH  13  15
ENDBRANCH   9  11
BRANCH  10  25
ATOM     25  C   LIG    1       23.643 -27.764  13.634  0.00  0.00    +0.351 C 
ATOM     26  O   LIG    1       23.418 -28.361  14.679  0.00  0.00    -0.244 OA
BRANCH  25  27
ATOM     27  OXT LIG    1       22.837 -26.747  13.279  0.00  0.00    -0.476 OA
ATOM     28  HXT LIG    1       22.854 -26.443  12.346  0.00  0.00    +0.295 HD
ENDBRANCH  25  27
ENDBRANCH  10  25
TORSDOF 6
ENDMDL
MODEL 9
REMARK VINA RESULT:      -5.7      8.567     11.529
REMARK  Name = *****
REMARK                            x       y       z     vdW  Elec       q    Type
REMARK                         _______ _______ _______ _____ _____    ______ ____
ROOT
ATOM      1  C   LIG    1       23.464 -21.431   5.578  0.00  0.00    +0.042 C 
ATOM      2  C   LIG    1       24.892 -21.189   6.028  0.00  0.00    -0.034 C 
ATOM      3  C   LIG    1       25.196 -21.944   7.312  0.00  0.00    +0.103 C 
ATOM      4  S   LIG    1       26.603 -21.294   8.247  0.00  0.00    -0.131 S 
ATOM      5  C   LIG    1       27.652 -21.206   6.777  0.00  0.00    +0.169 C 
ATOM      6  N   LIG    1       27.048 -20.263   5.855  0.00  0.00    -0.249 N 
ATOM      7  C   LIG    1       28.141 -19.483   5.698  0.00  0.00    +0.244 C 
ATOM      8  O   LIG    1       28.322 -18.565   4.942  0.00  0.00    -0.273 OA
ATOM      9  CA  LIG    1       28.884 -20.251   6.850  0.00  0.00    +0.191 C 
ATOM     10  CA  LIG    1       25.772 -20.380   5.371  0.00  0.00    +0.122 C 
ENDROOT
BRANCH   9  11
ATOM     11  N   LIG    1       29.072 -19.510   8.122  0.00  0.00    -0.300 N 
ATOM     12  H   LIG    1       28.266 -19.177   8.651  0.00  0.00    +0.150 HD
ATOM     13  C   LIG    1       30.282 -19.420   8.781  0.00  0.00    +0.235 C 
ATOM     14  O   LIG    1       31.311 -19.908   8.320  0.00  0.00    -0.274 OA
BRANCH  13  15
ATOM     15  CA  LIG    1       30.217 -18.676  10.148  0.00  0.00    +0.168 C 
BRANCH  15  16
ATOM     16  C   LIG    1       31.209 -17.531  10.304  0.00  0.00    -0.022 A 
ATOM     17  C   LIG    1       31.578 -16.775   9.174  0.00  0.00    +0.006 A 
ATOM     18  C   LIG    1       32.470 -15.702   9.280  0.00  0.00    +0.000 A 
ATOM     19  C   LIG    1       33.020 -15.372  10.514  0.00  0.00    +0.000 A 
ATOM     20  C   LIG    1       32.694 -16.127  11.638  0.00  0.00    +0.000 A 
ATOM     21  C   LIG    1       31.802 -17.202  11.535  0.00  0.00    +0.006 A 
ENDBRANCH  15  16
BRANCH  15  22
ATOM     22  N   LIG    1       28.826 -18.220  10.416  0.00  0.00    -0.316 NA
ATOM     23  H1  LIG    1       28.876 -17.482  11.119  0.00  0.00    +0.119 HD
ATOM     24  H2  LIG    1       28.477 -17.755   9.576  0.00  0.00    +0.119 HD
ENDBRANCH  15  22
ENDBRANCH  13  15
ENDBRANCH   9  11
BRANCH  10  25
ATOM     25  C   LIG    1       25.323 -19.624   4.130  0.00  0.00    +0.351 C 
ATOM     26  O   LIG    1       24.567 -18.662   4.156  0.00  0.00    -0.244 OA
BRANCH  25  27
ATOM     27  OXT LIG    1       25.740 -20.092   2.939  0.00  0.00    -0.476 OA
ATOM     28  HXT LIG    1       26.699 -20.263   2.815  0.00  0.00    +0.295 HD
ENDBRANCH  25  27
ENDBRANCH  10  25
TORSDOF 6
ENDMDL
