MODEL 1
REMARK VINA RESULT:      -8.9      0.000      0.000
REMARK  Name = *****
REMARK                            x       y       z     vdW  Elec       q    Type
REMARK                         _______ _______ _______ _____ _____    ______ ____
ROOT
ATOM      1  C   LIG    1       29.277 -19.489   7.341  0.00  0.00    +0.125 A 
ATOM      2  C   LIG    1       29.002 -19.277   5.990  0.00  0.00    +0.069 A 
ATOM      3 CL   LIG    1       30.038 -18.386   4.934  0.00  0.00    -0.082 Cl
ATOM      4  C   LIG    1       27.822 -19.799   5.431  0.00  0.00    +0.047 A 
ATOM      5  C   LIG    1       26.920 -20.560   6.189  0.00  0.00    +0.057 A 
ATOM      6  N   LIG    1       25.739 -20.996   5.601  0.00  0.00    -0.326 N 
ATOM      7  H   LIG    1       25.748 -21.019   4.586  0.00  0.00    +0.148 HD
ATOM      8  C   LIG    1       24.918 -22.022   6.214  0.00  0.00    +0.163 C 
ATOM      9  N   LIG    1       24.708 -21.693   7.612  0.00  0.00    -0.170 NA
ATOM     10  H   LIG    1       24.006 -22.264   8.075  0.00  0.00    +0.150 HD
ATOM     11  S   LIG    1       26.075 -21.580   8.561  0.00  0.00    +0.062 S 
ATOM     12  O   LIG    1       26.583 -22.918   8.764  0.00  0.00    -0.153 OA
ATOM     13  O   LIG    1       25.739 -20.735   9.684  0.00  0.00    -0.153 OA
ATOM     14  C   LIG    1       27.212 -20.722   7.541  0.00  0.00    +0.128 A 
ATOM     15  C   LIG    1       28.374 -20.208   8.127  0.00  0.00    +0.060 A 
ENDROOT
BRANCH   8  16
ATOM     16  C   LIG    1       25.469 -23.437   5.962  0.00  0.00    +0.033 C 
ATOM     17  C   LIG    1       24.596 -24.274   4.977  0.00  0.00    +0.018 C 
ATOM     18  C   LIG    1       23.580 -24.934   5.915  0.00  0.00    +0.015 C 
ATOM     19  C   LIG    1       24.656 -25.587   6.784  0.00  0.00    +0.012 C 
ATOM     20  C   LIG    1       25.443 -26.286   5.702  0.00  0.00    -0.027 C 
ATOM     21  C   LIG    1       25.398 -25.505   4.612  0.00  0.00    -0.027 C 
ATOM     22  C   LIG    1       25.453 -24.346   7.240  0.00  0.00    +0.015 C 
ENDBRANCH   8  16
BRANCH   1  23
ATOM     23  S   LIG    1       30.755 -18.847   8.054  0.00  0.00    +0.057 S 
ATOM     24  O   LIG    1       31.886 -19.420   7.365  0.00  0.00    -0.153 OA
ATOM     25  O   LIG    1       30.587 -17.432   8.277  0.00  0.00    -0.153 OA
BRANCH  23  26
ATOM     26  N   LIG    1       30.809 -19.521   9.596  0.00  0.00    -0.203 NA
ATOM     27  H   LIG    1       30.103 -19.074  10.186  0.00  0.00    +0.144 HD
ATOM     28  H   LIG    1       30.693 -20.534   9.527  0.00  0.00    +0.144 HD
ENDBRANCH  23  26
ENDBRANCH   1  23
TORSDOF 3
ENDMDL
MODEL 2
REMARK VINA RESULT:      -8.1      3.164      7.328
REMARK  Name = *****
REMARK                            x       y       z     vdW  Elec       q    Type
REMARK                         _______ _______ _______ _____ _____    ______ ____
ROOT
ATOM      1  C   LIG    1       27.282 -21.623   7.271  0.00  0.00    +0.125 A 
ATOM      2  C   LIG    1       27.357 -20.464   6.498  0.00  0.00    +0.069 A 
ATOM      3 CL   LIG    1       26.055 -19.884   5.522  0.00  0.00    -0.082 Cl
ATOM      4  C   LIG    1       28.542 -19.709   6.490  0.00  0.00    +0.047 A 
ATOM      5  C   LIG    1       29.654 -20.072   7.264  0.00  0.00    +0.057 A 
ATOM      6  N   LIG    1       30.822 -19.326   7.166  0.00  0.00    -0.326 N 
ATOM      7  H   LIG    1       30.702 -18.388   6.797  0.00  0.00    +0.148 HD
ATOM      8  C   LIG    1       31.888 -19.452   8.141  0.00  0.00    +0.163 C 
ATOM      9  N   LIG    1       32.189 -20.857   8.340  0.00  0.00    -0.170 NA
ATOM     10  H   LIG    1       33.036 -21.032   8.876  0.00  0.00    +0.150 HD
ATOM     11  S   LIG    1       30.943 -21.809   8.907  0.00  0.00    +0.062 S 
ATOM     12  O   LIG    1       30.727 -21.472  10.296  0.00  0.00    -0.153 OA
ATOM     13  O   LIG    1       31.237 -23.167   8.510  0.00  0.00    -0.153 OA
ATOM     14  C   LIG    1       29.554 -21.252   7.997  0.00  0.00    +0.128 A 
ATOM     15  C   LIG    1       28.390 -22.028   8.019  0.00  0.00    +0.060 A 
ENDROOT
BRANCH   8  16
ATOM     16  C   LIG    1       31.594 -18.667   9.432  0.00  0.00    +0.033 C 
ATOM     17  C   LIG    1       30.166 -18.042   9.465  0.00  0.00    +0.018 C 
ATOM     18  C   LIG    1       30.387 -16.681   8.794  0.00  0.00    +0.015 C 
ATOM     19  C   LIG    1       31.470 -16.255   9.787  0.00  0.00    +0.012 C 
ATOM     20  C   LIG    1       30.719 -16.494  11.074  0.00  0.00    -0.027 C 
ATOM     21  C   LIG    1       29.927 -17.559  10.879  0.00  0.00    -0.027 C 
ATOM     22  C   LIG    1       32.495 -17.395   9.603  0.00  0.00    +0.015 C 
ENDBRANCH   8  16
BRANCH   1  23
ATOM     23  S   LIG    1       25.800 -22.574   7.298  0.00  0.00    +0.057 S 
ATOM     24  O   LIG    1       26.133 -23.938   7.630  0.00  0.00    -0.153 OA
ATOM     25  O   LIG    1       24.772 -21.815   7.970  0.00  0.00    -0.153 OA
BRANCH  23  26
ATOM     26  N   LIG    1       25.305 -22.634   5.689  0.00  0.00    -0.203 NA
ATOM     27  H   LIG    1       24.659 -21.864   5.505  0.00  0.00    +0.144 HD
ATOM     28  H   LIG    1       26.128 -22.624   5.082  0.00  0.00    +0.144 HD
ENDBRANCH  23  26
ENDBRANCH   1  23
TORSDOF 3
ENDMDL
MODEL 3
REMARK VINA RESULT:      -8.1      3.524      6.701
REMARK  Name = *****
REMARK                            x       y       z     vdW  Elec       q    Type
REMARK                         _______ _______ _______ _____ _____    ______ ____
ROOT
ATOM      1  C   LIG    1       24.755 -19.932   5.081  0.00  0.00    +0.125 A 
ATOM      2  C   LIG    1       25.666 -19.224   4.296  0.00  0.00    +0.069 A 
ATOM      3 CL   LIG    1       25.200 -18.184   2.999  0.00  0.00    -0.082 Cl
ATOM      4  C   LIG    1       27.044 -19.347   4.548  0.00  0.00    +0.047 A 
ATOM      5  C   LIG    1       27.535 -20.144   5.593  0.00  0.00    +0.057 A 
ATOM      6  N   LIG    1       28.908 -20.280   5.755  0.00  0.00    -0.326 N 
ATOM      7  H   LIG    1       29.465 -19.549   5.323  0.00  0.00    +0.148 HD
ATOM      8  C   LIG    1       29.479 -20.826   6.971  0.00  0.00    +0.163 C 
ATOM      9  N   LIG    1       28.795 -22.061   7.306  0.00  0.00    -0.170 NA
ATOM     10  H   LIG    1       29.242 -22.599   8.044  0.00  0.00    +0.150 HD
ATOM     11  S   LIG    1       27.156 -21.948   7.588  0.00  0.00    +0.062 S 
ATOM     12  O   LIG    1       26.972 -21.288   8.861  0.00  0.00    -0.153 OA
ATOM     13  O   LIG    1       26.595 -23.257   7.343  0.00  0.00    -0.153 OA
ATOM     14  C   LIG    1       26.598 -20.861   6.333  0.00  0.00    +0.128 A 
ATOM     15  C   LIG    1       25.221 -20.765   6.100  0.00  0.00    +0.060 A 
ENDROOT
BRANCH   8  16
ATOM     16  C   LIG    1       29.532 -19.790   8.108  0.00  0.00    +0.033 C 
ATOM     17  C   LIG    1       30.107 -18.411   7.662  0.00  0.00    +0.018 C 
ATOM     18  C   LIG    1       31.613 -18.595   7.880  0.00  0.00    +0.015 C 
ATOM     19  C   LIG    1       31.455 -18.957   9.358  0.00  0.00    +0.012 C 
ATOM     20  C   LIG    1       30.636 -17.771   9.807  0.00  0.00    -0.027 C 
ATOM     21  C   LIG    1       29.834 -17.434   8.785  0.00  0.00    -0.027 C 
ATOM     22  C   LIG    1       30.522 -20.182   9.258  0.00  0.00    +0.015 C 
ENDBRANCH   8  16
BRANCH   1  23
ATOM     23  S   LIG    1       23.026 -19.782   4.782  0.00  0.00    +0.057 S 
ATOM     24  O   LIG    1       22.428 -19.063   5.881  0.00  0.00    -0.153 OA
ATOM     25  O   LIG    1       22.821 -19.438   3.396  0.00  0.00    -0.153 OA
BRANCH  23  26
ATOM     26  N   LIG    1       22.433 -21.351   4.926  0.00  0.00    -0.203 NA
ATOM     27  H   LIG    1       21.519 -21.411   4.470  0.00  0.00    +0.144 HD
ATOM     28  H   LIG    1       23.117 -22.008   4.544  0.00  0.00    +0.144 HD
ENDBRANCH  23  26
ENDBRANCH   1  23
TORSDOF 3
ENDMDL
MODEL 4
REMARK VINA RESULT:      -7.7      8.154      9.292
REMARK  Name = *****
REMARK                            x       y       z     vdW  Elec       q    Type
REMARK                         _______ _______ _______ _____ _____    ______ ____
ROOT
ATOM      1  C   LIG    1       25.511 -26.640  13.290  0.00  0.00    +0.125 A 
ATOM      2  C   LIG    1       24.178 -27.042  13.207  0.00  0.00    +0.069 A 
ATOM      3 CL   LIG    1       22.864 -26.122  13.849  0.00  0.00    -0.082 Cl
ATOM      4  C   LIG    1       23.855 -28.257  12.578  0.00  0.00    +0.047 A 
ATOM      5  C   LIG    1       24.839 -29.072  11.999  0.00  0.00    +0.057 A 
ATOM      6  N   LIG    1       24.471 -30.293  11.449  0.00  0.00    -0.326 N 
ATOM      7  H   LIG    1       23.488 -30.375  11.208  0.00  0.00    +0.148 HD
ATOM      8  C   LIG    1       25.363 -31.034  10.579  0.00  0.00    +0.163 C 
ATOM      9  N   LIG    1       26.671 -31.123  11.200  0.00  0.00    -0.170 NA
ATOM     10  H   LIG    1       27.309 -31.769  10.743  0.00  0.00    +0.150 HD
ATOM     11  S   LIG    1       27.442 -29.678  11.513  0.00  0.00    +0.062 S 
ATOM     12  O   LIG    1       27.879 -29.128  10.250  0.00  0.00    -0.153 OA
ATOM     13  O   LIG    1       28.385 -29.926  12.580  0.00  0.00    -0.153 OA
ATOM     14  C   LIG    1       26.161 -28.655  12.131  0.00  0.00    +0.128 A 
ATOM     15  C   LIG    1       26.513 -27.454  12.758  0.00  0.00    +0.060 A 
ENDROOT
BRANCH   8  16
ATOM     16  C   LIG    1       25.369 -30.483   9.142  0.00  0.00    +0.033 C 
ATOM     17  C   LIG    1       23.957 -30.463   8.481  0.00  0.00    +0.018 C 
ATOM     18  C   LIG    1       23.868 -31.858   7.849  0.00  0.00    +0.015 C 
ATOM     19  C   LIG    1       25.142 -31.673   7.023  0.00  0.00    +0.012 C 
ATOM     20  C   LIG    1       24.796 -30.372   6.341  0.00  0.00    -0.027 C 
ATOM     21  C   LIG    1       24.074 -29.649   7.210  0.00  0.00    -0.027 C 
ATOM     22  C   LIG    1       26.170 -31.381   8.136  0.00  0.00    +0.015 C 
ENDBRANCH   8  16
BRANCH   1  23
ATOM     23  S   LIG    1       25.929 -25.116  14.068  0.00  0.00    +0.057 S 
ATOM     24  O   LIG    1       25.215 -24.050  13.409  0.00  0.00    -0.153 OA
ATOM     25  O   LIG    1       25.936 -25.310  15.498  0.00  0.00    -0.153 OA
BRANCH  23  26
ATOM     26  N   LIG    1       27.545 -24.863  13.663  0.00  0.00    -0.203 NA
ATOM     27  H   LIG    1       27.879 -24.013  14.123  0.00  0.00    +0.144 HD
ATOM     28  H   LIG    1       28.088 -25.694  13.906  0.00  0.00    +0.144 HD
ENDBRANCH  23  26
ENDBRANCH   1  23
TORSDOF 3
ENDMDL
MODEL 5
REMARK VINA RESULT:      -7.7      8.778     10.567
REMARK  Name = *****
REMARK                            x       y       z     vdW  Elec       q    Type
REMARK                         _______ _______ _______ _____ _____    ______ ____
ROOT
ATOM      1  C   LIG    1       25.029 -29.984   7.551  0.00  0.00    +0.125 A 
ATOM      2  C   LIG    1       25.623 -28.723   7.605  0.00  0.00    +0.069 A 
ATOM      3 CL   LIG    1       25.763 -27.676   6.238  0.00  0.00    -0.082 Cl
ATOM      4  C   LIG    1       26.149 -28.253   8.821  0.00  0.00    +0.047 A 
ATOM      5  C   LIG    1       26.069 -29.009  10.000  0.00  0.00    +0.057 A 
ATOM      6  N   LIG    1       26.663 -28.524  11.159  0.00  0.00    -0.326 N 
ATOM      7  H   LIG    1       26.833 -27.523  11.167  0.00  0.00    +0.148 HD
ATOM      8  C   LIG    1       26.364 -29.089  12.460  0.00  0.00    +0.163 C 
ATOM      9  N   LIG    1       26.475 -30.534  12.390  0.00  0.00    -0.170 NA
ATOM     10  H   LIG    1       26.451 -31.000  13.293  0.00  0.00    +0.150 HD
ATOM     11  S   LIG    1       25.456 -31.305  11.318  0.00  0.00    +0.062 S 
ATOM     12  O   LIG    1       24.119 -31.252  11.864  0.00  0.00    -0.153 OA
ATOM     13  O   LIG    1       26.073 -32.568  10.985  0.00  0.00    -0.153 OA
ATOM     14  C   LIG    1       25.499 -30.276   9.900  0.00  0.00    +0.128 A 
ATOM     15  C   LIG    1       24.974 -30.772   8.702  0.00  0.00    +0.060 A 
ENDROOT
BRANCH   8  16
ATOM     16  C   LIG    1       25.030 -28.573  13.028  0.00  0.00    +0.033 C 
ATOM     17  C   LIG    1       24.963 -27.019  13.134  0.00  0.00    +0.018 C 
ATOM     18  C   LIG    1       25.554 -26.756  14.523  0.00  0.00    +0.015 C 
ATOM     19  C   LIG    1       24.538 -27.651  15.234  0.00  0.00    +0.012 C 
ATOM     20  C   LIG    1       23.267 -27.049  14.687  0.00  0.00    -0.027 C 
ATOM     21  C   LIG    1       23.523 -26.657  13.430  0.00  0.00    -0.027 C 
ATOM     22  C   LIG    1       24.786 -28.996  14.519  0.00  0.00    +0.015 C 
ENDBRANCH   8  16
BRANCH   1  23
ATOM     23  S   LIG    1       24.358 -30.582   6.035  0.00  0.00    +0.057 S 
ATOM     24  O   LIG    1       25.416 -30.642   5.055  0.00  0.00    -0.153 OA
ATOM     25  O   LIG    1       23.469 -31.681   6.322  0.00  0.00    -0.153 OA
BRANCH  23  26
ATOM     26  N   LIG    1       23.350 -29.343   5.501  0.00  0.00    -0.203 NA
ATOM     27  H   LIG    1       22.401 -29.705   5.385  0.00  0.00    +0.144 HD
ATOM     28  H   LIG    1       23.405 -28.557   6.152  0.00  0.00    +0.144 HD
ENDBRANCH  23  26
ENDBRANCH   1  23
TORSDOF 3
ENDMDL
MODEL 6
REMARK VINA RESULT:      -7.6      9.447     11.387
REMARK  Name = *****
REMARK                            x       y       z     vdW  Elec       q    Type
REMARK                         _______ _______ _______ _____ _____    ______ ____
ROOT
ATOM      1  C   LIG    1       24.415 -30.160   8.601  0.00  0.00    +0.125 A 
ATOM      2  C   LIG    1       25.212 -29.627   9.615  0.00  0.00    +0.069 A 
ATOM      3 CL   LIG    1       26.765 -28.926   9.338  0.00  0.00    -0.082 Cl
ATOM      4  C   LIG    1       24.754 -29.652  10.944  0.00  0.00    +0.047 A 
ATOM      5  C   LIG    1       23.497 -30.174  11.283  0.00  0.00    +0.057 A 
ATOM      6  N   LIG    1       23.124 -30.233  12.619  0.00  0.00    -0.326 N 
ATOM      7  H   LIG    1       23.634 -29.607  13.235  0.00  0.00    +0.148 HD
ATOM      8  C   LIG    1       21.749 -30.470  13.015  0.00  0.00    +0.163 C 
ATOM      9  N   LIG    1       21.233 -31.613  12.285  0.00  0.00    -0.170 NA
ATOM     10  H   LIG    1       20.337 -31.955  12.622  0.00  0.00    +0.150 HD
ATOM     11  S   LIG    1       21.209 -31.481  10.623  0.00  0.00    +0.062 S 
ATOM     12  O   LIG    1       20.160 -30.551  10.269  0.00  0.00    -0.153 OA
ATOM     13  O   LIG    1       21.218 -32.826  10.094  0.00  0.00    -0.153 OA
ATOM     14  C   LIG    1       22.745 -30.727  10.249  0.00  0.00    +0.128 A 
ATOM     15  C   LIG    1       23.177 -30.723   8.918  0.00  0.00    +0.060 A 
ENDROOT
BRANCH   8  16
ATOM     16  C   LIG    1       20.886 -29.199  12.916  0.00  0.00    +0.033 C 
ATOM     17  C   LIG    1       21.624 -27.911  13.394  0.00  0.00    +0.018 C 
ATOM     18  C   LIG    1       21.319 -27.894  14.896  0.00  0.00    +0.015 C 
ATOM     19  C   LIG    1       19.804 -27.918  14.690  0.00  0.00    +0.012 C 
ATOM     20  C   LIG    1       19.673 -26.746  13.749  0.00  0.00    -0.027 C 
ATOM     21  C   LIG    1       20.771 -26.733  12.977  0.00  0.00    -0.027 C 
ATOM     22  C   LIG    1       19.643 -29.218  13.873  0.00  0.00    +0.015 C 
ENDBRANCH   8  16
BRANCH   1  23
ATOM     23  S   LIG    1       24.972 -30.128   6.930  0.00  0.00    +0.057 S 
ATOM     24  O   LIG    1       25.194 -28.755   6.544  0.00  0.00    -0.153 OA
ATOM     25  O   LIG    1       25.942 -31.179   6.743  0.00  0.00    -0.153 OA
BRANCH  23  26
ATOM     26  N   LIG    1       23.635 -30.613   6.029  0.00  0.00    -0.203 NA
ATOM     27  H   LIG    1       23.607 -31.635   5.988  0.00  0.00    +0.144 HD
ATOM     28  H   LIG    1       22.789 -30.202   6.430  0.00  0.00    +0.144 HD
ENDBRANCH  23  26
ENDBRANCH   1  23
TORSDOF 3
ENDMDL
MODEL 7
REMARK VINA RESULT:      -7.6      7.588     10.358
REMARK  Name = *****
REMARK                            x       y       z     vdW  Elec       q    Type
REMARK                         _______ _______ _______ _____ _____    ______ ____
ROOT
ATOM      1  C   LIG    1       23.171 -30.133  12.206  0.00  0.00    +0.125 A 
ATOM      2  C   LIG    1       22.194 -30.392  11.245  0.00  0.00    +0.069 A 
ATOM      3 CL   LIG    1       20.548 -30.746  11.630  0.00  0.00    -0.082 Cl
ATOM      4  C   LIG    1       22.538 -30.376   9.882  0.00  0.00    +0.047 A 
ATOM      5  C   LIG    1       23.839 -30.076   9.453  0.00  0.00    +0.057 A 
ATOM      6  N   LIG    1       24.139 -30.139   8.097  0.00  0.00    -0.326 N 
ATOM      7  H   LIG    1       23.336 -30.079   7.478  0.00  0.00    +0.148 HD
ATOM      8  C   LIG    1       25.353 -29.558   7.560  0.00  0.00    +0.163 C 
ATOM      9  N   LIG    1       26.485 -29.992   8.358  0.00  0.00    -0.170 NA
ATOM     10  H   LIG    1       27.391 -29.772   7.953  0.00  0.00    +0.150 HD
ATOM     11  S   LIG    1       26.458 -29.571   9.971  0.00  0.00    +0.062 S 
ATOM     12  O   LIG    1       26.707 -28.150  10.061  0.00  0.00    -0.153 OA
ATOM     13  O   LIG    1       27.300 -30.517  10.667  0.00  0.00    -0.153 OA
ATOM     14  C   LIG    1       24.795 -29.855  10.442  0.00  0.00    +0.128 A 
ATOM     15  C   LIG    1       24.483 -29.872  11.806  0.00  0.00    +0.060 A 
ENDROOT
BRANCH   8  16
ATOM     16  C   LIG    1       25.240 -28.033   7.378  0.00  0.00    +0.033 C 
ATOM     17  C   LIG    1       24.390 -27.619   6.138  0.00  0.00    +0.018 C 
ATOM     18  C   LIG    1       25.436 -27.585   5.018  0.00  0.00    +0.015 C 
ATOM     19  C   LIG    1       26.330 -26.581   5.747  0.00  0.00    +0.012 C 
ATOM     20  C   LIG    1       25.303 -25.511   6.031  0.00  0.00    -0.027 C 
ATOM     21  C   LIG    1       24.135 -26.132   6.254  0.00  0.00    -0.027 C 
ATOM     22  C   LIG    1       26.612 -27.343   7.059  0.00  0.00    +0.015 C 
ENDBRANCH   8  16
BRANCH   1  23
ATOM     23  S   LIG    1       22.752 -30.141  13.917  0.00  0.00    +0.057 S 
ATOM     24  O   LIG    1       21.885 -29.019  14.185  0.00  0.00    -0.153 OA
ATOM     25  O   LIG    1       22.456 -31.495  14.317  0.00  0.00    -0.153 OA
BRANCH  23  26
ATOM     26  N   LIG    1       24.192 -29.766  14.708  0.00  0.00    -0.203 NA
ATOM     27  H   LIG    1       24.934 -29.639  14.016  0.00  0.00    +0.144 HD
ATOM     28  H   LIG    1       24.048 -28.946  15.301  0.00  0.00    +0.144 HD
ENDBRANCH  23  26
ENDBRANCH   1  23
TORSDOF 3
ENDMDL
MODEL 8
REMARK VINA RESULT:      -7.5      8.777     10.089
REMARK  Name = *****
REMARK                            x       y       z     vdW  Elec       q    Type
REMARK                         _______ _______ _______ _____ _____    ______ ____
ROOT
ATOM      1  C   LIG    1       23.893 -28.225  12.737  0.00  0.00    +0.125 A 
ATOM      2  C   LIG    1       22.828 -29.008  12.288  0.00  0.00    +0.069 A 
ATOM      3 CL   LIG    1       21.194 -28.774  12.794  0.00  0.00    -0.082 Cl
ATOM      4  C   LIG    1       23.068 -30.053  11.379  0.00  0.00    +0.047 A 
ATOM      5  C   LIG    1       24.353 -30.317  10.881  0.00  0.00    +0.057 A 
ATOM      6  N   LIG    1       24.543 -31.403  10.035  0.00  0.00    -0.326 N 
ATOM      7  H   LIG    1       23.702 -31.739   9.574  0.00  0.00    +0.148 HD
ATOM      8  C   LIG    1       25.754 -31.555   9.254  0.00  0.00    +0.163 C 
ATOM      9  N   LIG    1       26.906 -31.366  10.117  0.00  0.00    -0.170 NA
ATOM     10  H   LIG    1       27.793 -31.623   9.692  0.00  0.00    +0.150 HD
ATOM     11  S   LIG    1       27.035 -29.882  10.867  0.00  0.00    +0.062 S 
ATOM     12  O   LIG    1       27.400 -28.910   9.861  0.00  0.00    -0.153 OA
ATOM     13  O   LIG    1       27.850 -30.075  12.044  0.00  0.00    -0.153 OA
ATOM     14  C   LIG    1       25.395 -29.537  11.377  0.00  0.00    +0.128 A 
ATOM     15  C   LIG    1       25.187 -28.495  12.288  0.00  0.00    +0.060 A 
ENDROOT
BRANCH   8  16
ATOM     16  C   LIG    1       25.747 -30.678   7.989  0.00  0.00    +0.033 C 
ATOM     17  C   LIG    1       24.314 -30.276   7.523  0.00  0.00    +0.018 C 
ATOM     18  C   LIG    1       23.925 -31.443   6.608  0.00  0.00    +0.015 C 
ATOM     19  C   LIG    1       25.142 -31.266   5.698  0.00  0.00    +0.012 C 
ATOM     20  C   LIG    1       24.985 -29.800   5.375  0.00  0.00    -0.027 C 
ATOM     21  C   LIG    1       24.477 -29.206   6.466  0.00  0.00    -0.027 C 
ATOM     22  C   LIG    1       26.291 -31.419   6.718  0.00  0.00    +0.015 C 
ENDBRANCH   8  16
BRANCH   1  23
ATOM     23  S   LIG    1       23.606 -26.907  13.870  0.00  0.00    +0.057 S 
ATOM     24  O   LIG    1       22.721 -25.950  13.250  0.00  0.00    -0.153 OA
ATOM     25  O   LIG    1       23.390 -27.462  15.184  0.00  0.00    -0.153 OA
BRANCH  23  26
ATOM     26  N   LIG    1       25.086 -26.112  13.979  0.00  0.00    -0.203 NA
ATOM     27  H   LIG    1       25.563 -26.401  14.836  0.00  0.00    +0.144 HD
ATOM     28  H   LIG    1       25.631 -26.294  13.133  0.00  0.00    +0.144 HD
ENDBRANCH  23  26
ENDBRANCH   1  23
TORSDOF 3
ENDMDL
MODEL 9
REMARK VINA RESULT:      -7.1      9.176     11.121
REMARK  Name = *****
REMARK                            x       y       z     vdW  Elec       q    Type
REMARK                         _______ _______ _______ _____ _____    ______ ____
ROOT
ATOM      1  C   LIG    1       25.305 -29.287  10.875  0.00  0.00    +0.125 A 
ATOM      2  C   LIG    1       25.631 -28.457  11.949  0.00  0.00    +0.069 A 
ATOM      3 CL   LIG    1       27.063 -27.494  12.008  0.00  0.00    -0.082 Cl
ATOM      4  C   LIG    1       24.771 -28.385  13.058  0.00  0.00    +0.047 A 
ATOM      5  C   LIG    1       23.568 -29.105  13.107  0.00  0.00    +0.057 A 
ATOM      6  N   LIG    1       22.788 -29.046  14.255  0.00  0.00    -0.326 N 
ATOM      7  H   LIG    1       22.965 -28.244  14.853  0.00  0.00    +0.148 HD
ATOM      8  C   LIG    1       21.413 -29.507  14.265  0.00  0.00    +0.163 C 
ATOM      9  N   LIG    1       21.348 -30.826  13.664  0.00  0.00    -0.170 NA
ATOM     10  H   LIG    1       20.454 -31.296  13.783  0.00  0.00    +0.150 HD
ATOM     11  S   LIG    1       21.853 -30.945  12.079  0.00  0.00    +0.062 S 
ATOM     12  O   LIG    1       20.851 -30.317  11.248  0.00  0.00    -0.153 OA
ATOM     13  O   LIG    1       22.242 -32.320  11.863  0.00  0.00    -0.153 OA
ATOM     14  C   LIG    1       23.292 -29.947  12.032  0.00  0.00    +0.128 A 
ATOM     15  C   LIG    1       24.134 -30.045  10.918  0.00  0.00    +0.060 A 
ENDROOT
BRANCH   8  16
ATOM     16  C   LIG    1       20.448 -28.474  13.657  0.00  0.00    +0.033 C 
ATOM     17  C   LIG    1       20.926 -27.000  13.833  0.00  0.00    +0.018 C 
ATOM     18  C   LIG    1       20.333 -26.621  15.195  0.00  0.00    +0.015 C 
ATOM     19  C   LIG    1       18.901 -26.952  14.775  0.00  0.00    +0.012 C 
ATOM     20  C   LIG    1       18.824 -26.123  13.516  0.00  0.00    -0.027 C 
ATOM     21  C   LIG    1       20.043 -26.140  12.956  0.00  0.00    -0.027 C 
ATOM     22  C   LIG    1       19.052 -28.434  14.371  0.00  0.00    +0.015 C 
ENDBRANCH   8  16
BRANCH   1  23
ATOM     23  S   LIG    1       26.370 -29.381   9.475  0.00  0.00    +0.057 S 
ATOM     24  O   LIG    1       26.318 -28.123   8.770  0.00  0.00    -0.153 OA
ATOM     25  O   LIG    1       27.599 -30.028   9.868  0.00  0.00    -0.153 OA
BRANCH  23  26
ATOM     26  N   LIG    1       25.618 -30.480   8.444  0.00  0.00    -0.203 NA
ATOM     27  H   LIG    1       24.808 -30.035   8.008  0.00  0.00    +0.144 HD
ATOM     28  H   LIG    1       26.300 -30.830   7.767  0.00  0.00    +0.144 HD
ENDBRANCH  23  26
ENDBRANCH   1  23
TORSDOF 3
ENDMDL
