MODEL 1
REMARK VINA RESULT:      -7.5      0.000      0.000
REMARK  Name = *****
REMARK                            x       y       z     vdW  Elec       q    Type
REMARK                         _______ _______ _______ _____ _____    ______ ____
ROOT
ATOM      1  C   LIG    1       24.700 -23.089   6.190  0.00  0.00    -0.014 C 
ATOM      2  C   LIG    1       23.511 -22.617   7.074  0.00  0.00    +0.012 C 
ATOM      3  C   LIG    1       23.545 -21.090   7.277  0.00  0.00    -0.010 C 
ATOM      4  C   LIG    1       23.456 -20.390   5.913  0.00  0.00    +0.007 C 
ATOM      5  C   LIG    1       24.644 -20.808   5.032  0.00  0.00    -0.010 C 
ATOM      6  C   LIG    1       25.956 -20.416   5.724  0.00  0.00    +0.007 C 
ATOM      7  C   LIG    1       26.055 -21.113   7.088  0.00  0.00    -0.010 C 
ATOM      8  C   LIG    1       24.862 -20.695   7.963  0.00  0.00    +0.007 C 
ATOM      9  C   LIG    1       24.609 -22.333   4.830  0.00  0.00    +0.012 C 
ATOM     10  C   LIG    1       26.021 -22.636   6.885  0.00  0.00    +0.012 C 
ENDROOT
BRANCH   1  12
ATOM     11  C   LIG    1       25.813 -25.394   6.705  0.00  0.00    +0.024 C 
ATOM     12  C   LIG    1       24.713 -24.639   5.950  0.00  0.00    +0.054 C 
BRANCH  12  13
ATOM     13  N   LIG    1       24.838 -25.017   4.537  0.00  0.00    -0.327 NA
ATOM     14  H   LIG    1       24.701 -26.019   4.423  0.00  0.00    +0.118 HD
ATOM     15  H   LIG    1       24.117 -24.558   3.984  0.00  0.00    +0.118 HD
ENDBRANCH  12  13
ENDBRANCH   1  12
TORSDOF 2
ENDMDL
MODEL 2
REMARK VINA RESULT:      -7.4      0.040      2.096
REMARK  Name = *****
REMARK                            x       y       z     vdW  Elec       q    Type
REMARK                         _______ _______ _______ _____ _____    ______ ____
ROOT
ATOM      1  C   LIG    1       24.766 -23.081   6.187  0.00  0.00    -0.014 C 
ATOM      2  C   LIG    1       26.078 -22.610   6.876  0.00  0.00    +0.012 C 
ATOM      3  C   LIG    1       26.078 -21.083   7.081  0.00  0.00    -0.010 C 
ATOM      4  C   LIG    1       24.885 -20.685   7.962  0.00  0.00    +0.007 C 
ATOM      5  C   LIG    1       23.571 -21.103   7.283  0.00  0.00    -0.010 C 
ATOM      6  C   LIG    1       23.455 -20.407   5.921  0.00  0.00    +0.007 C 
ATOM      7  C   LIG    1       24.643 -20.801   5.032  0.00  0.00    -0.010 C 
ATOM      8  C   LIG    1       25.954 -20.385   5.717  0.00  0.00    +0.007 C 
ATOM      9  C   LIG    1       23.573 -22.627   7.080  0.00  0.00    +0.012 C 
ATOM     10  C   LIG    1       24.644 -22.325   4.828  0.00  0.00    +0.012 C 
ENDROOT
BRANCH   1  12
ATOM     11  C   LIG    1       25.789 -25.428   6.704  0.00  0.00    +0.024 C 
ATOM     12  C   LIG    1       24.714 -24.632   5.955  0.00  0.00    +0.054 C 
BRANCH  12  13
ATOM     13  N   LIG    1       24.809 -25.021   4.544  0.00  0.00    -0.327 NA
ATOM     14  H   LIG    1       24.072 -25.680   4.305  0.00  0.00    +0.118 HD
ATOM     15  H   LIG    1       24.681 -24.209   3.944  0.00  0.00    +0.118 HD
ENDBRANCH  12  13
ENDBRANCH   1  12
TORSDOF 2
ENDMDL
MODEL 3
REMARK VINA RESULT:      -7.4      0.038      2.084
REMARK  Name = *****
REMARK                            x       y       z     vdW  Elec       q    Type
REMARK                         _______ _______ _______ _____ _____    ______ ____
ROOT
ATOM      1  C   LIG    1       24.714 -23.081   6.142  0.00  0.00    -0.014 C 
ATOM      2  C   LIG    1       24.601 -22.304   4.800  0.00  0.00    +0.012 C 
ATOM      3  C   LIG    1       24.615 -20.782   5.040  0.00  0.00    -0.010 C 
ATOM      4  C   LIG    1       25.927 -20.386   5.733  0.00  0.00    +0.007 C 
ATOM      5  C   LIG    1       26.045 -21.110   7.083  0.00  0.00    -0.010 C 
ATOM      6  C   LIG    1       24.858 -20.725   7.976  0.00  0.00    +0.007 C 
ATOM      7  C   LIG    1       23.542 -21.119   7.292  0.00  0.00    -0.010 C 
ATOM      8  C   LIG    1       23.431 -20.396   5.940  0.00  0.00    +0.007 C 
ATOM      9  C   LIG    1       26.030 -22.629   6.842  0.00  0.00    +0.012 C 
ATOM     10  C   LIG    1       23.527 -22.638   7.052  0.00  0.00    +0.012 C 
ENDROOT
BRANCH   1  12
ATOM     11  C   LIG    1       25.793 -25.384   6.736  0.00  0.00    +0.024 C 
ATOM     12  C   LIG    1       24.705 -24.639   5.955  0.00  0.00    +0.054 C 
BRANCH  12  13
ATOM     13  N   LIG    1       24.824 -25.066   4.556  0.00  0.00    -0.327 NA
ATOM     14  H   LIG    1       23.973 -24.848   4.043  0.00  0.00    +0.118 HD
ATOM     15  H   LIG    1       25.581 -24.564   4.096  0.00  0.00    +0.118 HD
ENDBRANCH  12  13
ENDBRANCH   1  12
TORSDOF 2
ENDMDL
MODEL 4
REMARK VINA RESULT:      -7.2      1.929      3.647
REMARK  Name = *****
REMARK                            x       y       z     vdW  Elec       q    Type
REMARK                         _______ _______ _______ _____ _____    ______ ____
ROOT
ATOM      1  C   LIG    1       25.948 -20.992   6.877  0.00  0.00    -0.014 C 
ATOM      2  C   LIG    1       25.730 -20.351   5.477  0.00  0.00    +0.012 C 
ATOM      3  C   LIG    1       24.403 -20.824   4.853  0.00  0.00    -0.010 C 
ATOM      4  C   LIG    1       23.236 -20.425   5.768  0.00  0.00    +0.007 C 
ATOM      5  C   LIG    1       23.406 -21.079   7.148  0.00  0.00    -0.010 C 
ATOM      6  C   LIG    1       23.433 -22.605   6.991  0.00  0.00    +0.007 C 
ATOM      7  C   LIG    1       24.598 -23.014   6.079  0.00  0.00    -0.010 C 
ATOM      8  C   LIG    1       24.426 -22.353   4.702  0.00  0.00    +0.007 C 
ATOM      9  C   LIG    1       24.730 -20.606   7.770  0.00  0.00    +0.012 C 
ATOM     10  C   LIG    1       25.922 -22.542   6.702  0.00  0.00    +0.012 C 
ENDROOT
BRANCH   1  12
ATOM     11  C   LIG    1       28.457 -20.325   6.593  0.00  0.00    +0.024 C 
ATOM     12  C   LIG    1       27.287 -20.543   7.560  0.00  0.00    +0.054 C 
BRANCH  12  13
ATOM     13  N   LIG    1       27.763 -21.470   8.593  0.00  0.00    -0.327 NA
ATOM     14  H   LIG    1       28.356 -22.187   8.182  0.00  0.00    +0.118 HD
ATOM     15  H   LIG    1       28.332 -20.976   9.277  0.00  0.00    +0.118 HD
ENDBRANCH  12  13
ENDBRANCH   1  12
TORSDOF 2
ENDMDL
MODEL 5
REMARK VINA RESULT:      -7.2      1.926      3.492
REMARK  Name = *****
REMARK                            x       y       z     vdW  Elec       q    Type
REMARK                         _______ _______ _______ _____ _____    ______ ____
ROOT
ATOM      1  C   LIG    1       25.987 -21.005   6.898  0.00  0.00    -0.014 C 
ATOM      2  C   LIG    1       25.981 -22.552   6.749  0.00  0.00    +0.012 C 
ATOM      3  C   LIG    1       24.651 -23.045   6.147  0.00  0.00    -0.010 C 
ATOM      4  C   LIG    1       24.451 -22.412   4.762  0.00  0.00    +0.007 C 
ATOM      5  C   LIG    1       24.412 -20.881   4.887  0.00  0.00    -0.010 C 
ATOM      6  C   LIG    1       23.254 -20.472   5.807  0.00  0.00    +0.007 C 
ATOM      7  C   LIG    1       23.447 -21.099   7.195  0.00  0.00    -0.010 C 
ATOM      8  C   LIG    1       23.490 -22.629   7.064  0.00  0.00    +0.007 C 
ATOM      9  C   LIG    1       25.740 -20.391   5.488  0.00  0.00    +0.012 C 
ATOM     10  C   LIG    1       24.774 -20.608   7.796  0.00  0.00    +0.012 C 
ENDROOT
BRANCH   1  12
ATOM     11  C   LIG    1       28.358 -19.997   6.473  0.00  0.00    +0.024 C 
ATOM     12  C   LIG    1       27.321 -20.449   7.508  0.00  0.00    +0.054 C 
BRANCH  12  13
ATOM     13  N   LIG    1       28.002 -21.395   8.399  0.00  0.00    -0.327 NA
ATOM     14  H   LIG    1       28.801 -21.814   7.930  0.00  0.00    +0.118 HD
ATOM     15  H   LIG    1       28.364 -20.910   9.218  0.00  0.00    +0.118 HD
ENDBRANCH  12  13
ENDBRANCH   1  12
TORSDOF 2
ENDMDL
MODEL 6
REMARK VINA RESULT:      -7.2      1.919      3.506
REMARK  Name = *****
REMARK                            x       y       z     vdW  Elec       q    Type
REMARK                         _______ _______ _______ _____ _____    ______ ____
ROOT
ATOM      1  C   LIG    1       25.962 -20.965   6.906  0.00  0.00    -0.014 C 
ATOM      2  C   LIG    1       24.744 -20.585   7.795  0.00  0.00    +0.012 C 
ATOM      3  C   LIG    1       23.430 -21.107   7.184  0.00  0.00    -0.010 C 
ATOM      4  C   LIG    1       23.495 -22.636   7.059  0.00  0.00    +0.007 C 
ATOM      5  C   LIG    1       24.668 -23.038   6.151  0.00  0.00    -0.010 C 
ATOM      6  C   LIG    1       24.472 -22.420   4.760  0.00  0.00    +0.007 C 
ATOM      7  C   LIG    1       24.408 -20.890   4.875  0.00  0.00    -0.010 C 
ATOM      8  C   LIG    1       23.237 -20.495   5.788  0.00  0.00    +0.007 C 
ATOM      9  C   LIG    1       25.979 -22.516   6.762  0.00  0.00    +0.012 C 
ATOM     10  C   LIG    1       25.719 -20.369   5.485  0.00  0.00    +0.012 C 
ENDROOT
BRANCH   1  12
ATOM     11  C   LIG    1       28.366 -20.063   6.424  0.00  0.00    +0.024 C 
ATOM     12  C   LIG    1       27.330 -20.457   7.483  0.00  0.00    +0.054 C 
BRANCH  12  13
ATOM     13  N   LIG    1       27.987 -21.418   8.376  0.00  0.00    -0.327 NA
ATOM     14  H   LIG    1       28.576 -20.933   9.049  0.00  0.00    +0.118 HD
ATOM     15  H   LIG    1       27.293 -21.933   8.913  0.00  0.00    +0.118 HD
ENDBRANCH  12  13
ENDBRANCH   1  12
TORSDOF 2
ENDMDL
MODEL 7
REMARK VINA RESULT:      -7.0      1.998      3.771
REMARK  Name = *****
REMARK                            x       y       z     vdW  Elec       q    Type
REMARK                         _______ _______ _______ _____ _____    ______ ____
ROOT
ATOM      1  C   LIG    1       24.419 -20.659   5.095  0.00  0.00    -0.014 C 
ATOM      2  C   LIG    1       24.412 -22.174   4.742  0.00  0.00    +0.012 C 
ATOM      3  C   LIG    1       24.583 -23.037   6.007  0.00  0.00    -0.010 C 
ATOM      4  C   LIG    1       23.431 -22.749   6.982  0.00  0.00    +0.007 C 
ATOM      5  C   LIG    1       23.439 -21.265   7.379  0.00  0.00    -0.010 C 
ATOM      6  C   LIG    1       24.775 -20.923   8.052  0.00  0.00    +0.007 C 
ATOM      7  C   LIG    1       25.933 -21.205   7.084  0.00  0.00    -0.010 C 
ATOM      8  C   LIG    1       25.917 -22.689   6.687  0.00  0.00    +0.007 C 
ATOM      9  C   LIG    1       23.269 -20.405   6.115  0.00  0.00    +0.012 C 
ATOM     10  C   LIG    1       25.762 -20.344   5.822  0.00  0.00    +0.012 C 
ENDROOT
BRANCH   1  12
ATOM     11  C   LIG    1       25.448 -18.827   3.544  0.00  0.00    +0.024 C 
ATOM     12  C   LIG    1       24.247 -19.733   3.840  0.00  0.00    +0.054 C 
BRANCH  12  13
ATOM     13  N   LIG    1       23.069 -18.861   3.907  0.00  0.00    -0.327 NA
ATOM     14  H   LIG    1       23.103 -18.159   3.170  0.00  0.00    +0.118 HD
ATOM     15  H   LIG    1       22.220 -19.401   3.758  0.00  0.00    +0.118 HD
ENDBRANCH  12  13
ENDBRANCH   1  12
TORSDOF 2
ENDMDL
MODEL 8
REMARK VINA RESULT:      -6.9      1.979      3.910
REMARK  Name = *****
REMARK                            x       y       z     vdW  Elec       q    Type
REMARK                         _______ _______ _______ _____ _____    ______ ____
ROOT
ATOM      1  C   LIG    1       24.465 -20.653   5.130  0.00  0.00    -0.014 C 
ATOM      2  C   LIG    1       25.802 -20.378   5.875  0.00  0.00    +0.012 C 
ATOM      3  C   LIG    1       25.940 -21.279   7.117  0.00  0.00    -0.010 C 
ATOM      4  C   LIG    1       25.906 -22.753   6.686  0.00  0.00    +0.007 C 
ATOM      5  C   LIG    1       24.576 -23.062   5.983  0.00  0.00    -0.010 C 
ATOM      6  C   LIG    1       23.412 -22.785   6.944  0.00  0.00    +0.007 C 
ATOM      7  C   LIG    1       23.436 -21.313   7.378  0.00  0.00    -0.010 C 
ATOM      8  C   LIG    1       24.770 -21.007   8.077  0.00  0.00    +0.007 C 
ATOM      9  C   LIG    1       24.441 -22.162   4.743  0.00  0.00    +0.012 C 
ATOM     10  C   LIG    1       23.300 -20.413   6.139  0.00  0.00    +0.012 C 
ENDROOT
BRANCH   1  12
ATOM     11  C   LIG    1       25.454 -18.833   3.540  0.00  0.00    +0.024 C 
ATOM     12  C   LIG    1       24.275 -19.761   3.854  0.00  0.00    +0.054 C 
BRANCH  12  13
ATOM     13  N   LIG    1       23.076 -18.916   3.899  0.00  0.00    -0.327 NA
ATOM     14  H   LIG    1       22.239 -19.477   3.754  0.00  0.00    +0.118 HD
ATOM     15  H   LIG    1       22.982 -18.483   4.815  0.00  0.00    +0.118 HD
ENDBRANCH  12  13
ENDBRANCH   1  12
TORSDOF 2
ENDMDL
MODEL 9
REMARK VINA RESULT:      -6.9      1.985      3.741
REMARK  Name = *****
REMARK                            x       y       z     vdW  Elec       q    Type
REMARK                         _______ _______ _______ _____ _____    ______ ____
ROOT
ATOM      1  C   LIG    1       24.420 -20.659   5.138  0.00  0.00    -0.014 C 
ATOM      2  C   LIG    1       23.264 -20.432   6.152  0.00  0.00    +0.012 C 
ATOM      3  C   LIG    1       23.435 -21.326   7.395  0.00  0.00    -0.010 C 
ATOM      4  C   LIG    1       24.769 -20.999   8.082  0.00  0.00    +0.007 C 
ATOM      5  C   LIG    1       25.933 -21.254   7.113  0.00  0.00    -0.010 C 
ATOM      6  C   LIG    1       25.928 -22.727   6.684  0.00  0.00    +0.007 C 
ATOM      7  C   LIG    1       24.599 -23.064   5.994  0.00  0.00    -0.010 C 
ATOM      8  C   LIG    1       23.437 -22.802   6.966  0.00  0.00    +0.007 C 
ATOM      9  C   LIG    1       25.761 -20.360   5.873  0.00  0.00    +0.012 C 
ATOM     10  C   LIG    1       24.428 -22.171   4.754  0.00  0.00    +0.012 C 
ENDROOT
BRANCH   1  12
ATOM     11  C   LIG    1       25.508 -18.875   3.571  0.00  0.00    +0.024 C 
ATOM     12  C   LIG    1       24.296 -19.771   3.851  0.00  0.00    +0.054 C 
BRANCH  12  13
ATOM     13  N   LIG    1       23.118 -18.895   3.850  0.00  0.00    -0.327 NA
ATOM     14  H   LIG    1       22.318 -19.374   4.258  0.00  0.00    +0.118 HD
ATOM     15  H   LIG    1       23.289 -18.072   4.423  0.00  0.00    +0.118 HD
ENDBRANCH  12  13
ENDBRANCH   1  12
TORSDOF 2
ENDMDL
