MODEL 1
REMARK VINA RESULT:      -8.9      0.000      0.000
REMARK  Name = *****
REMARK                            x       y       z     vdW  Elec       q    Type
REMARK                         _______ _______ _______ _____ _____    ______ ____
ROOT
ATOM      1  O   LIG    1       28.147 -18.510   4.814  0.00  0.00    -0.270 OA
ATOM      2  C   LIG    1       27.673 -19.398   5.518  0.00  0.00    +0.247 C 
ATOM      3  N   LIG    1       28.274 -19.828   6.720  0.00  0.00    -0.292 N 
ATOM      4  C   LIG    1       27.440 -20.584   7.657  0.00  0.00    +0.116 C 
ATOM      5  C   LIG    1       26.687 -21.714   6.949  0.00  0.00    +0.037 C 
ATOM      6  C   LIG    1       25.824 -22.513   7.930  0.00  0.00    +0.010 C 
ATOM      7  C   LIG    1       24.997 -23.543   7.166  0.00  0.00    +0.005 C 
ATOM      8  C   LIG    1       24.034 -22.858   6.196  0.00  0.00    +0.035 C 
ATOM      9  C   LIG    1       24.658 -21.726   5.417  0.00  0.00    -0.043 A 
ATOM     10  C   LIG    1       23.967 -21.191   4.321  0.00  0.00    +0.004 A 
ATOM     11  C   LIG    1       24.486 -20.107   3.613  0.00  0.00    +0.001 A 
ATOM     12  C   LIG    1       25.695 -19.534   4.004  0.00  0.00    +0.013 A 
ATOM     13  C   LIG    1       25.878 -21.144   5.811  0.00  0.00    -0.028 A 
ATOM     14  C   LIG    1       26.392 -20.045   5.105  0.00  0.00    +0.041 A 
ENDROOT
BRANCH   3  15
ATOM     15  C   LIG    1       29.411 -19.011   7.208  0.00  0.00    +0.093 C 
ATOM     16  C   LIG    1       29.652 -18.995   8.742  0.00  0.00    +0.013 C 
ATOM     17  C   LIG    1       30.285 -20.330   9.179  0.00  0.00    +0.021 C 
ATOM     18  C   LIG    1       31.648 -20.506   8.494  0.00  0.00    +0.085 C 
ATOM     19  N   LIG    1       31.903 -19.437   7.508  0.00  0.00    -0.300 NA
ATOM     20  C   LIG    1       31.955 -18.137   8.206  0.00  0.00    +0.085 C 
ATOM     21  C   LIG    1       30.685 -17.889   9.034  0.00  0.00    +0.021 C 
ATOM     22  C   LIG    1       30.770 -19.418   6.542  0.00  0.00    +0.107 C 
ENDBRANCH   3  15
TORSDOF 1
ENDMDL
MODEL 2
REMARK VINA RESULT:      -8.3      1.094      1.588
REMARK  Name = *****
REMARK                            x       y       z     vdW  Elec       q    Type
REMARK                         _______ _______ _______ _____ _____    ______ ____
ROOT
ATOM      1  O   LIG    1       28.516 -19.303   4.791  0.00  0.00    -0.270 OA
ATOM      2  C   LIG    1       27.722 -19.921   5.495  0.00  0.00    +0.247 C 
ATOM      3  N   LIG    1       28.109 -20.624   6.656  0.00  0.00    -0.292 N 
ATOM      4  C   LIG    1       27.058 -20.974   7.613  0.00  0.00    +0.116 C 
ATOM      5  C   LIG    1       25.860 -21.623   6.916  0.00  0.00    +0.037 C 
ATOM      6  C   LIG    1       24.765 -22.000   7.918  0.00  0.00    +0.010 C 
ATOM      7  C   LIG    1       23.542 -22.525   7.170  0.00  0.00    +0.005 C 
ATOM      8  C   LIG    1       22.951 -21.443   6.266  0.00  0.00    +0.035 C 
ATOM      9  C   LIG    1       23.986 -20.670   5.486  0.00  0.00    -0.043 A 
ATOM     10  C   LIG    1       23.568 -19.838   4.438  0.00  0.00    +0.004 A 
ATOM     11  C   LIG    1       24.490 -19.064   3.733  0.00  0.00    +0.001 A 
ATOM     12  C   LIG    1       25.840 -19.102   4.078  0.00  0.00    +0.013 A 
ATOM     13  C   LIG    1       25.350 -20.705   5.834  0.00  0.00    -0.028 A 
ATOM     14  C   LIG    1       26.274 -19.916   5.130  0.00  0.00    +0.041 A 
ENDROOT
BRANCH   3  15
ATOM     15  C   LIG    1       29.506 -20.416   7.108  0.00  0.00    +0.093 C 
ATOM     16  C   LIG    1       30.046 -18.961   7.057  0.00  0.00    +0.013 C 
ATOM     17  C   LIG    1       29.438 -18.144   8.213  0.00  0.00    +0.021 C 
ATOM     18  C   LIG    1       29.861 -18.752   9.558  0.00  0.00    +0.085 C 
ATOM     19  N   LIG    1       30.598 -20.018   9.373  0.00  0.00    -0.300 NA
ATOM     20  C   LIG    1       31.845 -19.748   8.631  0.00  0.00    +0.085 C 
ATOM     21  C   LIG    1       31.567 -19.026   7.303  0.00  0.00    +0.021 C 
ATOM     22  C   LIG    1       29.748 -20.936   8.566  0.00  0.00    +0.107 C 
ENDBRANCH   3  15
TORSDOF 1
ENDMDL
MODEL 3
REMARK VINA RESULT:      -8.3      1.718      3.263
REMARK  Name = *****
REMARK                            x       y       z     vdW  Elec       q    Type
REMARK                         _______ _______ _______ _____ _____    ______ ____
ROOT
ATOM      1  O   LIG    1       26.402 -21.617   9.080  0.00  0.00    -0.270 OA
ATOM      2  C   LIG    1       26.312 -21.137   7.953  0.00  0.00    +0.247 C 
ATOM      3  N   LIG    1       27.362 -20.426   7.334  0.00  0.00    -0.292 N 
ATOM      4  C   LIG    1       27.294 -20.255   5.882  0.00  0.00    +0.116 C 
ATOM      5  C   LIG    1       25.917 -19.754   5.441  0.00  0.00    +0.037 C 
ATOM      6  C   LIG    1       25.849 -19.563   3.923  0.00  0.00    +0.010 C 
ATOM      7  C   LIG    1       24.427 -19.187   3.514  0.00  0.00    +0.005 C 
ATOM      8  C   LIG    1       23.447 -20.310   3.856  0.00  0.00    +0.035 C 
ATOM      9  C   LIG    1       23.661 -20.908   5.226  0.00  0.00    -0.043 A 
ATOM     10  C   LIG    1       22.680 -21.755   5.760  0.00  0.00    +0.004 A 
ATOM     11  C   LIG    1       22.869 -22.371   6.997  0.00  0.00    +0.001 A 
ATOM     12  C   LIG    1       24.050 -22.160   7.707  0.00  0.00    +0.013 A 
ATOM     13  C   LIG    1       24.853 -20.697   5.944  0.00  0.00    -0.028 A 
ATOM     14  C   LIG    1       25.047 -21.329   7.183  0.00  0.00    +0.041 A 
ENDROOT
BRANCH   3  15
ATOM     15  C   LIG    1       28.669 -20.455   8.033  0.00  0.00    +0.093 C 
ATOM     16  C   LIG    1       29.938 -20.507   7.140  0.00  0.00    +0.013 C 
ATOM     17  C   LIG    1       30.184 -19.122   6.513  0.00  0.00    +0.021 C 
ATOM     18  C   LIG    1       30.435 -18.087   7.620  0.00  0.00    +0.085 C 
ATOM     19  N   LIG    1       30.226 -18.668   8.962  0.00  0.00    -0.300 NA
ATOM     20  C   LIG    1       31.204 -19.751   9.178  0.00  0.00    +0.085 C 
ATOM     21  C   LIG    1       31.138 -20.804   8.062  0.00  0.00    +0.021 C 
ATOM     22  C   LIG    1       28.854 -19.243   9.009  0.00  0.00    +0.107 C 
ENDBRANCH   3  15
TORSDOF 1
ENDMDL
MODEL 4
REMARK VINA RESULT:      -7.4      1.410      3.051
REMARK  Name = *****
REMARK                            x       y       z     vdW  Elec       q    Type
REMARK                         _______ _______ _______ _____ _____    ______ ____
ROOT
ATOM      1  O   LIG    1       28.077 -21.930   8.690  0.00  0.00    -0.270 OA
ATOM      2  C   LIG    1       27.641 -21.389   7.677  0.00  0.00    +0.247 C 
ATOM      3  N   LIG    1       28.328 -20.360   6.998  0.00  0.00    -0.292 N 
ATOM      4  C   LIG    1       27.925 -20.077   5.620  0.00  0.00    +0.116 C 
ATOM      5  C   LIG    1       26.405 -19.935   5.500  0.00  0.00    +0.037 C 
ATOM      6  C   LIG    1       25.983 -19.627   4.060  0.00  0.00    +0.010 C 
ATOM      7  C   LIG    1       24.460 -19.620   3.961  0.00  0.00    +0.005 C 
ATOM      8  C   LIG    1       23.886 -20.996   4.298  0.00  0.00    +0.035 C 
ATOM      9  C   LIG    1       24.518 -21.640   5.508  0.00  0.00    -0.043 A 
ATOM     10  C   LIG    1       23.913 -22.771   6.073  0.00  0.00    +0.004 A 
ATOM     11  C   LIG    1       24.500 -23.426   7.155  0.00  0.00    +0.001 A 
ATOM     12  C   LIG    1       25.708 -22.967   7.675  0.00  0.00    +0.013 A 
ATOM     13  C   LIG    1       25.740 -21.178   6.034  0.00  0.00    -0.028 A 
ATOM     14  C   LIG    1       26.335 -21.847   7.116  0.00  0.00    +0.041 A 
ENDROOT
BRANCH   3  15
ATOM     15  C   LIG    1       29.715 -20.096   7.451  0.00  0.00    +0.093 C 
ATOM     16  C   LIG    1       30.245 -18.648   7.267  0.00  0.00    +0.013 C 
ATOM     17  C   LIG    1       29.610 -17.728   8.326  0.00  0.00    +0.021 C 
ATOM     18  C   LIG    1       30.013 -18.197   9.732  0.00  0.00    +0.085 C 
ATOM     19  N   LIG    1       30.763 -19.468   9.685  0.00  0.00    -0.300 NA
ATOM     20  C   LIG    1       32.021 -19.261   8.941  0.00  0.00    +0.085 C 
ATOM     21  C   LIG    1       31.762 -18.675   7.545  0.00  0.00    +0.021 C 
ATOM     22  C   LIG    1       29.935 -20.469   8.957  0.00  0.00    +0.107 C 
ENDBRANCH   3  15
TORSDOF 1
ENDMDL
MODEL 5
REMARK VINA RESULT:      -6.7      3.998      7.231
REMARK  Name = *****
REMARK                            x       y       z     vdW  Elec       q    Type
REMARK                         _______ _______ _______ _____ _____    ______ ____
ROOT
ATOM      1  O   LIG    1       22.595 -24.633   6.449  0.00  0.00    -0.270 OA
ATOM      2  C   LIG    1       23.711 -24.155   6.636  0.00  0.00    +0.247 C 
ATOM      3  N   LIG    1       24.855 -24.944   6.880  0.00  0.00    -0.292 N 
ATOM      4  C   LIG    1       26.161 -24.312   6.691  0.00  0.00    +0.116 C 
ATOM      5  C   LIG    1       26.233 -22.955   7.397  0.00  0.00    +0.037 C 
ATOM      6  C   LIG    1       27.604 -22.298   7.211  0.00  0.00    +0.010 C 
ATOM      7  C   LIG    1       27.591 -20.898   7.819  0.00  0.00    +0.005 C 
ATOM      8  C   LIG    1       26.578 -20.003   7.104  0.00  0.00    +0.035 C 
ATOM      9  C   LIG    1       25.254 -20.676   6.836  0.00  0.00    -0.043 A 
ATOM     10  C   LIG    1       24.164 -19.897   6.427  0.00  0.00    +0.004 A 
ATOM     11  C   LIG    1       22.941 -20.490   6.114  0.00  0.00    +0.001 A 
ATOM     12  C   LIG    1       22.800 -21.875   6.191  0.00  0.00    +0.013 A 
ATOM     13  C   LIG    1       25.109 -22.075   6.912  0.00  0.00    -0.028 A 
ATOM     14  C   LIG    1       23.881 -22.672   6.584  0.00  0.00    +0.041 A 
ENDROOT
BRANCH   3  15
ATOM     15  C   LIG    1       24.687 -26.406   6.697  0.00  0.00    +0.093 C 
ATOM     16  C   LIG    1       24.365 -26.898   5.260  0.00  0.00    +0.013 C 
ATOM     17  C   LIG    1       25.636 -26.827   4.393  0.00  0.00    +0.021 C 
ATOM     18  C   LIG    1       26.713 -27.755   4.973  0.00  0.00    +0.085 C 
ATOM     19  N   LIG    1       26.291 -28.335   6.264  0.00  0.00    -0.300 NA
ATOM     20  C   LIG    1       25.094 -29.172   6.051  0.00  0.00    +0.085 C 
ATOM     21  C   LIG    1       23.970 -28.385   5.361  0.00  0.00    +0.021 C 
ATOM     22  C   LIG    1       25.938 -27.217   7.181  0.00  0.00    +0.107 C 
ENDBRANCH   3  15
TORSDOF 1
ENDMDL
MODEL 6
REMARK VINA RESULT:      -6.6      2.315      6.758
REMARK  Name = *****
REMARK                            x       y       z     vdW  Elec       q    Type
REMARK                         _______ _______ _______ _____ _____    ______ ____
ROOT
ATOM      1  O   LIG    1       26.576 -23.138   7.614  0.00  0.00    -0.270 OA
ATOM      2  C   LIG    1       26.949 -22.114   7.047  0.00  0.00    +0.247 C 
ATOM      3  N   LIG    1       26.186 -21.466   6.053  0.00  0.00    -0.292 N 
ATOM      4  C   LIG    1       26.527 -20.076   5.743  0.00  0.00    +0.116 C 
ATOM      5  C   LIG    1       28.032 -19.905   5.522  0.00  0.00    +0.037 C 
ATOM      6  C   LIG    1       28.389 -18.454   5.185  0.00  0.00    +0.010 C 
ATOM      7  C   LIG    1       29.905 -18.304   5.098  0.00  0.00    +0.005 C 
ATOM      8  C   LIG    1       30.561 -18.613   6.444  0.00  0.00    +0.035 C 
ATOM      9  C   LIG    1       30.005 -19.839   7.125  0.00  0.00    -0.043 A 
ATOM     10  C   LIG    1       30.687 -20.377   8.225  0.00  0.00    +0.004 A 
ATOM     11  C   LIG    1       30.172 -21.474   8.915  0.00  0.00    +0.001 A 
ATOM     12  C   LIG    1       28.960 -22.038   8.522  0.00  0.00    +0.013 A 
ATOM     13  C   LIG    1       28.779 -20.410   6.730  0.00  0.00    -0.028 A 
ATOM     14  C   LIG    1       28.257 -21.507   7.434  0.00  0.00    +0.041 A 
ENDROOT
BRANCH   3  15
ATOM     15  C   LIG    1       24.804 -21.967   5.862  0.00  0.00    +0.093 C 
ATOM     16  C   LIG    1       23.828 -21.792   7.057  0.00  0.00    +0.013 C 
ATOM     17  C   LIG    1       23.393 -20.318   7.158  0.00  0.00    +0.021 C 
ATOM     18  C   LIG    1       22.645 -19.908   5.881  0.00  0.00    +0.085 C 
ATOM     19  N   LIG    1       22.680 -20.979   4.865  0.00  0.00    -0.300 NA
ATOM     20  C   LIG    1       21.980 -22.167   5.390  0.00  0.00    +0.085 C 
ATOM     21  C   LIG    1       22.562 -22.615   6.741  0.00  0.00    +0.021 C 
ATOM     22  C   LIG    1       24.104 -21.332   4.612  0.00  0.00    +0.107 C 
ENDBRANCH   3  15
TORSDOF 1
ENDMDL
MODEL 7
REMARK VINA RESULT:      -6.4     10.091     12.066
REMARK  Name = *****
REMARK                            x       y       z     vdW  Elec       q    Type
REMARK                         _______ _______ _______ _____ _____    ______ ____
ROOT
ATOM      1  O   LIG    1       22.153 -30.384  11.602  0.00  0.00    -0.270 OA
ATOM      2  C   LIG    1       23.205 -29.763  11.736  0.00  0.00    +0.247 C 
ATOM      3  N   LIG    1       24.430 -30.201  11.189  0.00  0.00    -0.292 N 
ATOM      4  C   LIG    1       25.503 -29.212  11.067  0.00  0.00    +0.116 C 
ATOM      5  C   LIG    1       25.696 -28.432  12.369  0.00  0.00    +0.037 C 
ATOM      6  C   LIG    1       26.826 -27.406  12.246  0.00  0.00    +0.010 C 
ATOM      7  C   LIG    1       26.900 -26.566  13.519  0.00  0.00    +0.005 C 
ATOM      8  C   LIG    1       25.611 -25.771  13.722  0.00  0.00    +0.035 C 
ATOM      9  C   LIG    1       24.356 -26.571  13.468  0.00  0.00    -0.043 A 
ATOM     10  C   LIG    1       23.120 -26.044  13.866  0.00  0.00    +0.004 A 
ATOM     11  C   LIG    1       21.934 -26.727  13.596  0.00  0.00    +0.001 A 
ATOM     12  C   LIG    1       21.971 -27.940  12.909  0.00  0.00    +0.013 A 
ATOM     13  C   LIG    1       24.390 -27.795  12.773  0.00  0.00    -0.028 A 
ATOM     14  C   LIG    1       23.195 -28.475  12.491  0.00  0.00    +0.041 A 
ENDROOT
BRANCH   3  15
ATOM     15  C   LIG    1       24.354 -31.355  10.261  0.00  0.00    +0.093 C 
ATOM     16  C   LIG    1       23.516 -31.157   8.969  0.00  0.00    +0.013 C 
ATOM     17  C   LIG    1       24.298 -30.275   7.978  0.00  0.00    +0.021 C 
ATOM     18  C   LIG    1       25.608 -30.972   7.582  0.00  0.00    +0.085 C 
ATOM     19  N   LIG    1       25.822 -32.206   8.364  0.00  0.00    -0.300 NA
ATOM     20  C   LIG    1       24.738 -33.162   8.066  0.00  0.00    +0.085 C 
ATOM     21  C   LIG    1       23.354 -32.542   8.310  0.00  0.00    +0.021 C 
ATOM     22  C   LIG    1       25.769 -31.854   9.810  0.00  0.00    +0.107 C 
ENDBRANCH   3  15
TORSDOF 1
ENDMDL
MODEL 8
REMARK VINA RESULT:      -6.3      2.114      6.171
REMARK  Name = *****
REMARK                            x       y       z     vdW  Elec       q    Type
REMARK                         _______ _______ _______ _____ _____    ______ ____
ROOT
ATOM      1  O   LIG    1       25.410 -20.260   5.720  0.00  0.00    -0.270 OA
ATOM      2  C   LIG    1       26.413 -20.578   6.354  0.00  0.00    +0.247 C 
ATOM      3  N   LIG    1       26.436 -21.656   7.265  0.00  0.00    -0.292 N 
ATOM      4  C   LIG    1       27.746 -22.185   7.648  0.00  0.00    +0.116 C 
ATOM      5  C   LIG    1       28.706 -21.063   8.054  0.00  0.00    +0.037 C 
ATOM      6  C   LIG    1       30.073 -21.616   8.467  0.00  0.00    +0.010 C 
ATOM      7  C   LIG    1       31.034 -20.463   8.741  0.00  0.00    +0.005 C 
ATOM      8  C   LIG    1       31.263 -19.634   7.477  0.00  0.00    +0.035 C 
ATOM      9  C   LIG    1       30.000 -19.342   6.703  0.00  0.00    -0.043 A 
ATOM     10  C   LIG    1       30.034 -18.384   5.680  0.00  0.00    +0.004 A 
ATOM     11  C   LIG    1       28.902 -18.129   4.906  0.00  0.00    +0.001 A 
ATOM     12  C   LIG    1       27.727 -18.842   5.136  0.00  0.00    +0.013 A 
ATOM     13  C   LIG    1       28.812 -20.061   6.933  0.00  0.00    -0.028 A 
ATOM     14  C   LIG    1       27.678 -19.812   6.144  0.00  0.00    +0.041 A 
ENDROOT
BRANCH   3  15
ATOM     15  C   LIG    1       25.236 -22.526   7.274  0.00  0.00    +0.093 C 
ATOM     16  C   LIG    1       24.228 -22.338   6.108  0.00  0.00    +0.013 C 
ATOM     17  C   LIG    1       24.804 -22.964   4.823  0.00  0.00    +0.021 C 
ATOM     18  C   LIG    1       25.007 -24.472   5.025  0.00  0.00    +0.085 C 
ATOM     19  N   LIG    1       24.739 -24.873   6.421  0.00  0.00    -0.300 NA
ATOM     20  C   LIG    1       23.325 -24.600   6.741  0.00  0.00    +0.085 C 
ATOM     21  C   LIG    1       22.956 -23.133   6.466  0.00  0.00    +0.021 C 
ATOM     22  C   LIG    1       25.602 -24.050   7.313  0.00  0.00    +0.107 C 
ENDBRANCH   3  15
TORSDOF 1
ENDMDL
MODEL 9
REMARK VINA RESULT:      -6.3     10.156     12.144
REMARK  Name = *****
REMARK                            x       y       z     vdW  Elec       q    Type
REMARK                         _______ _______ _______ _____ _____    ______ ____
ROOT
ATOM      1  O   LIG    1       22.573 -31.594   9.540  0.00  0.00    -0.270 OA
ATOM      2  C   LIG    1       23.570 -30.933   9.820  0.00  0.00    +0.247 C 
ATOM      3  N   LIG    1       24.784 -31.034   9.108  0.00  0.00    -0.292 N 
ATOM      4  C   LIG    1       25.747 -29.943   9.263  0.00  0.00    +0.116 C 
ATOM      5  C   LIG    1       25.968 -29.596  10.737  0.00  0.00    +0.037 C 
ATOM      6  C   LIG    1       26.985 -28.463  10.901  0.00  0.00    +0.010 C 
ATOM      7  C   LIG    1       27.079 -28.065  12.371  0.00  0.00    +0.005 C 
ATOM      8  C   LIG    1       25.741 -27.524  12.876  0.00  0.00    +0.035 C 
ATOM      9  C   LIG    1       24.550 -28.339  12.433  0.00  0.00    -0.043 A 
ATOM     10  C   LIG    1       23.304 -28.108  13.033  0.00  0.00    +0.004 A 
ATOM     11  C   LIG    1       22.171 -28.801  12.610  0.00  0.00    +0.001 A 
ATOM     12  C   LIG    1       22.266 -29.723  11.569  0.00  0.00    +0.013 A 
ATOM     13  C   LIG    1       24.644 -29.270  11.381  0.00  0.00    -0.028 A 
ATOM     14  C   LIG    1       23.498 -29.957  10.948  0.00  0.00    +0.041 A 
ENDROOT
BRANCH   3  15
ATOM     15  C   LIG    1       24.744 -31.838   7.863  0.00  0.00    +0.093 C 
ATOM     16  C   LIG    1       23.733 -31.388   6.774  0.00  0.00    +0.013 C 
ATOM     17  C   LIG    1       24.263 -30.126   6.068  0.00  0.00    +0.021 C 
ATOM     18  C   LIG    1       25.593 -30.441   5.368  0.00  0.00    +0.085 C 
ATOM     19  N   LIG    1       26.062 -31.804   5.685  0.00  0.00    -0.300 NA
ATOM     20  C   LIG    1       25.084 -32.784   5.175  0.00  0.00    +0.085 C 
ATOM     21  C   LIG    1       23.672 -32.505   5.713  0.00  0.00    +0.021 C 
ATOM     22  C   LIG    1       26.144 -31.934   7.166  0.00  0.00    +0.107 C 
ENDBRANCH   3  15
TORSDOF 1
ENDMDL
