MODEL 1
REMARK VINA RESULT:      -6.7      0.000      0.000
REMARK  Name = *****
REMARK                            x       y       z     vdW  Elec       q    Type
REMARK                         _______ _______ _______ _____ _____    ______ ____
ROOT
ATOM      1 CL   LIG    1       25.294 -18.419   3.414  0.00  0.00    -0.082 Cl
ATOM      2  C   LIG    1       24.686 -19.572   4.548  0.00  0.00    +0.061 A 
ATOM      3  C   LIG    1       23.327 -19.673   4.859  0.00  0.00    +0.063 A 
ATOM      4 CL   LIG    1       22.135 -18.653   4.133  0.00  0.00    -0.082 Cl
ATOM      5  C   LIG    1       22.885 -20.625   5.787  0.00  0.00    +0.068 A 
ATOM      6  C   LIG    1       23.794 -21.488   6.408  0.00  0.00    +0.142 A 
ATOM      7  C   LIG    1       25.158 -21.377   6.086  0.00  0.00    +0.084 A 
ATOM      8 CL   LIG    1       26.341 -22.409   6.810  0.00  0.00    -0.080 Cl
ATOM      9  C   LIG    1       25.602 -20.425   5.163  0.00  0.00    +0.045 A 
ENDROOT
BRANCH   6  10
ATOM     10  O   LIG    1       23.452 -22.453   7.319  0.00  0.00    -0.478 OA
BRANCH  10  11
ATOM     11  C   LIG    1       22.706 -23.577   6.858  0.00  0.00    +0.318 C 
BRANCH  11  12
ATOM     12  C   LIG    1       23.632 -24.635   6.442  0.00  0.00    -0.050 C 
ATOM     13  C   LIG    1       24.396 -25.488   6.079  0.00  0.00    -0.027 C 
ATOM     14  I   LIG    1       25.722 -26.948   5.431  0.00  0.00    +0.018 I 
ENDBRANCH  11  12
ENDBRANCH  10  11
ENDBRANCH   6  10
TORSDOF 3
ENDMDL
MODEL 2
REMARK VINA RESULT:      -6.6      2.856      3.782
REMARK  Name = *****
REMARK                            x       y       z     vdW  Elec       q    Type
REMARK                         _______ _______ _______ _____ _____    ______ ____
ROOT
ATOM      1 CL   LIG    1       21.958 -18.554   4.256  0.00  0.00    -0.082 Cl
ATOM      2  C   LIG    1       23.033 -19.818   4.737  0.00  0.00    +0.061 A 
ATOM      3  C   LIG    1       24.391 -19.813   4.407  0.00  0.00    +0.063 A 
ATOM      4 CL   LIG    1       25.114 -18.538   3.490  0.00  0.00    -0.082 Cl
ATOM      5  C   LIG    1       25.221 -20.863   4.821  0.00  0.00    +0.068 A 
ATOM      6  C   LIG    1       24.704 -21.924   5.572  0.00  0.00    +0.142 A 
ATOM      7  C   LIG    1       23.337 -21.917   5.898  0.00  0.00    +0.084 A 
ATOM      8 CL   LIG    1       22.626 -23.192   6.823  0.00  0.00    -0.080 Cl
ATOM      9  C   LIG    1       22.506 -20.872   5.483  0.00  0.00    +0.045 A 
ENDROOT
BRANCH   6  10
ATOM     10  O   LIG    1       25.442 -22.987   6.025  0.00  0.00    -0.478 OA
BRANCH  10  11
ATOM     11  C   LIG    1       25.965 -22.923   7.350  0.00  0.00    +0.318 C 
BRANCH  11  12
ATOM     12  C   LIG    1       27.110 -22.008   7.375  0.00  0.00    -0.050 C 
ATOM     13  C   LIG    1       28.033 -21.240   7.385  0.00  0.00    -0.027 C 
ATOM     14  I   LIG    1       29.612 -19.892   7.392  0.00  0.00    +0.018 I 
ENDBRANCH  11  12
ENDBRANCH  10  11
ENDBRANCH   6  10
TORSDOF 3
ENDMDL
MODEL 3
REMARK VINA RESULT:      -6.4      4.252      5.607
REMARK  Name = *****
REMARK                            x       y       z     vdW  Elec       q    Type
REMARK                         _______ _______ _______ _____ _____    ______ ____
ROOT
ATOM      1 CL   LIG    1       22.169 -20.641   5.169  0.00  0.00    -0.082 Cl
ATOM      2  C   LIG    1       23.846 -20.559   5.574  0.00  0.00    +0.061 A 
ATOM      3  C   LIG    1       24.835 -20.281   4.625  0.00  0.00    +0.063 A 
ATOM      4 CL   LIG    1       24.463 -19.992   2.962  0.00  0.00    -0.082 Cl
ATOM      5  C   LIG    1       26.182 -20.226   5.006  0.00  0.00    +0.068 A 
ATOM      6  C   LIG    1       26.554 -20.443   6.337  0.00  0.00    +0.142 A 
ATOM      7  C   LIG    1       25.551 -20.721   7.281  0.00  0.00    +0.084 A 
ATOM      8 CL   LIG    1       25.933 -20.999   8.944  0.00  0.00    -0.080 Cl
ATOM      9  C   LIG    1       24.206 -20.780   6.903  0.00  0.00    +0.045 A 
ENDROOT
BRANCH   6  10
ATOM     10  O   LIG    1       27.844 -20.402   6.800  0.00  0.00    -0.478 OA
BRANCH  10  11
ATOM     11  C   LIG    1       28.774 -19.564   6.118  0.00  0.00    +0.318 C 
BRANCH  11  12
ATOM     12  C   LIG    1       29.669 -18.938   7.096  0.00  0.00    -0.050 C 
ATOM     13  C   LIG    1       30.382 -18.423   7.914  0.00  0.00    -0.027 C 
ATOM     14  I   LIG    1       31.593 -17.531   9.344  0.00  0.00    +0.018 I 
ENDBRANCH  11  12
ENDBRANCH  10  11
ENDBRANCH   6  10
TORSDOF 3
ENDMDL
MODEL 4
REMARK VINA RESULT:      -6.3      1.767      2.624
REMARK  Name = *****
REMARK                            x       y       z     vdW  Elec       q    Type
REMARK                         _______ _______ _______ _____ _____    ______ ____
ROOT
ATOM      1 CL   LIG    1       22.244 -18.516   4.774  0.00  0.00    -0.082 Cl
ATOM      2  C   LIG    1       23.140 -19.973   5.009  0.00  0.00    +0.061 A 
ATOM      3  C   LIG    1       24.434 -20.147   4.511  0.00  0.00    +0.063 A 
ATOM      4 CL   LIG    1       25.253 -18.914   3.617  0.00  0.00    -0.082 Cl
ATOM      5  C   LIG    1       25.118 -21.350   4.729  0.00  0.00    +0.068 A 
ATOM      6  C   LIG    1       24.519 -22.388   5.450  0.00  0.00    +0.142 A 
ATOM      7  C   LIG    1       23.217 -22.201   5.947  0.00  0.00    +0.084 A 
ATOM      8 CL   LIG    1       22.411 -23.437   6.848  0.00  0.00    -0.080 Cl
ATOM      9  C   LIG    1       22.531 -21.003   5.727  0.00  0.00    +0.045 A 
ENDROOT
BRANCH   6  10
ATOM     10  O   LIG    1       25.114 -23.593   5.718  0.00  0.00    -0.478 OA
BRANCH  10  11
ATOM     11  C   LIG    1       24.990 -24.633   4.750  0.00  0.00    +0.318 C 
BRANCH  11  12
ATOM     12  C   LIG    1       24.908 -25.926   5.436  0.00  0.00    -0.050 C 
ATOM     13  C   LIG    1       24.847 -26.997   5.976  0.00  0.00    -0.027 C 
ATOM     14  I   LIG    1       24.750 -28.860   6.886  0.00  0.00    +0.018 I 
ENDBRANCH  11  12
ENDBRANCH  10  11
ENDBRANCH   6  10
TORSDOF 3
ENDMDL
MODEL 5
REMARK VINA RESULT:      -6.1      3.099      4.599
REMARK  Name = *****
REMARK                            x       y       z     vdW  Elec       q    Type
REMARK                         _______ _______ _______ _____ _____    ______ ____
ROOT
ATOM      1 CL   LIG    1       30.939 -19.163   6.516  0.00  0.00    -0.082 Cl
ATOM      2  C   LIG    1       29.428 -19.988   6.649  0.00  0.00    +0.061 A 
ATOM      3  C   LIG    1       29.196 -20.980   7.606  0.00  0.00    +0.063 A 
ATOM      4 CL   LIG    1       30.405 -21.467   8.742  0.00  0.00    -0.082 Cl
ATOM      5  C   LIG    1       27.951 -21.620   7.671  0.00  0.00    +0.068 A 
ATOM      6  C   LIG    1       26.925 -21.271   6.787  0.00  0.00    +0.142 A 
ATOM      7  C   LIG    1       27.170 -20.270   5.830  0.00  0.00    +0.084 A 
ATOM      8 CL   LIG    1       25.952 -19.784   4.704  0.00  0.00    -0.080 Cl
ATOM      9  C   LIG    1       28.413 -19.634   5.760  0.00  0.00    +0.045 A 
ENDROOT
BRANCH   6  10
ATOM     10  O   LIG    1       25.677 -21.836   6.783  0.00  0.00    -0.478 OA
BRANCH  10  11
ATOM     11  C   LIG    1       25.441 -22.947   7.645  0.00  0.00    +0.318 C 
BRANCH  11  12
ATOM     12  C   LIG    1       25.541 -24.188   6.872  0.00  0.00    -0.050 C 
ATOM     13  C   LIG    1       25.643 -25.212   6.253  0.00  0.00    -0.027 C 
ATOM     14  I   LIG    1       25.841 -26.989   5.199  0.00  0.00    +0.018 I 
ENDBRANCH  11  12
ENDBRANCH  10  11
ENDBRANCH   6  10
TORSDOF 3
ENDMDL
MODEL 6
REMARK VINA RESULT:      -6.1      1.584      3.105
REMARK  Name = *****
REMARK                            x       y       z     vdW  Elec       q    Type
REMARK                         _______ _______ _______ _____ _____    ______ ____
ROOT
ATOM      1 CL   LIG    1       28.030 -19.616   5.380  0.00  0.00    -0.082 Cl
ATOM      2  C   LIG    1       26.664 -20.423   6.062  0.00  0.00    +0.061 A 
ATOM      3  C   LIG    1       26.767 -21.266   7.171  0.00  0.00    +0.063 A 
ATOM      4 CL   LIG    1       28.275 -21.573   7.961  0.00  0.00    -0.082 Cl
ATOM      5  C   LIG    1       25.628 -21.899   7.686  0.00  0.00    +0.068 A 
ATOM      6  C   LIG    1       24.374 -21.690   7.101  0.00  0.00    +0.142 A 
ATOM      7  C   LIG    1       24.283 -20.838   5.986  0.00  0.00    +0.084 A 
ATOM      8 CL   LIG    1       22.769 -20.531   5.210  0.00  0.00    -0.080 Cl
ATOM      9  C   LIG    1       25.419 -20.210   5.469  0.00  0.00    +0.045 A 
ENDROOT
BRANCH   6  10
ATOM     10  O   LIG    1       23.207 -22.258   7.541  0.00  0.00    -0.478 OA
BRANCH  10  11
ATOM     11  C   LIG    1       22.609 -23.271   6.735  0.00  0.00    +0.318 C 
BRANCH  11  12
ATOM     12  C   LIG    1       23.563 -24.369   6.552  0.00  0.00    -0.050 C 
ATOM     13  C   LIG    1       24.357 -25.254   6.384  0.00  0.00    -0.027 C 
ATOM     14  I   LIG    1       25.744 -26.768   6.079  0.00  0.00    +0.018 I 
ENDBRANCH  11  12
ENDBRANCH  10  11
ENDBRANCH   6  10
TORSDOF 3
ENDMDL
MODEL 7
REMARK VINA RESULT:      -5.9      4.482      6.011
REMARK  Name = *****
REMARK                            x       y       z     vdW  Elec       q    Type
REMARK                         _______ _______ _______ _____ _____    ______ ____
ROOT
ATOM      1 CL   LIG    1       22.270 -23.437   6.653  0.00  0.00    -0.082 Cl
ATOM      2  C   LIG    1       23.932 -23.069   6.947  0.00  0.00    +0.061 A 
ATOM      3  C   LIG    1       24.975 -23.832   6.415  0.00  0.00    +0.063 A 
ATOM      4 CL   LIG    1       24.692 -25.212   5.412  0.00  0.00    -0.082 Cl
ATOM      5  C   LIG    1       26.307 -23.491   6.685  0.00  0.00    +0.068 A 
ATOM      6  C   LIG    1       26.609 -22.383   7.482  0.00  0.00    +0.142 A 
ATOM      7  C   LIG    1       25.552 -21.623   8.011  0.00  0.00    +0.084 A 
ATOM      8 CL   LIG    1       25.846 -20.239   9.005  0.00  0.00    -0.080 Cl
ATOM      9  C   LIG    1       24.222 -21.964   7.747  0.00  0.00    +0.045 A 
ENDROOT
BRANCH   6  10
ATOM     10  O   LIG    1       27.880 -21.971   7.792  0.00  0.00    -0.478 OA
BRANCH  10  11
ATOM     11  C   LIG    1       28.534 -21.080   6.891  0.00  0.00    +0.318 C 
BRANCH  11  12
ATOM     12  C   LIG    1       29.186 -20.012   7.654  0.00  0.00    -0.050 C 
ATOM     13  C   LIG    1       29.705 -19.143   8.300  0.00  0.00    -0.027 C 
ATOM     14  I   LIG    1       30.589 -17.648   9.438  0.00  0.00    +0.018 I 
ENDBRANCH  11  12
ENDBRANCH  10  11
ENDBRANCH   6  10
TORSDOF 3
ENDMDL
MODEL 8
REMARK VINA RESULT:      -5.8      3.864      5.373
REMARK  Name = *****
REMARK                            x       y       z     vdW  Elec       q    Type
REMARK                         _______ _______ _______ _____ _____    ______ ____
ROOT
ATOM      1 CL   LIG    1       21.419 -21.114   4.654  0.00  0.00    -0.082 Cl
ATOM      2  C   LIG    1       23.090 -20.839   4.990  0.00  0.00    +0.061 A 
ATOM      3  C   LIG    1       23.780 -21.537   5.985  0.00  0.00    +0.063 A 
ATOM      4 CL   LIG    1       23.019 -22.741   6.966  0.00  0.00    -0.082 Cl
ATOM      5  C   LIG    1       25.137 -21.275   6.219  0.00  0.00    +0.068 A 
ATOM      6  C   LIG    1       25.818 -20.319   5.458  0.00  0.00    +0.142 A 
ATOM      7  C   LIG    1       25.113 -19.624   4.460  0.00  0.00    +0.084 A 
ATOM      8 CL   LIG    1       25.885 -18.429   3.479  0.00  0.00    -0.080 Cl
ATOM      9  C   LIG    1       23.758 -19.881   4.228  0.00  0.00    +0.045 A 
ENDROOT
BRANCH   6  10
ATOM     10  O   LIG    1       27.143 -20.004   5.611  0.00  0.00    -0.478 OA
BRANCH  10  11
ATOM     11  C   LIG    1       27.912 -20.770   6.535  0.00  0.00    +0.318 C 
BRANCH  11  12
ATOM     12  C   LIG    1       28.739 -19.867   7.341  0.00  0.00    -0.050 C 
ATOM     13  C   LIG    1       29.417 -19.145   8.021  0.00  0.00    -0.027 C 
ATOM     14  I   LIG    1       30.588 -17.916   9.215  0.00  0.00    +0.018 I 
ENDBRANCH  11  12
ENDBRANCH  10  11
ENDBRANCH   6  10
TORSDOF 3
ENDMDL
MODEL 9
REMARK VINA RESULT:      -5.8      4.321      6.586
REMARK  Name = *****
REMARK                            x       y       z     vdW  Elec       q    Type
REMARK                         _______ _______ _______ _____ _____    ______ ____
ROOT
ATOM      1 CL   LIG    1       22.534 -23.155   6.869  0.00  0.00    -0.082 Cl
ATOM      2  C   LIG    1       23.198 -21.876   5.917  0.00  0.00    +0.061 A 
ATOM      3  C   LIG    1       24.557 -21.807   5.597  0.00  0.00    +0.063 A 
ATOM      4 CL   LIG    1       25.693 -22.998   6.127  0.00  0.00    -0.082 Cl
ATOM      5  C   LIG    1       25.046 -20.747   4.821  0.00  0.00    +0.068 A 
ATOM      6  C   LIG    1       24.182 -19.752   4.353  0.00  0.00    +0.142 A 
ATOM      7  C   LIG    1       22.818 -19.833   4.680  0.00  0.00    +0.084 A 
ATOM      8 CL   LIG    1       21.689 -18.642   4.137  0.00  0.00    -0.080 Cl
ATOM      9  C   LIG    1       22.329 -20.887   5.457  0.00  0.00    +0.045 A 
ENDROOT
BRANCH   6  10
ATOM     10  O   LIG    1       24.570 -18.686   3.583  0.00  0.00    -0.478 OA
BRANCH  10  11
ATOM     11  C   LIG    1       25.967 -18.447   3.423  0.00  0.00    +0.318 C 
BRANCH  11  12
ATOM     12  C   LIG    1       26.207 -17.002   3.365  0.00  0.00    -0.050 C 
ATOM     13  C   LIG    1       26.429 -15.823   3.317  0.00  0.00    -0.027 C 
ATOM     14  I   LIG    1       26.840 -13.790   3.233  0.00  0.00    +0.018 I 
ENDBRANCH  11  12
ENDBRANCH  10  11
ENDBRANCH   6  10
TORSDOF 3
ENDMDL
