MODEL 1
REMARK VINA RESULT:      -6.9      0.000      0.000
REMARK  Name = *****
REMARK                            x       y       z     vdW  Elec       q    Type
REMARK                         _______ _______ _______ _____ _____    ______ ____
ROOT
ATOM      1  C   LIG    1       28.239 -20.945   7.236  0.00  0.00    +0.240 C 
ENDROOT
BRANCH   1   2
ATOM      2  C   LIG    1       29.401 -21.107   8.239  0.00  0.00    +0.220 C 
BRANCH   2   3
ATOM      3  O   LIG    1       29.905 -19.889   8.759  0.00  0.00    -0.283 OA
BRANCH   3   4
ATOM      4  P   LIG    1       31.496 -19.769   9.004  0.00  0.00    +0.475 P 
ATOM      5  O   LIG    1       32.208 -21.060   9.234  0.00  0.00    -0.227 OA
BRANCH   4   6
ATOM      6  O   LIG    1       31.947 -19.096   7.622  0.00  0.00    -0.302 OA
ATOM      7  H   LIG    1       31.719 -18.145   7.632  0.00  0.00    +0.222 HD
ENDBRANCH   4   6
BRANCH   4   8
ATOM      8  O   LIG    1       31.726 -18.603  10.106  0.00  0.00    -0.284 OA
BRANCH   8   9
ATOM      9  C   LIG    1       30.655 -17.692  10.396  0.00  0.00    +0.205 C 
BRANCH   9  10
ATOM     10  C   LIG    1       31.167 -16.250  10.664  0.00  0.00    +0.166 C 
BRANCH  10  11
ATOM     11  O   LIG    1       31.174 -15.974  12.071  0.00  0.00    -0.387 OA
ATOM     12  H   LIG    1       31.355 -16.810  12.540  0.00  0.00    +0.210 HD
ENDBRANCH  10  11
BRANCH  10  13
ATOM     13  C   LIG    1       32.566 -16.003  10.079  0.00  0.00    +0.189 C 
BRANCH  13  14
ATOM     14  O   LIG    1       32.587 -16.273   8.679  0.00  0.00    -0.392 OA
ATOM     15  H   LIG    1       33.519 -16.424   8.427  0.00  0.00    +0.209 HD
ENDBRANCH  13  14
ENDBRANCH  10  13
ENDBRANCH   9  10
ENDBRANCH   8   9
ENDBRANCH   4   8
ENDBRANCH   3   4
ENDBRANCH   2   3
ENDBRANCH   1   2
BRANCH   1  16
ATOM     16  O   LIG    1       27.477 -22.201   7.216  0.00  0.00    -0.456 OA
BRANCH  16  17
ATOM     17  C   LIG    1       26.364 -22.247   8.040  0.00  0.00    +0.307 C 
ATOM     18  O   LIG    1       26.199 -21.479   8.981  0.00  0.00    -0.251 OA
BRANCH  17  19
ATOM     19  C   LIG    1       25.348 -23.359   7.677  0.00  0.00    +0.120 C 
BRANCH  19  20
ATOM     20  C   LIG    1       25.858 -24.544   6.807  0.00  0.00    +0.011 C 
BRANCH  20  21
ATOM     21  C   LIG    1       25.077 -24.863   5.489  0.00  0.00    +0.000 C 
BRANCH  21  22
ATOM     22  C   LIG    1       24.869 -26.328   5.013  0.00  0.00    +0.000 C 
BRANCH  22  23
ATOM     23  C   LIG    1       24.342 -27.328   6.077  0.00  0.00    +0.000 C 
BRANCH  23  24
ATOM     24  C   LIG    1       25.397 -28.388   6.524  0.00  0.00    +0.004 C 
BRANCH  24  25
ATOM     25  C   LIG    1       24.970 -29.313   7.697  0.00  0.00    +0.027 C 
BRANCH  25  27
ATOM     26  C   LIG    1       26.628 -28.601   9.565  0.00  0.00    -0.031 C 
ATOM     27  C   LIG    1       25.391 -28.890   9.110  0.00  0.00    -0.031 C 
BRANCH  26  28
ATOM     28  C   LIG    1       26.933 -28.053  10.953  0.00  0.00    +0.027 C 
BRANCH  28  29
ATOM     29  C   LIG    1       26.126 -28.681  12.103  0.00  0.00    +0.004 C 
BRANCH  29  30
ATOM     30  C   LIG    1       25.909 -27.752  13.320  0.00  0.00    +0.000 C 
BRANCH  30  31
ATOM     31  C   LIG    1       25.321 -26.344  13.135  0.00  0.00    +0.000 C 
BRANCH  31  32
ATOM     32  C   LIG    1       24.012 -25.944  13.827  0.00  0.00    -0.000 C 
BRANCH  32  33
ATOM     33  C   LIG    1       22.696 -26.540  13.315  0.00  0.00    -0.000 C 
BRANCH  33  35
ATOM     34  C   LIG    1       22.243 -28.877  12.336  0.00  0.00    +0.004 C 
ATOM     35  C   LIG    1       22.628 -28.061  13.565  0.00  0.00    -0.003 C 
ENDBRANCH  33  35
ENDBRANCH  32  33
ENDBRANCH  31  32
ENDBRANCH  30  31
ENDBRANCH  29  30
ENDBRANCH  28  29
ENDBRANCH  26  28
ENDBRANCH  25  27
ENDBRANCH  24  25
ENDBRANCH  23  24
ENDBRANCH  22  23
ENDBRANCH  21  22
ENDBRANCH  20  21
ENDBRANCH  19  20
ENDBRANCH  17  19
ENDBRANCH  16  17
ENDBRANCH   1  16
BRANCH   1  36
ATOM     36  C   LIG    1       28.698 -20.358   5.852  0.00  0.00    +0.279 C 
BRANCH  36  37
ATOM     37  O   LIG    1       27.966 -19.224   5.319  0.00  0.00    -0.461 OA
BRANCH  37  38
ATOM     38  C   LIG    1       28.579 -18.047   5.116  0.00  0.00    +0.307 C 
ATOM     39  O   LIG    1       29.686 -17.723   5.673  0.00  0.00    -0.251 OA
BRANCH  38  40
ATOM     40  C   LIG    1       27.808 -17.147   4.196  0.00  0.00    +0.120 C 
BRANCH  40  41
ATOM     41  C   LIG    1       27.750 -15.649   4.568  0.00  0.00    +0.011 C 
BRANCH  41  42
ATOM     42  C   LIG    1       27.459 -14.667   3.383  0.00  0.00    +0.000 C 
BRANCH  42  43
ATOM     43  C   LIG    1       25.957 -14.415   3.054  0.00  0.00    +0.000 C 
BRANCH  43  44
ATOM     44  C   LIG    1       25.091 -13.718   4.173  0.00  0.00    -0.000 C 
BRANCH  44  45
ATOM     45  C   LIG    1       23.724 -14.430   4.431  0.00  0.00    -0.000 C 
BRANCH  45  46
ATOM     46  C   LIG    1       23.590 -15.981   4.202  0.00  0.00    -0.000 C 
BRANCH  46  47
ATOM     47  C   LIG    1       22.303 -16.678   4.733  0.00  0.00    -0.000 C 
BRANCH  47  48
ATOM     48  C   LIG    1       22.305 -18.234   4.660  0.00  0.00    -0.000 C 
BRANCH  48  49
ATOM     49  C   LIG    1       23.157 -18.862   3.515  0.00  0.00    -0.000 C 
BRANCH  49  50
ATOM     50  C   LIG    1       24.664 -19.116   3.774  0.00  0.00    -0.000 C 
BRANCH  50  51
ATOM     51  C   LIG    1       24.916 -20.400   4.566  0.00  0.00    -0.000 C 
BRANCH  51  52
ATOM     52  C   LIG    1       23.765 -21.418   4.669  0.00  0.00    -0.000 C 
BRANCH  52  53
ATOM     53  C   LIG    1       22.967 -21.610   5.972  0.00  0.00    -0.003 C 
ATOM     54  C   LIG    1       23.167 -20.672   7.158  0.00  0.00    +0.004 C 
ENDBRANCH  52  53
ENDBRANCH  51  52
ENDBRANCH  50  51
ENDBRANCH  49  50
ENDBRANCH  48  49
ENDBRANCH  47  48
ENDBRANCH  46  47
ENDBRANCH  45  46
ENDBRANCH  44  45
ENDBRANCH  43  44
ENDBRANCH  42  43
ENDBRANCH  41  42
ENDBRANCH  40  41
ENDBRANCH  38  40
ENDBRANCH  37  38
ENDBRANCH  36  37
ENDBRANCH   1  36
TORSDOF 44
ENDMDL
MODEL 2
REMARK VINA RESULT:      -6.8      5.106     12.391
REMARK  Name = *****
REMARK                            x       y       z     vdW  Elec       q    Type
REMARK                         _______ _______ _______ _____ _____    ______ ____
ROOT
ATOM      1  C   LIG    1       24.836 -28.688   5.996  0.00  0.00    +0.240 C 
ENDROOT
BRANCH   1   2
ATOM      2  C   LIG    1       24.723 -30.172   5.587  0.00  0.00    +0.220 C 
BRANCH   2   3
ATOM      3  O   LIG    1       25.958 -30.793   5.274  0.00  0.00    -0.283 OA
BRANCH   3   4
ATOM      4  P   LIG    1       26.139 -32.353   5.645  0.00  0.00    +0.475 P 
ATOM      5  O   LIG    1       26.343 -33.268   4.482  0.00  0.00    -0.227 OA
BRANCH   4   6
ATOM      6  O   LIG    1       27.449 -32.278   6.562  0.00  0.00    -0.302 OA
ATOM      7  H   LIG    1       27.200 -32.007   7.467  0.00  0.00    +0.222 HD
ENDBRANCH   4   6
BRANCH   4   8
ATOM      8  O   LIG    1       24.953 -32.743   6.678  0.00  0.00    -0.284 OA
BRANCH   8   9
ATOM      9  C   LIG    1       25.217 -33.694   7.721  0.00  0.00    +0.205 C 
BRANCH   9  10
ATOM     10  C   LIG    1       24.222 -33.558   8.906  0.00  0.00    +0.166 C 
BRANCH  10  11
ATOM     11  O   LIG    1       24.829 -32.843   9.990  0.00  0.00    -0.387 OA
ATOM     12  H   LIG    1       24.149 -32.703  10.675  0.00  0.00    +0.210 HD
ENDBRANCH  10  11
BRANCH  10  13
ATOM     13  C   LIG    1       22.911 -32.871   8.498  0.00  0.00    +0.189 C 
BRANCH  13  14
ATOM     14  O   LIG    1       23.105 -31.471   8.310  0.00  0.00    -0.392 OA
ATOM     15  H   LIG    1       22.825 -31.258   7.398  0.00  0.00    +0.209 HD
ENDBRANCH  13  14
ENDBRANCH  10  13
ENDBRANCH   9  10
ENDBRANCH   8   9
ENDBRANCH   4   8
ENDBRANCH   3   4
ENDBRANCH   2   3
ENDBRANCH   1   2
BRANCH   1  16
ATOM     16  O   LIG    1       25.575 -27.980   4.942  0.00  0.00    -0.456 OA
BRANCH  16  17
ATOM     17  C   LIG    1       26.034 -26.714   5.271  0.00  0.00    +0.307 C 
ATOM     18  O   LIG    1       27.148 -26.509   5.736  0.00  0.00    -0.251 OA
BRANCH  17  19
ATOM     19  C   LIG    1       25.012 -25.579   5.007  0.00  0.00    +0.120 C 
BRANCH  19  20
ATOM     20  C   LIG    1       23.995 -25.248   6.137  0.00  0.00    +0.011 C 
BRANCH  20  21
ATOM     21  C   LIG    1       24.111 -23.849   6.829  0.00  0.00    +0.000 C 
BRANCH  21  22
ATOM     22  C   LIG    1       22.912 -22.860   6.847  0.00  0.00    +0.000 C 
BRANCH  22  23
ATOM     23  C   LIG    1       23.243 -21.383   7.191  0.00  0.00    +0.000 C 
BRANCH  23  24
ATOM     24  C   LIG    1       23.308 -20.444   5.946  0.00  0.00    +0.004 C 
BRANCH  24  25
ATOM     25  C   LIG    1       24.669 -20.403   5.200  0.00  0.00    +0.027 C 
BRANCH  25  27
ATOM     26  C   LIG    1       26.290 -20.393   7.230  0.00  0.00    -0.031 C 
ATOM     27  C   LIG    1       25.917 -20.801   5.999  0.00  0.00    -0.031 C 
BRANCH  26  28
ATOM     28  C   LIG    1       27.478 -20.951   8.003  0.00  0.00    +0.027 C 
BRANCH  28  29
ATOM     29  C   LIG    1       28.740 -21.225   7.166  0.00  0.00    +0.004 C 
BRANCH  29  30
ATOM     30  C   LIG    1       29.991 -20.428   7.607  0.00  0.00    +0.000 C 
BRANCH  30  31
ATOM     31  C   LIG    1       30.106 -18.925   7.308  0.00  0.00    +0.000 C 
BRANCH  31  32
ATOM     32  C   LIG    1       30.672 -17.959   8.355  0.00  0.00    -0.000 C 
BRANCH  32  33
ATOM     33  C   LIG    1       30.007 -17.895   9.735  0.00  0.00    -0.000 C 
BRANCH  33  35
ATOM     34  C   LIG    1       32.224 -16.968  10.659  0.00  0.00    +0.004 C 
ATOM     35  C   LIG    1       30.702 -16.867  10.651  0.00  0.00    -0.003 C 
ENDBRANCH  33  35
ENDBRANCH  32  33
ENDBRANCH  31  32
ENDBRANCH  30  31
ENDBRANCH  29  30
ENDBRANCH  28  29
ENDBRANCH  26  28
ENDBRANCH  25  27
ENDBRANCH  24  25
ENDBRANCH  23  24
ENDBRANCH  22  23
ENDBRANCH  21  22
ENDBRANCH  20  21
ENDBRANCH  19  20
ENDBRANCH  17  19
ENDBRANCH  16  17
ENDBRANCH   1  16
BRANCH   1  36
ATOM     36  C   LIG    1       25.330 -28.495   7.476  0.00  0.00    +0.279 C 
BRANCH  36  37
ATOM     37  O   LIG    1       25.327 -29.654   8.350  0.00  0.00    -0.461 OA
BRANCH  37  38
ATOM     38  C   LIG    1       26.394 -29.939   9.113  0.00  0.00    +0.307 C 
ATOM     39  O   LIG    1       27.002 -31.066   9.082  0.00  0.00    -0.251 OA
BRANCH  38  40
ATOM     40  C   LIG    1       26.768 -28.809  10.026  0.00  0.00    +0.120 C 
BRANCH  40  41
ATOM     41  C   LIG    1       27.559 -29.171  11.301  0.00  0.00    +0.011 C 
BRANCH  41  42
ATOM     42  C   LIG    1       27.301 -28.253  12.543  0.00  0.00    +0.000 C 
BRANCH  42  43
ATOM     43  C   LIG    1       26.804 -26.808  12.237  0.00  0.00    +0.000 C 
BRANCH  43  44
ATOM     44  C   LIG    1       26.237 -25.978  13.452  0.00  0.00    -0.000 C 
BRANCH  44  45
ATOM     45  C   LIG    1       25.579 -26.868  14.557  0.00  0.00    -0.000 C 
BRANCH  45  46
ATOM     46  C   LIG    1       24.017 -27.056  14.588  0.00  0.00    -0.000 C 
BRANCH  46  47
ATOM     47  C   LIG    1       23.213 -26.592  13.340  0.00  0.00    -0.000 C 
BRANCH  47  48
ATOM     48  C   LIG    1       21.679 -26.425  13.556  0.00  0.00    -0.000 C 
BRANCH  48  49
ATOM     49  C   LIG    1       20.773 -27.487  12.859  0.00  0.00    -0.000 C 
BRANCH  49  50
ATOM     50  C   LIG    1       20.964 -28.977  13.238  0.00  0.00    -0.000 C 
BRANCH  50  51
ATOM     51  C   LIG    1       20.893 -29.906  12.025  0.00  0.00    -0.000 C 
BRANCH  51  52
ATOM     52  C   LIG    1       22.183 -30.130  11.215  0.00  0.00    -0.000 C 
BRANCH  52  53
ATOM     53  C   LIG    1       23.557 -29.670  11.735  0.00  0.00    -0.003 C 
ATOM     54  C   LIG    1       24.366 -30.541  12.690  0.00  0.00    +0.004 C 
ENDBRANCH  52  53
ENDBRANCH  51  52
ENDBRANCH  50  51
ENDBRANCH  49  50
ENDBRANCH  48  49
ENDBRANCH  47  48
ENDBRANCH  46  47
ENDBRANCH  45  46
ENDBRANCH  44  45
ENDBRANCH  43  44
ENDBRANCH  42  43
ENDBRANCH  41  42
ENDBRANCH  40  41
ENDBRANCH  38  40
ENDBRANCH  37  38
ENDBRANCH  36  37
ENDBRANCH   1  36
TORSDOF 44
ENDMDL
MODEL 3
REMARK VINA RESULT:      -6.7      5.036     12.809
REMARK  Name = *****
REMARK                            x       y       z     vdW  Elec       q    Type
REMARK                         _______ _______ _______ _____ _____    ______ ____
ROOT
ATOM      1  C   LIG    1       24.691 -28.291   6.494  0.00  0.00    +0.240 C 
ENDROOT
BRANCH   1   2
ATOM      2  C   LIG    1       24.632 -29.630   5.731  0.00  0.00    +0.220 C 
BRANCH   2   3
ATOM      3  O   LIG    1       23.656 -30.539   6.209  0.00  0.00    -0.283 OA
BRANCH   3   4
ATOM      4  P   LIG    1       24.051 -32.102   6.295  0.00  0.00    +0.475 P 
ATOM      5  O   LIG    1       24.277 -32.779   4.984  0.00  0.00    -0.227 OA
BRANCH   4   6
ATOM      6  O   LIG    1       25.407 -32.007   7.141  0.00  0.00    -0.302 OA
ATOM      7  H   LIG    1       25.448 -31.144   7.599  0.00  0.00    +0.222 HD
ENDBRANCH   4   6
BRANCH   4   8
ATOM      8  O   LIG    1       23.001 -32.808   7.308  0.00  0.00    -0.284 OA
BRANCH   8   9
ATOM      9  C   LIG    1       23.484 -33.369   8.538  0.00  0.00    +0.205 C 
BRANCH   9  10
ATOM     10  C   LIG    1       22.789 -32.746   9.781  0.00  0.00    +0.166 C 
BRANCH  10  11
ATOM     11  O   LIG    1       22.912 -33.616  10.912  0.00  0.00    -0.387 OA
ATOM     12  H   LIG    1       22.117 -33.503  11.466  0.00  0.00    +0.210 HD
ENDBRANCH  10  11
BRANCH  10  13
ATOM     13  C   LIG    1       23.342 -31.356  10.129  0.00  0.00    +0.189 C 
BRANCH  13  14
ATOM     14  O   LIG    1       22.990 -30.402   9.130  0.00  0.00    -0.392 OA
ATOM     15  H   LIG    1       23.785 -29.861   8.952  0.00  0.00    +0.209 HD
ENDBRANCH  13  14
ENDBRANCH  10  13
ENDBRANCH   9  10
ENDBRANCH   8   9
ENDBRANCH   4   8
ENDBRANCH   3   4
ENDBRANCH   2   3
ENDBRANCH   1   2
BRANCH   1  16
ATOM     16  O   LIG    1       24.874 -27.214   5.511  0.00  0.00    -0.456 OA
BRANCH  16  17
ATOM     17  C   LIG    1       25.788 -26.230   5.854  0.00  0.00    +0.307 C 
ATOM     18  O   LIG    1       26.992 -26.338   5.650  0.00  0.00    -0.251 OA
BRANCH  17  19
ATOM     19  C   LIG    1       25.159 -24.983   6.526  0.00  0.00    +0.120 C 
BRANCH  19  20
ATOM     20  C   LIG    1       23.651 -24.708   6.264  0.00  0.00    +0.011 C 
BRANCH  20  21
ATOM     21  C   LIG    1       23.034 -23.407   6.878  0.00  0.00    +0.000 C 
BRANCH  21  22
ATOM     22  C   LIG    1       23.939 -22.229   7.339  0.00  0.00    +0.000 C 
BRANCH  22  23
ATOM     23  C   LIG    1       23.340 -20.805   7.194  0.00  0.00    +0.000 C 
BRANCH  23  24
ATOM     24  C   LIG    1       23.168 -20.340   5.714  0.00  0.00    +0.004 C 
BRANCH  24  25
ATOM     25  C   LIG    1       24.247 -20.843   4.717  0.00  0.00    +0.027 C 
BRANCH  25  27
ATOM     26  C   LIG    1       26.623 -20.313   5.622  0.00  0.00    -0.031 C 
ATOM     27  C   LIG    1       25.610 -20.141   4.747  0.00  0.00    -0.031 C 
BRANCH  26  28
ATOM     28  C   LIG    1       27.998 -19.671   5.491  0.00  0.00    +0.027 C 
BRANCH  28  29
ATOM     29  C   LIG    1       28.858 -19.685   6.766  0.00  0.00    +0.004 C 
BRANCH  29  30
ATOM     30  C   LIG    1       30.197 -18.921   6.649  0.00  0.00    +0.000 C 
BRANCH  30  31
ATOM     31  C   LIG    1       31.329 -19.163   7.661  0.00  0.00    +0.000 C 
BRANCH  31  32
ATOM     32  C   LIG    1       31.591 -18.168   8.797  0.00  0.00    -0.000 C 
BRANCH  32  33
ATOM     33  C   LIG    1       30.419 -17.340   9.336  0.00  0.00    -0.000 C 
BRANCH  33  35
ATOM     34  C   LIG    1       31.592 -16.938  11.592  0.00  0.00    +0.004 C 
ATOM     35  C   LIG    1       30.333 -17.415  10.874  0.00  0.00    -0.003 C 
ENDBRANCH  33  35
ENDBRANCH  32  33
ENDBRANCH  31  32
ENDBRANCH  30  31
ENDBRANCH  29  30
ENDBRANCH  28  29
ENDBRANCH  26  28
ENDBRANCH  25  27
ENDBRANCH  24  25
ENDBRANCH  23  24
ENDBRANCH  22  23
ENDBRANCH  21  22
ENDBRANCH  20  21
ENDBRANCH  19  20
ENDBRANCH  17  19
ENDBRANCH  16  17
ENDBRANCH   1  16
BRANCH   1  36
ATOM     36  C   LIG    1       25.677 -28.323   7.718  0.00  0.00    +0.279 C 
BRANCH  36  37
ATOM     37  O   LIG    1       25.844 -29.582   8.422  0.00  0.00    -0.461 OA
BRANCH  37  38
ATOM     38  C   LIG    1       26.638 -29.662   9.502  0.00  0.00    +0.307 C 
ATOM     39  O   LIG    1       27.147 -30.760   9.922  0.00  0.00    -0.251 OA
BRANCH  38  40
ATOM     40  C   LIG    1       26.829 -28.337  10.177  0.00  0.00    +0.120 C 
BRANCH  40  41
ATOM     41  C   LIG    1       26.624 -28.293  11.706  0.00  0.00    +0.011 C 
BRANCH  41  42
ATOM     42  C   LIG    1       25.258 -28.857  12.224  0.00  0.00    +0.000 C 
BRANCH  42  43
ATOM     43  C   LIG    1       25.338 -29.867  13.409  0.00  0.00    +0.000 C 
BRANCH  43  44
ATOM     44  C   LIG    1       24.428 -29.567  14.661  0.00  0.00    -0.000 C 
BRANCH  44  45
ATOM     45  C   LIG    1       23.291 -30.620  14.866  0.00  0.00    -0.000 C 
BRANCH  45  46
ATOM     46  C   LIG    1       22.296 -30.941  13.691  0.00  0.00    -0.000 C 
BRANCH  46  47
ATOM     47  C   LIG    1       21.172 -29.905  13.397  0.00  0.00    -0.000 C 
BRANCH  47  48
ATOM     48  C   LIG    1       21.574 -28.729  12.458  0.00  0.00    -0.000 C 
BRANCH  48  49
ATOM     49  C   LIG    1       21.392 -27.296  13.045  0.00  0.00    -0.000 C 
BRANCH  49  50
ATOM     50  C   LIG    1       21.644 -27.084  14.560  0.00  0.00    -0.000 C 
BRANCH  50  51
ATOM     51  C   LIG    1       22.837 -26.167  14.834  0.00  0.00    -0.000 C 
BRANCH  51  52
ATOM     52  C   LIG    1       23.863 -25.964  13.704  0.00  0.00    -0.000 C 
BRANCH  52  53
ATOM     53  C   LIG    1       24.998 -24.929  13.815  0.00  0.00    -0.003 C 
ATOM     54  C   LIG    1       26.454 -25.339  13.621  0.00  0.00    +0.004 C 
ENDBRANCH  52  53
ENDBRANCH  51  52
ENDBRANCH  50  51
ENDBRANCH  49  50
ENDBRANCH  48  49
ENDBRANCH  47  48
ENDBRANCH  46  47
ENDBRANCH  45  46
ENDBRANCH  44  45
ENDBRANCH  43  44
ENDBRANCH  42  43
ENDBRANCH  41  42
ENDBRANCH  40  41
ENDBRANCH  38  40
ENDBRANCH  37  38
ENDBRANCH  36  37
ENDBRANCH   1  36
TORSDOF 44
ENDMDL
MODEL 4
REMARK VINA RESULT:      -6.5      5.429     12.337
REMARK  Name = *****
REMARK                            x       y       z     vdW  Elec       q    Type
REMARK                         _______ _______ _______ _____ _____    ______ ____
ROOT
ATOM      1  C   LIG    1       24.881 -28.623   7.120  0.00  0.00    +0.240 C 
ENDROOT
BRANCH   1   2
ATOM      2  C   LIG    1       24.353 -29.664   6.111  0.00  0.00    +0.220 C 
BRANCH   2   3
ATOM      3  O   LIG    1       25.357 -30.289   5.330  0.00  0.00    -0.283 OA
BRANCH   3   4
ATOM      4  P   LIG    1       25.554 -31.884   5.483  0.00  0.00    +0.475 P 
ATOM      5  O   LIG    1       24.294 -32.677   5.597  0.00  0.00    -0.227 OA
BRANCH   4   6
ATOM      6  O   LIG    1       26.322 -32.208   4.115  0.00  0.00    -0.302 OA
ATOM      7  H   LIG    1       25.847 -32.911   3.632  0.00  0.00    +0.222 HD
ENDBRANCH   4   6
BRANCH   4   8
ATOM      8  O   LIG    1       26.672 -32.123   6.632  0.00  0.00    -0.284 OA
BRANCH   8   9
ATOM      9  C   LIG    1       26.737 -33.397   7.291  0.00  0.00    +0.205 C 
BRANCH   9  10
ATOM     10  C   LIG    1       26.605 -33.267   8.833  0.00  0.00    +0.166 C 
BRANCH  10  11
ATOM     11  O   LIG    1       27.450 -32.218   9.322  0.00  0.00    -0.387 OA
ATOM     12  H   LIG    1       28.328 -32.321   8.908  0.00  0.00    +0.210 HD
ENDBRANCH  10  11
BRANCH  10  13
ATOM     13  C   LIG    1       25.157 -33.021   9.282  0.00  0.00    +0.189 C 
BRANCH  13  14
ATOM     14  O   LIG    1       24.233 -33.573   8.347  0.00  0.00    -0.392 OA
ATOM     15  H   LIG    1       24.726 -34.209   7.793  0.00  0.00    +0.209 HD
ENDBRANCH  13  14
ENDBRANCH  10  13
ENDBRANCH   9  10
ENDBRANCH   8   9
ENDBRANCH   4   8
ENDBRANCH   3   4
ENDBRANCH   2   3
ENDBRANCH   1   2
BRANCH   1  16
ATOM     16  O   LIG    1       25.673 -27.632   6.380  0.00  0.00    -0.456 OA
BRANCH  16  17
ATOM     17  C   LIG    1       25.025 -26.445   6.073  0.00  0.00    +0.307 C 
ATOM     18  O   LIG    1       24.093 -26.381   5.279  0.00  0.00    -0.251 OA
BRANCH  17  19
ATOM     19  C   LIG    1       25.585 -25.204   6.812  0.00  0.00    +0.120 C 
BRANCH  19  20
ATOM     20  C   LIG    1       25.021 -23.811   6.411  0.00  0.00    +0.011 C 
BRANCH  20  21
ATOM     21  C   LIG    1       23.563 -23.463   6.860  0.00  0.00    +0.000 C 
BRANCH  21  22
ATOM     22  C   LIG    1       23.099 -21.986   7.008  0.00  0.00    +0.000 C 
BRANCH  22  23
ATOM     23  C   LIG    1       22.635 -21.277   5.709  0.00  0.00    +0.000 C 
BRANCH  23  24
ATOM     24  C   LIG    1       23.542 -20.081   5.282  0.00  0.00    +0.004 C 
BRANCH  24  25
ATOM     25  C   LIG    1       24.892 -20.462   4.616  0.00  0.00    +0.027 C 
BRANCH  25  27
ATOM     26  C   LIG    1       26.265 -20.460   6.821  0.00  0.00    -0.031 C 
ATOM     27  C   LIG    1       26.155 -20.353   5.480  0.00  0.00    -0.031 C 
BRANCH  26  28
ATOM     28  C   LIG    1       27.585 -20.477   7.581  0.00  0.00    +0.027 C 
BRANCH  28  29
ATOM     29  C   LIG    1       28.848 -20.319   6.717  0.00  0.00    +0.004 C 
BRANCH  29  30
ATOM     30  C   LIG    1       30.177 -20.346   7.508  0.00  0.00    +0.000 C 
BRANCH  30  31
ATOM     31  C   LIG    1       30.946 -19.045   7.791  0.00  0.00    +0.000 C 
BRANCH  31  32
ATOM     32  C   LIG    1       30.297 -17.909   8.589  0.00  0.00    -0.000 C 
BRANCH  32  33
ATOM     33  C   LIG    1       31.177 -17.069   9.522  0.00  0.00    -0.000 C 
BRANCH  33  35
ATOM     34  C   LIG    1       31.535 -16.349  11.968  0.00  0.00    +0.004 C 
ATOM     35  C   LIG    1       30.673 -17.128  10.979  0.00  0.00    -0.003 C 
ENDBRANCH  33  35
ENDBRANCH  32  33
ENDBRANCH  31  32
ENDBRANCH  30  31
ENDBRANCH  29  30
ENDBRANCH  28  29
ENDBRANCH  26  28
ENDBRANCH  25  27
ENDBRANCH  24  25
ENDBRANCH  23  24
ENDBRANCH  22  23
ENDBRANCH  21  22
ENDBRANCH  20  21
ENDBRANCH  19  20
ENDBRANCH  17  19
ENDBRANCH  16  17
ENDBRANCH   1  16
BRANCH   1  36
ATOM     36  C   LIG    1       25.545 -29.275   8.387  0.00  0.00    +0.279 C 
BRANCH  36  37
ATOM     37  O   LIG    1       26.489 -28.476   9.146  0.00  0.00    -0.461 OA
BRANCH  37  38
ATOM     38  C   LIG    1       26.884 -28.861  10.370  0.00  0.00    +0.307 C 
ATOM     39  O   LIG    1       27.998 -29.450  10.599  0.00  0.00    -0.251 OA
BRANCH  38  40
ATOM     40  C   LIG    1       25.863 -28.557  11.426  0.00  0.00    +0.120 C 
BRANCH  40  41
ATOM     41  C   LIG    1       26.374 -27.903  12.728  0.00  0.00    +0.011 C 
BRANCH  41  42
ATOM     42  C   LIG    1       26.791 -26.397  12.612  0.00  0.00    +0.000 C 
BRANCH  42  43
ATOM     43  C   LIG    1       25.892 -25.377  13.373  0.00  0.00    +0.000 C 
BRANCH  43  44
ATOM     44  C   LIG    1       25.283 -25.852  14.748  0.00  0.00    -0.000 C 
BRANCH  44  45
ATOM     45  C   LIG    1       23.720 -25.890  14.753  0.00  0.00    -0.000 C 
BRANCH  45  46
ATOM     46  C   LIG    1       22.940 -26.322  13.457  0.00  0.00    -0.000 C 
BRANCH  46  47
ATOM     47  C   LIG    1       21.502 -26.888  13.639  0.00  0.00    -0.000 C 
BRANCH  47  48
ATOM     48  C   LIG    1       21.117 -28.059  12.687  0.00  0.00    -0.000 C 
BRANCH  48  49
ATOM     49  C   LIG    1       22.290 -28.978  12.227  0.00  0.00    -0.000 C 
BRANCH  49  50
ATOM     50  C   LIG    1       22.648 -30.206  13.103  0.00  0.00    -0.000 C 
BRANCH  50  51
ATOM     51  C   LIG    1       22.483 -31.529  12.355  0.00  0.00    -0.000 C 
BRANCH  51  52
ATOM     52  C   LIG    1       22.191 -31.470  10.845  0.00  0.00    -0.000 C 
BRANCH  52  53
ATOM     53  C   LIG    1       20.825 -31.884  10.266  0.00  0.00    -0.003 C 
ATOM     54  C   LIG    1       19.596 -31.002  10.453  0.00  0.00    +0.004 C 
ENDBRANCH  52  53
ENDBRANCH  51  52
ENDBRANCH  50  51
ENDBRANCH  49  50
ENDBRANCH  48  49
ENDBRANCH  47  48
ENDBRANCH  46  47
ENDBRANCH  45  46
ENDBRANCH  44  45
ENDBRANCH  43  44
ENDBRANCH  42  43
ENDBRANCH  41  42
ENDBRANCH  40  41
ENDBRANCH  38  40
ENDBRANCH  37  38
ENDBRANCH  36  37
ENDBRANCH   1  36
TORSDOF 44
ENDMDL
MODEL 5
REMARK VINA RESULT:      -6.4      4.383     12.154
REMARK  Name = *****
REMARK                            x       y       z     vdW  Elec       q    Type
REMARK                         _______ _______ _______ _____ _____    ______ ____
ROOT
ATOM      1  C   LIG    1       25.605 -27.218   6.915  0.00  0.00    +0.240 C 
ENDROOT
BRANCH   1   2
ATOM      2  C   LIG    1       25.252 -28.384   5.968  0.00  0.00    +0.220 C 
BRANCH   2   3
ATOM      3  O   LIG    1       25.383 -29.672   6.544  0.00  0.00    -0.283 OA
BRANCH   3   4
ATOM      4  P   LIG    1       24.119 -30.672   6.462  0.00  0.00    +0.475 P 
ATOM      5  O   LIG    1       23.476 -31.001   7.770  0.00  0.00    -0.227 OA
BRANCH   4   6
ATOM      6  O   LIG    1       23.136 -29.815   5.532  0.00  0.00    -0.302 OA
ATOM      7  H   LIG    1       23.663 -29.244   4.940  0.00  0.00    +0.222 HD
ENDBRANCH   4   6
BRANCH   4   8
ATOM      8  O   LIG    1       24.555 -31.924   5.530  0.00  0.00    -0.284 OA
BRANCH   8   9
ATOM      9  C   LIG    1       24.979 -33.147   6.153  0.00  0.00    +0.205 C 
BRANCH   9  10
ATOM     10  C   LIG    1       26.490 -33.130   6.511  0.00  0.00    +0.166 C 
BRANCH  10  11
ATOM     11  O   LIG    1       27.174 -32.126   5.752  0.00  0.00    -0.387 OA
ATOM     12  H   LIG    1       26.549 -31.771   5.092  0.00  0.00    +0.210 HD
ENDBRANCH  10  11
BRANCH  10  13
ATOM     13  C   LIG    1       26.738 -32.908   8.011  0.00  0.00    +0.189 C 
BRANCH  13  14
ATOM     14  O   LIG    1       27.114 -31.558   8.271  0.00  0.00    -0.392 OA
ATOM     15  H   LIG    1       27.291 -31.485   9.229  0.00  0.00    +0.209 HD
ENDBRANCH  13  14
ENDBRANCH  10  13
ENDBRANCH   9  10
ENDBRANCH   8   9
ENDBRANCH   4   8
ENDBRANCH   3   4
ENDBRANCH   2   3
ENDBRANCH   1   2
BRANCH   1  16
ATOM     16  O   LIG    1       25.858 -26.026   6.095  0.00  0.00    -0.456 OA
BRANCH  16  17
ATOM     17  C   LIG    1       25.296 -24.845   6.554  0.00  0.00    +0.307 C 
ATOM     18  O   LIG    1       25.891 -24.064   7.288  0.00  0.00    -0.251 OA
BRANCH  17  19
ATOM     19  C   LIG    1       23.845 -24.599   6.067  0.00  0.00    +0.120 C 
BRANCH  19  20
ATOM     20  C   LIG    1       22.964 -23.621   6.895  0.00  0.00    +0.011 C 
BRANCH  20  21
ATOM     21  C   LIG    1       23.179 -22.087   6.674  0.00  0.00    +0.000 C 
BRANCH  21  22
ATOM     22  C   LIG    1       22.454 -21.330   5.526  0.00  0.00    +0.000 C 
BRANCH  22  23
ATOM     23  C   LIG    1       22.918 -19.873   5.261  0.00  0.00    +0.000 C 
BRANCH  23  24
ATOM     24  C   LIG    1       23.613 -19.672   3.879  0.00  0.00    +0.004 C 
BRANCH  24  25
ATOM     25  C   LIG    1       25.164 -19.744   3.885  0.00  0.00    +0.027 C 
BRANCH  25  27
ATOM     26  C   LIG    1       26.433 -19.980   6.140  0.00  0.00    -0.031 C 
ATOM     27  C   LIG    1       25.825 -20.493   5.049  0.00  0.00    -0.031 C 
BRANCH  26  28
ATOM     28  C   LIG    1       26.939 -20.805   7.316  0.00  0.00    +0.027 C 
BRANCH  28  29
ATOM     29  C   LIG    1       28.290 -20.359   7.902  0.00  0.00    +0.004 C 
BRANCH  29  30
ATOM     30  C   LIG    1       29.494 -20.529   6.946  0.00  0.00    +0.000 C 
BRANCH  30  31
ATOM     31  C   LIG    1       30.351 -19.318   6.542  0.00  0.00    +0.000 C 
BRANCH  31  32
ATOM     32  C   LIG    1       31.295 -18.654   7.552  0.00  0.00    -0.000 C 
BRANCH  32  33
ATOM     33  C   LIG    1       31.453 -19.287   8.939  0.00  0.00    -0.000 C 
BRANCH  33  35
ATOM     34  C   LIG    1       30.174 -17.201   9.739  0.00  0.00    +0.004 C 
ATOM     35  C   LIG    1       31.232 -18.252  10.061  0.00  0.00    -0.003 C 
ENDBRANCH  33  35
ENDBRANCH  32  33
ENDBRANCH  31  32
ENDBRANCH  30  31
ENDBRANCH  29  30
ENDBRANCH  28  29
ENDBRANCH  26  28
ENDBRANCH  25  27
ENDBRANCH  24  25
ENDBRANCH  23  24
ENDBRANCH  22  23
ENDBRANCH  21  22
ENDBRANCH  20  21
ENDBRANCH  19  20
ENDBRANCH  17  19
ENDBRANCH  16  17
ENDBRANCH   1  16
BRANCH   1  36
ATOM     36  C   LIG    1       26.692 -27.601   7.984  0.00  0.00    +0.279 C 
BRANCH  36  37
ATOM     37  O   LIG    1       26.256 -27.793   9.355  0.00  0.00    -0.461 OA
BRANCH  37  38
ATOM     38  C   LIG    1       26.575 -28.913  10.024  0.00  0.00    +0.307 C 
ATOM     39  O   LIG    1       27.765 -29.382  10.088  0.00  0.00    -0.251 OA
BRANCH  38  40
ATOM     40  C   LIG    1       25.381 -29.568  10.653  0.00  0.00    +0.120 C 
BRANCH  40  41
ATOM     41  C   LIG    1       25.516 -30.004  12.128  0.00  0.00    +0.011 C 
BRANCH  41  42
ATOM     42  C   LIG    1       25.527 -28.843  13.180  0.00  0.00    +0.000 C 
BRANCH  42  43
ATOM     43  C   LIG    1       26.926 -28.428  13.729  0.00  0.00    +0.000 C 
BRANCH  43  44
ATOM     44  C   LIG    1       27.190 -26.884  13.907  0.00  0.00    -0.000 C 
BRANCH  44  45
ATOM     45  C   LIG    1       26.291 -25.992  12.991  0.00  0.00    -0.000 C 
BRANCH  45  46
ATOM     46  C   LIG    1       25.265 -24.987  13.634  0.00  0.00    -0.000 C 
BRANCH  46  47
ATOM     47  C   LIG    1       24.568 -25.421  14.956  0.00  0.00    -0.000 C 
BRANCH  47  48
ATOM     48  C   LIG    1       23.267 -26.261  14.783  0.00  0.00    -0.000 C 
BRANCH  48  49
ATOM     49  C   LIG    1       22.675 -26.312  13.341  0.00  0.00    -0.000 C 
BRANCH  49  50
ATOM     50  C   LIG    1       21.546 -27.331  13.046  0.00  0.00    -0.000 C 
BRANCH  50  51
ATOM     51  C   LIG    1       22.084 -28.691  12.600  0.00  0.00    -0.000 C 
BRANCH  51  52
ATOM     52  C   LIG    1       21.092 -29.685  11.968  0.00  0.00    -0.000 C 
BRANCH  52  53
ATOM     53  C   LIG    1       21.434 -30.467  10.686  0.00  0.00    -0.003 C 
ATOM     54  C   LIG    1       20.942 -31.896  10.486  0.00  0.00    +0.004 C 
ENDBRANCH  52  53
ENDBRANCH  51  52
ENDBRANCH  50  51
ENDBRANCH  49  50
ENDBRANCH  48  49
ENDBRANCH  47  48
ENDBRANCH  46  47
ENDBRANCH  45  46
ENDBRANCH  44  45
ENDBRANCH  43  44
ENDBRANCH  42  43
ENDBRANCH  41  42
ENDBRANCH  40  41
ENDBRANCH  38  40
ENDBRANCH  37  38
ENDBRANCH  36  37
ENDBRANCH   1  36
TORSDOF 44
ENDMDL
MODEL 6
REMARK VINA RESULT:      -6.4      5.196     12.556
REMARK  Name = *****
REMARK                            x       y       z     vdW  Elec       q    Type
REMARK                         _______ _______ _______ _____ _____    ______ ____
ROOT
ATOM      1  C   LIG    1       25.225 -28.210   6.649  0.00  0.00    +0.240 C 
ENDROOT
BRANCH   1   2
ATOM      2  C   LIG    1       24.925 -29.218   5.520  0.00  0.00    +0.220 C 
BRANCH   2   3
ATOM      3  O   LIG    1       25.667 -30.423   5.592  0.00  0.00    -0.283 OA
BRANCH   3   4
ATOM      4  P   LIG    1       24.851 -31.814   5.671  0.00  0.00    +0.475 P 
ATOM      5  O   LIG    1       23.468 -31.714   6.224  0.00  0.00    -0.227 OA
BRANCH   4   6
ATOM      6  O   LIG    1       24.829 -32.219   4.122  0.00  0.00    -0.302 OA
ATOM      7  H   LIG    1       23.939 -32.545   3.882  0.00  0.00    +0.222 HD
ENDBRANCH   4   6
BRANCH   4   8
ATOM      8  O   LIG    1       25.831 -32.909   6.354  0.00  0.00    -0.284 OA
BRANCH   8   9
ATOM      9  C   LIG    1       25.424 -33.551   7.572  0.00  0.00    +0.205 C 
BRANCH   9  10
ATOM     10  C   LIG    1       26.164 -32.979   8.812  0.00  0.00    +0.166 C 
BRANCH  10  11
ATOM     11  O   LIG    1       27.169 -32.040   8.408  0.00  0.00    -0.387 OA
ATOM     12  H   LIG    1       27.786 -32.500   7.809  0.00  0.00    +0.210 HD
ENDBRANCH  10  11
BRANCH  10  13
ATOM     13  C   LIG    1       25.208 -32.319   9.817  0.00  0.00    +0.189 C 
BRANCH  13  14
ATOM     14  O   LIG    1       23.986 -31.942   9.186  0.00  0.00    -0.392 OA
ATOM     15  H   LIG    1       23.259 -32.351   9.694  0.00  0.00    +0.209 HD
ENDBRANCH  13  14
ENDBRANCH  10  13
ENDBRANCH   9  10
ENDBRANCH   8   9
ENDBRANCH   4   8
ENDBRANCH   3   4
ENDBRANCH   2   3
ENDBRANCH   1   2
BRANCH   1  16
ATOM     16  O   LIG    1       26.276 -27.298   6.177  0.00  0.00    -0.456 OA
BRANCH  16  17
ATOM     17  C   LIG    1       25.838 -26.153   5.531  0.00  0.00    +0.307 C 
ATOM     18  O   LIG    1       25.789 -26.052   4.311  0.00  0.00    -0.251 OA
BRANCH  17  19
ATOM     19  C   LIG    1       25.421 -25.004   6.485  0.00  0.00    +0.120 C 
BRANCH  19  20
ATOM     20  C   LIG    1       24.476 -23.906   5.920  0.00  0.00    +0.011 C 
BRANCH  20  21
ATOM     21  C   LIG    1       23.324 -23.394   6.848  0.00  0.00    +0.000 C 
BRANCH  21  22
ATOM     22  C   LIG    1       22.938 -21.889   6.894  0.00  0.00    +0.000 C 
BRANCH  22  23
ATOM     23  C   LIG    1       22.586 -21.227   5.535  0.00  0.00    +0.000 C 
BRANCH  23  24
ATOM     24  C   LIG    1       23.546 -20.065   5.132  0.00  0.00    +0.004 C 
BRANCH  24  25
ATOM     25  C   LIG    1       24.961 -20.491   4.655  0.00  0.00    +0.027 C 
BRANCH  25  27
ATOM     26  C   LIG    1       26.168 -20.660   6.949  0.00  0.00    -0.031 C 
ATOM     27  C   LIG    1       26.117 -20.311   5.646  0.00  0.00    -0.031 C 
BRANCH  26  28
ATOM     28  C   LIG    1       27.413 -20.567   7.821  0.00  0.00    +0.027 C 
BRANCH  28  29
ATOM     29  C   LIG    1       28.564 -21.510   7.431  0.00  0.00    +0.004 C 
BRANCH  29  30
ATOM     30  C   LIG    1       29.692 -21.620   8.484  0.00  0.00    +0.000 C 
BRANCH  30  31
ATOM     31  C   LIG    1       30.914 -20.689   8.422  0.00  0.00    +0.000 C 
BRANCH  31  32
ATOM     32  C   LIG    1       30.801 -19.218   8.840  0.00  0.00    -0.000 C 
BRANCH  32  33
ATOM     33  C   LIG    1       30.294 -18.198   7.815  0.00  0.00    -0.000 C 
BRANCH  33  35
ATOM     34  C   LIG    1       29.224 -18.355   5.479  0.00  0.00    +0.004 C 
ATOM     35  C   LIG    1       30.395 -18.744   6.375  0.00  0.00    -0.003 C 
ENDBRANCH  33  35
ENDBRANCH  32  33
ENDBRANCH  31  32
ENDBRANCH  30  31
ENDBRANCH  29  30
ENDBRANCH  28  29
ENDBRANCH  26  28
ENDBRANCH  25  27
ENDBRANCH  24  25
ENDBRANCH  23  24
ENDBRANCH  22  23
ENDBRANCH  21  22
ENDBRANCH  20  21
ENDBRANCH  19  20
ENDBRANCH  17  19
ENDBRANCH  16  17
ENDBRANCH   1  16
BRANCH   1  36
ATOM     36  C   LIG    1       25.442 -28.898   8.046  0.00  0.00    +0.279 C 
BRANCH  36  37
ATOM     37  O   LIG    1       26.382 -28.284   8.966  0.00  0.00    -0.461 OA
BRANCH  37  38
ATOM     38  C   LIG    1       26.786 -28.936  10.068  0.00  0.00    +0.307 C 
ATOM     39  O   LIG    1       27.796 -29.723  10.092  0.00  0.00    -0.251 OA
BRANCH  38  40
ATOM     40  C   LIG    1       25.904 -28.668  11.251  0.00  0.00    +0.120 C 
BRANCH  40  41
ATOM     41  C   LIG    1       26.563 -28.007  12.481  0.00  0.00    +0.011 C 
BRANCH  41  42
ATOM     42  C   LIG    1       27.006 -28.985  13.622  0.00  0.00    +0.000 C 
BRANCH  42  43
ATOM     43  C   LIG    1       26.265 -28.830  14.984  0.00  0.00    +0.000 C 
BRANCH  43  44
ATOM     44  C   LIG    1       24.845 -29.506  15.102  0.00  0.00    -0.000 C 
BRANCH  44  45
ATOM     45  C   LIG    1       24.712 -30.819  14.265  0.00  0.00    -0.000 C 
BRANCH  45  46
ATOM     46  C   LIG    1       23.296 -31.468  14.040  0.00  0.00    -0.000 C 
BRANCH  46  47
ATOM     47  C   LIG    1       22.753 -31.521  12.583  0.00  0.00    -0.000 C 
BRANCH  47  48
ATOM     48  C   LIG    1       22.613 -30.142  11.870  0.00  0.00    -0.000 C 
BRANCH  48  49
ATOM     49  C   LIG    1       21.270 -29.386  12.108  0.00  0.00    -0.000 C 
BRANCH  49  50
ATOM     50  C   LIG    1       21.321 -27.997  12.796  0.00  0.00    -0.000 C 
BRANCH  50  51
ATOM     51  C   LIG    1       22.738 -27.599  13.212  0.00  0.00    -0.000 C 
BRANCH  51  52
ATOM     52  C   LIG    1       22.993 -26.125  13.576  0.00  0.00    -0.000 C 
BRANCH  52  53
ATOM     53  C   LIG    1       24.256 -25.686  14.341  0.00  0.00    -0.003 C 
ATOM     54  C   LIG    1       25.355 -24.890  13.646  0.00  0.00    +0.004 C 
ENDBRANCH  52  53
ENDBRANCH  51  52
ENDBRANCH  50  51
ENDBRANCH  49  50
ENDBRANCH  48  49
ENDBRANCH  47  48
ENDBRANCH  46  47
ENDBRANCH  45  46
ENDBRANCH  44  45
ENDBRANCH  43  44
ENDBRANCH  42  43
ENDBRANCH  41  42
ENDBRANCH  40  41
ENDBRANCH  38  40
ENDBRANCH  37  38
ENDBRANCH  36  37
ENDBRANCH   1  36
TORSDOF 44
ENDMDL
MODEL 7
REMARK VINA RESULT:      -6.3      1.043      9.688
REMARK  Name = *****
REMARK                            x       y       z     vdW  Elec       q    Type
REMARK                         _______ _______ _______ _____ _____    ______ ____
ROOT
ATOM      1  C   LIG    1       28.597 -20.092   6.760  0.00  0.00    +0.240 C 
ENDROOT
BRANCH   1   2
ATOM      2  C   LIG    1       29.037 -18.896   7.630  0.00  0.00    +0.220 C 
BRANCH   2   3
ATOM      3  O   LIG    1       29.871 -19.237   8.724  0.00  0.00    -0.283 OA
BRANCH   3   4
ATOM      4  P   LIG    1       31.463 -19.032   8.559  0.00  0.00    +0.475 P 
ATOM      5  O   LIG    1       32.314 -19.922   9.402  0.00  0.00    -0.227 OA
BRANCH   4   6
ATOM      6  O   LIG    1       31.634 -19.369   7.002  0.00  0.00    -0.302 OA
ATOM      7  H   LIG    1       32.086 -18.627   6.555  0.00  0.00    +0.222 HD
ENDBRANCH   4   6
BRANCH   4   8
ATOM      8  O   LIG    1       31.755 -17.441   8.655  0.00  0.00    -0.284 OA
BRANCH   8   9
ATOM      9  C   LIG    1       32.484 -16.929   9.781  0.00  0.00    +0.205 C 
BRANCH   9  10
ATOM     10  C   LIG    1       31.570 -16.701  11.017  0.00  0.00    +0.166 C 
BRANCH  10  11
ATOM     11  O   LIG    1       30.933 -17.926  11.401  0.00  0.00    -0.387 OA
ATOM     12  H   LIG    1       31.628 -18.556  11.666  0.00  0.00    +0.210 HD
ENDBRANCH  10  11
BRANCH  10  13
ATOM     13  C   LIG    1       32.333 -16.113  12.213  0.00  0.00    +0.189 C 
BRANCH  13  14
ATOM     14  O   LIG    1       31.446 -15.437  13.101  0.00  0.00    -0.392 OA
ATOM     15  H   LIG    1       31.815 -14.546  13.257  0.00  0.00    +0.209 HD
ENDBRANCH  13  14
ENDBRANCH  10  13
ENDBRANCH   9  10
ENDBRANCH   8   9
ENDBRANCH   4   8
ENDBRANCH   3   4
ENDBRANCH   2   3
ENDBRANCH   1   2
BRANCH   1  16
ATOM     16  O   LIG    1       27.959 -19.561   5.547  0.00  0.00    -0.456 OA
BRANCH  16  17
ATOM     17  C   LIG    1       28.521 -18.408   5.022  0.00  0.00    +0.307 C 
ATOM     18  O   LIG    1       29.708 -18.128   5.148  0.00  0.00    -0.251 OA
BRANCH  17  19
ATOM     19  C   LIG    1       27.519 -17.497   4.270  0.00  0.00    +0.120 C 
BRANCH  19  20
ATOM     20  C   LIG    1       27.748 -15.960   4.341  0.00  0.00    +0.011 C 
BRANCH  20  21
ATOM     21  C   LIG    1       27.203 -15.091   3.159  0.00  0.00    +0.000 C 
BRANCH  21  22
ATOM     22  C   LIG    1       26.509 -13.724   3.421  0.00  0.00    +0.000 C 
BRANCH  22  23
ATOM     23  C   LIG    1       24.958 -13.718   3.367  0.00  0.00    +0.000 C 
BRANCH  23  24
ATOM     24  C   LIG    1       24.278 -14.141   4.706  0.00  0.00    +0.004 C 
BRANCH  24  25
ATOM     25  C   LIG    1       22.948 -14.932   4.568  0.00  0.00    +0.027 C 
BRANCH  25  27
ATOM     26  C   LIG    1       22.223 -17.421   4.724  0.00  0.00    -0.031 C 
ATOM     27  C   LIG    1       23.054 -16.440   4.314  0.00  0.00    -0.031 C 
BRANCH  26  28
ATOM     28  C   LIG    1       22.333 -18.881   4.304  0.00  0.00    +0.027 C 
BRANCH  28  29
ATOM     29  C   LIG    1       23.442 -19.193   3.284  0.00  0.00    +0.004 C 
BRANCH  29  30
ATOM     30  C   LIG    1       24.787 -19.632   3.909  0.00  0.00    +0.000 C 
BRANCH  30  31
ATOM     31  C   LIG    1       24.826 -20.705   5.009  0.00  0.00    +0.000 C 
BRANCH  31  32
ATOM     32  C   LIG    1       24.491 -20.351   6.462  0.00  0.00    -0.000 C 
BRANCH  32  33
ATOM     33  C   LIG    1       23.313 -21.059   7.141  0.00  0.00    -0.000 C 
BRANCH  33  35
ATOM     34  C   LIG    1       22.429 -23.454   6.808  0.00  0.00    +0.004 C 
ATOM     35  C   LIG    1       22.641 -22.074   6.193  0.00  0.00    -0.003 C 
ENDBRANCH  33  35
ENDBRANCH  32  33
ENDBRANCH  31  32
ENDBRANCH  30  31
ENDBRANCH  29  30
ENDBRANCH  28  29
ENDBRANCH  26  28
ENDBRANCH  25  27
ENDBRANCH  24  25
ENDBRANCH  23  24
ENDBRANCH  22  23
ENDBRANCH  21  22
ENDBRANCH  20  21
ENDBRANCH  19  20
ENDBRANCH  17  19
ENDBRANCH  16  17
ENDBRANCH   1  16
BRANCH   1  36
ATOM     36  C   LIG    1       27.809 -21.185   7.569  0.00  0.00    +0.279 C 
BRANCH  36  37
ATOM     37  O   LIG    1       27.397 -22.385   6.865  0.00  0.00    -0.461 OA
BRANCH  37  38
ATOM     38  C   LIG    1       26.326 -23.084   7.273  0.00  0.00    +0.307 C 
ATOM     39  O   LIG    1       25.849 -23.016   8.460  0.00  0.00    -0.251 OA
BRANCH  38  40
ATOM     40  C   LIG    1       25.778 -23.977   6.200  0.00  0.00    +0.120 C 
BRANCH  40  41
ATOM     41  C   LIG    1       25.666 -25.481   6.529  0.00  0.00    +0.011 C 
BRANCH  41  42
ATOM     42  C   LIG    1       24.559 -26.267   5.747  0.00  0.00    +0.000 C 
BRANCH  42  43
ATOM     43  C   LIG    1       24.239 -27.701   6.267  0.00  0.00    +0.000 C 
BRANCH  43  44
ATOM     44  C   LIG    1       25.448 -28.535   6.841  0.00  0.00    -0.000 C 
BRANCH  44  45
ATOM     45  C   LIG    1       25.227 -29.011   8.314  0.00  0.00    -0.000 C 
BRANCH  45  46
ATOM     46  C   LIG    1       26.466 -29.271   9.249  0.00  0.00    -0.000 C 
BRANCH  46  47
ATOM     47  C   LIG    1       26.790 -28.198  10.327  0.00  0.00    -0.000 C 
BRANCH  47  48
ATOM     48  C   LIG    1       26.687 -28.679  11.805  0.00  0.00    -0.000 C 
BRANCH  48  49
ATOM     49  C   LIG    1       25.263 -28.636  12.439  0.00  0.00    -0.000 C 
BRANCH  49  50
ATOM     50  C   LIG    1       24.186 -29.609  11.894  0.00  0.00    -0.000 C 
BRANCH  50  51
ATOM     51  C   LIG    1       22.763 -29.095  12.118  0.00  0.00    -0.000 C 
BRANCH  51  52
ATOM     52  C   LIG    1       22.517 -28.158  13.315  0.00  0.00    -0.000 C 
BRANCH  52  53
ATOM     53  C   LIG    1       21.899 -26.759  13.137  0.00  0.00    -0.003 C 
ATOM     54  C   LIG    1       20.387 -26.574  13.064  0.00  0.00    +0.004 C 
ENDBRANCH  52  53
ENDBRANCH  51  52
ENDBRANCH  50  51
ENDBRANCH  49  50
ENDBRANCH  48  49
ENDBRANCH  47  48
ENDBRANCH  46  47
ENDBRANCH  45  46
ENDBRANCH  44  45
ENDBRANCH  43  44
ENDBRANCH  42  43
ENDBRANCH  41  42
ENDBRANCH  40  41
ENDBRANCH  38  40
ENDBRANCH  37  38
ENDBRANCH  36  37
ENDBRANCH   1  36
TORSDOF 44
ENDMDL
MODEL 8
REMARK VINA RESULT:      -6.3      5.932     12.823
REMARK  Name = *****
REMARK                            x       y       z     vdW  Elec       q    Type
REMARK                         _______ _______ _______ _____ _____    ______ ____
ROOT
ATOM      1  C   LIG    1       24.261 -31.490   7.206  0.00  0.00    +0.240 C 
ENDROOT
BRANCH   1   2
ATOM      2  C   LIG    1       25.164 -32.720   6.977  0.00  0.00    +0.220 C 
BRANCH   2   3
ATOM      3  O   LIG    1       26.481 -32.586   7.483  0.00  0.00    -0.283 OA
BRANCH   3   4
ATOM      4  P   LIG    1       26.744 -32.970   9.029  0.00  0.00    +0.475 P 
ATOM      5  O   LIG    1       25.665 -33.769   9.682  0.00  0.00    -0.227 OA
BRANCH   4   6
ATOM      6  O   LIG    1       28.092 -33.824   8.885  0.00  0.00    -0.302 OA
ATOM      7  H   LIG    1       28.728 -33.549   9.574  0.00  0.00    +0.222 HD
ENDBRANCH   4   6
BRANCH   4   8
ATOM      8  O   LIG    1       27.210 -31.617   9.789  0.00  0.00    -0.284 OA
BRANCH   8   9
ATOM      9  C   LIG    1       26.310 -30.987  10.712  0.00  0.00    +0.205 C 
BRANCH   9  10
ATOM     10  C   LIG    1       26.516 -29.448  10.776  0.00  0.00    +0.166 C 
BRANCH  10  11
ATOM     11  O   LIG    1       25.322 -28.801  11.232  0.00  0.00    -0.387 OA
ATOM     12  H   LIG    1       25.364 -27.865  10.959  0.00  0.00    +0.210 HD
ENDBRANCH  10  11
BRANCH  10  13
ATOM     13  C   LIG    1       27.699 -29.049  11.671  0.00  0.00    +0.189 C 
BRANCH  13  14
ATOM     14  O   LIG    1       28.866 -29.796  11.336  0.00  0.00    -0.392 OA
ATOM     15  H   LIG    1       28.786 -30.669  11.769  0.00  0.00    +0.209 HD
ENDBRANCH  13  14
ENDBRANCH  10  13
ENDBRANCH   9  10
ENDBRANCH   8   9
ENDBRANCH   4   8
ENDBRANCH   3   4
ENDBRANCH   2   3
ENDBRANCH   1   2
BRANCH   1  16
ATOM     16  O   LIG    1       25.112 -30.293   7.199  0.00  0.00    -0.456 OA
BRANCH  16  17
ATOM     17  C   LIG    1       25.057 -29.517   6.051  0.00  0.00    +0.307 C 
ATOM     18  O   LIG    1       25.460 -29.909   4.962  0.00  0.00    -0.251 OA
BRANCH  17  19
ATOM     19  C   LIG    1       24.450 -28.107   6.264  0.00  0.00    +0.120 C 
BRANCH  19  20
ATOM     20  C   LIG    1       25.432 -26.903   6.333  0.00  0.00    +0.011 C 
BRANCH  20  21
ATOM     21  C   LIG    1       25.463 -25.922   5.114  0.00  0.00    +0.000 C 
BRANCH  21  22
ATOM     22  C   LIG    1       25.100 -24.420   5.283  0.00  0.00    +0.000 C 
BRANCH  22  23
ATOM     23  C   LIG    1       24.681 -23.969   6.707  0.00  0.00    +0.000 C 
BRANCH  23  24
ATOM     24  C   LIG    1       23.229 -23.404   6.789  0.00  0.00    +0.004 C 
BRANCH  24  25
ATOM     25  C   LIG    1       23.073 -22.046   7.527  0.00  0.00    +0.027 C 
BRANCH  25  27
ATOM     26  C   LIG    1       22.637 -20.671   5.367  0.00  0.00    -0.031 C 
ATOM     27  C   LIG    1       23.006 -20.783   6.661  0.00  0.00    -0.031 C 
BRANCH  26  28
ATOM     28  C   LIG    1       22.467 -19.351   4.627  0.00  0.00    +0.027 C 
BRANCH  28  29
ATOM     29  C   LIG    1       23.706 -18.861   3.857  0.00  0.00    +0.004 C 
BRANCH  29  30
ATOM     30  C   LIG    1       24.844 -19.901   3.740  0.00  0.00    +0.000 C 
BRANCH  30  31
ATOM     31  C   LIG    1       26.135 -19.746   4.561  0.00  0.00    +0.000 C 
BRANCH  31  32
ATOM     32  C   LIG    1       26.507 -20.772   5.638  0.00  0.00    -0.000 C 
BRANCH  32  33
ATOM     33  C   LIG    1       26.313 -20.397   7.111  0.00  0.00    -0.000 C 
BRANCH  33  35
ATOM     34  C   LIG    1       28.766 -21.179   7.147  0.00  0.00    +0.004 C 
ATOM     35  C   LIG    1       27.642 -20.465   7.892  0.00  0.00    -0.003 C 
ENDBRANCH  33  35
ENDBRANCH  32  33
ENDBRANCH  31  32
ENDBRANCH  30  31
ENDBRANCH  29  30
ENDBRANCH  28  29
ENDBRANCH  26  28
ENDBRANCH  25  27
ENDBRANCH  24  25
ENDBRANCH  23  24
ENDBRANCH  22  23
ENDBRANCH  21  22
ENDBRANCH  20  21
ENDBRANCH  19  20
ENDBRANCH  17  19
ENDBRANCH  16  17
ENDBRANCH   1  16
BRANCH   1  36
ATOM     36  C   LIG    1       23.276 -31.667   8.418  0.00  0.00    +0.279 C 
BRANCH  36  37
ATOM     37  O   LIG    1       22.972 -30.498   9.222  0.00  0.00    -0.461 OA
BRANCH  37  38
ATOM     38  C   LIG    1       22.340 -30.622  10.400  0.00  0.00    +0.307 C 
ATOM     39  O   LIG    1       22.760 -30.086  11.485  0.00  0.00    -0.251 OA
BRANCH  38  40
ATOM     40  C   LIG    1       21.116 -31.483  10.310  0.00  0.00    +0.120 C 
BRANCH  40  41
ATOM     41  C   LIG    1       19.767 -30.824  10.668  0.00  0.00    +0.011 C 
BRANCH  41  42
ATOM     42  C   LIG    1       19.079 -31.351  11.973  0.00  0.00    +0.000 C 
BRANCH  42  43
ATOM     43  C   LIG    1       19.502 -30.654  13.301  0.00  0.00    +0.000 C 
BRANCH  43  44
ATOM     44  C   LIG    1       18.351 -30.313  14.323  0.00  0.00    -0.000 C 
BRANCH  44  45
ATOM     45  C   LIG    1       17.050 -29.783  13.637  0.00  0.00    -0.000 C 
BRANCH  45  46
ATOM     46  C   LIG    1       16.062 -28.855  14.436  0.00  0.00    -0.000 C 
BRANCH  46  47
ATOM     47  C   LIG    1       16.656 -27.584  15.109  0.00  0.00    -0.000 C 
BRANCH  47  48
ATOM     48  C   LIG    1       17.349 -26.576  14.143  0.00  0.00    -0.000 C 
BRANCH  48  49
ATOM     49  C   LIG    1       18.836 -26.237  14.465  0.00  0.00    -0.000 C 
BRANCH  49  50
ATOM     50  C   LIG    1       19.946 -27.042  13.742  0.00  0.00    -0.000 C 
BRANCH  50  51
ATOM     51  C   LIG    1       21.352 -26.566  14.110  0.00  0.00    -0.000 C 
BRANCH  51  52
ATOM     52  C   LIG    1       22.505 -26.917  13.152  0.00  0.00    -0.000 C 
BRANCH  52  53
ATOM     53  C   LIG    1       23.980 -26.776  13.572  0.00  0.00    -0.003 C 
ATOM     54  C   LIG    1       24.611 -25.401  13.766  0.00  0.00    +0.004 C 
ENDBRANCH  52  53
ENDBRANCH  51  52
ENDBRANCH  50  51
ENDBRANCH  49  50
ENDBRANCH  48  49
ENDBRANCH  47  48
ENDBRANCH  46  47
ENDBRANCH  45  46
ENDBRANCH  44  45
ENDBRANCH  43  44
ENDBRANCH  42  43
ENDBRANCH  41  42
ENDBRANCH  40  41
ENDBRANCH  38  40
ENDBRANCH  37  38
ENDBRANCH  36  37
ENDBRANCH   1  36
TORSDOF 44
ENDMDL
MODEL 9
REMARK VINA RESULT:      -6.3      1.128      2.124
REMARK  Name = *****
REMARK                            x       y       z     vdW  Elec       q    Type
REMARK                         _______ _______ _______ _____ _____    ______ ____
ROOT
ATOM      1  C   LIG    1       28.205 -20.740   7.336  0.00  0.00    +0.240 C 
ENDROOT
BRANCH   1   2
ATOM      2  C   LIG    1       29.406 -20.584   8.293  0.00  0.00    +0.220 C 
BRANCH   2   3
ATOM      3  O   LIG    1       29.831 -19.247   8.492  0.00  0.00    -0.283 OA
BRANCH   3   4
ATOM      4  P   LIG    1       31.415 -18.940   8.458  0.00  0.00    +0.475 P 
ATOM      5  O   LIG    1       32.241 -19.726   9.423  0.00  0.00    -0.227 OA
BRANCH   4   6
ATOM      6  O   LIG    1       31.751 -19.342   6.945  0.00  0.00    -0.302 OA
ATOM      7  H   LIG    1       31.240 -18.774   6.335  0.00  0.00    +0.222 HD
ENDBRANCH   4   6
BRANCH   4   8
ATOM      8  O   LIG    1       31.594 -17.330   8.490  0.00  0.00    -0.284 OA
BRANCH   8   9
ATOM      9  C   LIG    1       32.280 -16.723   9.596  0.00  0.00    +0.205 C 
BRANCH   9  10
ATOM     10  C   LIG    1       31.301 -16.243  10.702  0.00  0.00    +0.166 C 
BRANCH  10  11
ATOM     11  O   LIG    1       30.007 -16.830  10.515  0.00  0.00    -0.387 OA
ATOM     12  H   LIG    1       29.908 -17.043   9.569  0.00  0.00    +0.210 HD
ENDBRANCH  10  11
BRANCH  10  13
ATOM     13  C   LIG    1       31.813 -16.551  12.117  0.00  0.00    +0.189 C 
BRANCH  13  14
ATOM     14  O   LIG    1       31.491 -15.494  13.018  0.00  0.00    -0.392 OA
ATOM     15  H   LIG    1       30.707 -15.777  13.529  0.00  0.00    +0.209 HD
ENDBRANCH  13  14
ENDBRANCH  10  13
ENDBRANCH   9  10
ENDBRANCH   8   9
ENDBRANCH   4   8
ENDBRANCH   3   4
ENDBRANCH   2   3
ENDBRANCH   1   2
BRANCH   1  16
ATOM     16  O   LIG    1       27.664 -22.095   7.503  0.00  0.00    -0.456 OA
BRANCH  16  17
ATOM     17  C   LIG    1       26.456 -22.186   8.178  0.00  0.00    +0.307 C 
ATOM     18  O   LIG    1       26.171 -21.472   9.133  0.00  0.00    -0.251 OA
BRANCH  17  19
ATOM     19  C   LIG    1       25.500 -23.274   7.628  0.00  0.00    +0.120 C 
BRANCH  19  20
ATOM     20  C   LIG    1       25.865 -23.933   6.268  0.00  0.00    +0.011 C 
BRANCH  20  21
ATOM     21  C   LIG    1       25.146 -25.273   5.895  0.00  0.00    +0.000 C 
BRANCH  21  22
ATOM     22  C   LIG    1       25.958 -26.540   5.508  0.00  0.00    +0.000 C 
BRANCH  22  23
ATOM     23  C   LIG    1       25.145 -27.727   4.925  0.00  0.00    +0.000 C 
BRANCH  23  24
ATOM     24  C   LIG    1       24.330 -28.520   5.994  0.00  0.00    +0.004 C 
BRANCH  24  25
ATOM     25  C   LIG    1       25.024 -28.708   7.371  0.00  0.00    +0.027 C 
BRANCH  25  27
ATOM     26  C   LIG    1       24.143 -30.890   8.470  0.00  0.00    -0.031 C 
ATOM     27  C   LIG    1       24.284 -29.548   8.419  0.00  0.00    -0.031 C 
BRANCH  26  28
ATOM     28  C   LIG    1       23.508 -31.649   9.628  0.00  0.00    +0.027 C 
BRANCH  28  29
ATOM     29  C   LIG    1       23.977 -31.227  11.031  0.00  0.00    +0.004 C 
BRANCH  29  30
ATOM     30  C   LIG    1       23.163 -30.073  11.663  0.00  0.00    +0.000 C 
BRANCH  30  31
ATOM     31  C   LIG    1       23.872 -28.829  12.221  0.00  0.00    +0.000 C 
BRANCH  31  32
ATOM     32  C   LIG    1       25.325 -28.906  12.705  0.00  0.00    -0.000 C 
BRANCH  32  33
ATOM     33  C   LIG    1       26.332 -27.876  12.181  0.00  0.00    -0.000 C 
BRANCH  33  35
ATOM     34  C   LIG    1       27.218 -29.690  10.583  0.00  0.00    +0.004 C 
ATOM     35  C   LIG    1       26.814 -28.230  10.758  0.00  0.00    -0.003 C 
ENDBRANCH  33  35
ENDBRANCH  32  33
ENDBRANCH  31  32
ENDBRANCH  30  31
ENDBRANCH  29  30
ENDBRANCH  28  29
ENDBRANCH  26  28
ENDBRANCH  25  27
ENDBRANCH  24  25
ENDBRANCH  23  24
ENDBRANCH  22  23
ENDBRANCH  21  22
ENDBRANCH  20  21
ENDBRANCH  19  20
ENDBRANCH  17  19
ENDBRANCH  16  17
ENDBRANCH   1  16
BRANCH   1  36
ATOM     36  C   LIG    1       28.520 -20.265   5.871  0.00  0.00    +0.279 C 
BRANCH  36  37
ATOM     37  O   LIG    1       27.820 -19.095   5.372  0.00  0.00    -0.461 OA
BRANCH  37  38
ATOM     38  C   LIG    1       28.498 -17.993   5.014  0.00  0.00    +0.307 C 
ATOM     39  O   LIG    1       29.665 -17.707   5.459  0.00  0.00    -0.251 OA
BRANCH  38  40
ATOM     40  C   LIG    1       27.725 -17.123   4.069  0.00  0.00    +0.120 C 
BRANCH  40  41
ATOM     41  C   LIG    1       27.738 -15.604   4.345  0.00  0.00    +0.011 C 
BRANCH  41  42
ATOM     42  C   LIG    1       27.282 -14.694   3.154  0.00  0.00    +0.000 C 
BRANCH  42  43
ATOM     43  C   LIG    1       26.253 -13.576   3.501  0.00  0.00    +0.000 C 
BRANCH  43  44
ATOM     44  C   LIG    1       25.315 -13.833   4.741  0.00  0.00    -0.000 C 
BRANCH  44  45
ATOM     45  C   LIG    1       23.840 -14.165   4.344  0.00  0.00    -0.000 C 
BRANCH  45  46
ATOM     46  C   LIG    1       23.342 -15.658   4.349  0.00  0.00    -0.000 C 
BRANCH  46  47
ATOM     47  C   LIG    1       24.247 -16.720   3.661  0.00  0.00    -0.000 C 
BRANCH  47  48
ATOM     48  C   LIG    1       23.851 -18.205   3.916  0.00  0.00    -0.000 C 
BRANCH  48  49
ATOM     49  C   LIG    1       24.889 -19.275   3.460  0.00  0.00    -0.000 C 
BRANCH  49  50
ATOM     50  C   LIG    1       25.002 -20.585   4.280  0.00  0.00    -0.000 C 
BRANCH  50  51
ATOM     51  C   LIG    1       23.809 -21.517   4.067  0.00  0.00    -0.000 C 
BRANCH  51  52
ATOM     52  C   LIG    1       22.624 -21.405   5.044  0.00  0.00    -0.000 C 
BRANCH  52  53
ATOM     53  C   LIG    1       22.814 -21.538   6.567  0.00  0.00    -0.003 C 
ATOM     54  C   LIG    1       23.350 -20.374   7.394  0.00  0.00    +0.004 C 
ENDBRANCH  52  53
ENDBRANCH  51  52
ENDBRANCH  50  51
ENDBRANCH  49  50
ENDBRANCH  48  49
ENDBRANCH  47  48
ENDBRANCH  46  47
ENDBRANCH  45  46
ENDBRANCH  44  45
ENDBRANCH  43  44
ENDBRANCH  42  43
ENDBRANCH  41  42
ENDBRANCH  40  41
ENDBRANCH  38  40
ENDBRANCH  37  38
ENDBRANCH  36  37
ENDBRANCH   1  36
TORSDOF 44
ENDMDL
