MODEL 1
REMARK VINA RESULT:      -7.1      0.000      0.000
REMARK  Name = *****
REMARK                            x       y       z     vdW  Elec       q    Type
REMARK                         _______ _______ _______ _____ _____    ______ ____
ROOT
ATOM      1  C   LIG    1       25.009 -21.721   6.680  0.00  0.00    +0.056 C 
ENDROOT
BRANCH   1   2
ATOM      2  C   LIG    1       24.363 -20.748   5.714  0.00  0.00    -0.046 A 
ATOM      3  C   LIG    1       23.051 -20.301   5.915  0.00  0.00    +0.003 A 
ATOM      4  C   LIG    1       22.467 -19.391   5.029  0.00  0.00    +0.000 A 
ATOM      5  C   LIG    1       23.188 -18.926   3.929  0.00  0.00    +0.000 A 
ATOM      6  C   LIG    1       24.488 -19.374   3.713  0.00  0.00    +0.000 A 
ATOM      7  C   LIG    1       25.072 -20.281   4.596  0.00  0.00    +0.003 A 
ENDBRANCH   1   2
BRANCH   1   8
ATOM      8  C   LIG    1       24.749 -23.241   6.423  0.00  0.00    +0.017 C 
ATOM      9  C   LIG    1       25.708 -24.134   7.232  0.00  0.00    +0.027 C 
ATOM     10  C   LIG    1       23.302 -23.608   6.820  0.00  0.00    +0.027 C 
BRANCH   8  12
ATOM     11  C   LIG    1       24.998 -24.966   4.632  0.00  0.00    +0.101 C 
ATOM     12  N   LIG    1       24.839 -23.559   4.973  0.00  0.00    -0.314 NA
ATOM     13  H   LIG    1       24.003 -23.210   4.503  0.00  0.00    +0.122 HD
ENDBRANCH   8  12
ENDBRANCH   1   8
TORSDOF 3
ENDMDL
MODEL 2
REMARK VINA RESULT:      -6.5      1.679      2.780
REMARK  Name = *****
REMARK                            x       y       z     vdW  Elec       q    Type
REMARK                         _______ _______ _______ _____ _____    ______ ____
ROOT
ATOM      1  C   LIG    1       24.855 -22.029   5.653  0.00  0.00    +0.056 C 
ENDROOT
BRANCH   1   2
ATOM      2  C   LIG    1       24.186 -20.796   5.080  0.00  0.00    -0.046 A 
ATOM      3  C   LIG    1       24.847 -19.988   4.146  0.00  0.00    +0.003 A 
ATOM      4  C   LIG    1       24.218 -18.861   3.610  0.00  0.00    +0.000 A 
ATOM      5  C   LIG    1       22.924 -18.527   4.008  0.00  0.00    +0.000 A 
ATOM      6  C   LIG    1       22.262 -19.316   4.945  0.00  0.00    +0.000 A 
ATOM      7  C   LIG    1       22.888 -20.441   5.480  0.00  0.00    +0.003 A 
ENDBRANCH   1   2
BRANCH   1   8
ATOM      8  C   LIG    1       25.814 -21.806   6.866  0.00  0.00    +0.017 C 
ATOM      9  C   LIG    1       25.242 -20.792   7.874  0.00  0.00    +0.027 C 
ATOM     10  C   LIG    1       26.053 -23.139   7.610  0.00  0.00    +0.027 C 
BRANCH   8  12
ATOM     11  C   LIG    1       28.207 -21.343   7.424  0.00  0.00    +0.101 C 
ATOM     12  N   LIG    1       27.164 -21.380   6.408  0.00  0.00    -0.314 NA
ATOM     13  H   LIG    1       27.471 -21.999   5.657  0.00  0.00    +0.122 HD
ENDBRANCH   8  12
ENDBRANCH   1   8
TORSDOF 3
ENDMDL
MODEL 3
REMARK VINA RESULT:      -6.5      1.668      2.402
REMARK  Name = *****
REMARK                            x       y       z     vdW  Elec       q    Type
REMARK                         _______ _______ _______ _____ _____    ______ ____
ROOT
ATOM      1  C   LIG    1       24.840 -22.050   5.635  0.00  0.00    +0.056 C 
ENDROOT
BRANCH   1   2
ATOM      2  C   LIG    1       24.157 -20.822   5.067  0.00  0.00    -0.046 A 
ATOM      3  C   LIG    1       22.861 -20.472   5.464  0.00  0.00    +0.003 A 
ATOM      4  C   LIG    1       22.243 -19.329   4.949  0.00  0.00    +0.000 A 
ATOM      5  C   LIG    1       22.915 -18.529   4.024  0.00  0.00    +0.000 A 
ATOM      6  C   LIG    1       24.199 -18.874   3.612  0.00  0.00    +0.000 A 
ATOM      7  C   LIG    1       24.816 -20.014   4.127  0.00  0.00    +0.003 A 
ENDBRANCH   1   2
BRANCH   1   8
ATOM      8  C   LIG    1       25.798 -21.822   6.848  0.00  0.00    +0.017 C 
ATOM      9  C   LIG    1       25.230 -20.794   7.844  0.00  0.00    +0.027 C 
ATOM     10  C   LIG    1       26.025 -23.148   7.605  0.00  0.00    +0.027 C 
BRANCH   8  12
ATOM     11  C   LIG    1       28.187 -21.349   7.411  0.00  0.00    +0.101 C 
ATOM     12  N   LIG    1       27.152 -21.410   6.388  0.00  0.00    -0.314 NA
ATOM     13  H   LIG    1       27.462 -22.048   5.656  0.00  0.00    +0.122 HD
ENDBRANCH   8  12
ENDBRANCH   1   8
TORSDOF 3
ENDMDL
MODEL 4
REMARK VINA RESULT:      -6.4      2.435      3.600
REMARK  Name = *****
REMARK                            x       y       z     vdW  Elec       q    Type
REMARK                         _______ _______ _______ _____ _____    ______ ____
ROOT
ATOM      1  C   LIG    1       24.934 -20.981   6.767  0.00  0.00    +0.056 C 
ENDROOT
BRANCH   1   2
ATOM      2  C   LIG    1       26.372 -20.504   6.807  0.00  0.00    -0.046 A 
ATOM      3  C   LIG    1       27.081 -20.459   8.013  0.00  0.00    +0.003 A 
ATOM      4  C   LIG    1       28.412 -20.033   8.040  0.00  0.00    +0.000 A 
ATOM      5  C   LIG    1       29.044 -19.639   6.861  0.00  0.00    +0.000 A 
ATOM      6  C   LIG    1       28.344 -19.667   5.657  0.00  0.00    +0.000 A 
ATOM      7  C   LIG    1       27.017 -20.093   5.629  0.00  0.00    +0.003 A 
ENDBRANCH   1   2
BRANCH   1   8
ATOM      8  C   LIG    1       24.695 -22.445   6.276  0.00  0.00    +0.017 C 
ATOM      9  C   LIG    1       25.766 -23.414   6.811  0.00  0.00    +0.027 C 
ATOM     10  C   LIG    1       23.314 -22.948   6.749  0.00  0.00    +0.027 C 
BRANCH   8  12
ATOM     11  C   LIG    1       23.996 -21.377   4.127  0.00  0.00    +0.101 C 
ATOM     12  N   LIG    1       24.633 -22.506   4.790  0.00  0.00    -0.314 NA
ATOM     13  H   LIG    1       25.580 -22.601   4.422  0.00  0.00    +0.122 HD
ENDBRANCH   8  12
ENDBRANCH   1   8
TORSDOF 3
ENDMDL
MODEL 5
REMARK VINA RESULT:      -6.4      1.389      4.922
REMARK  Name = *****
REMARK                            x       y       z     vdW  Elec       q    Type
REMARK                         _______ _______ _______ _____ _____    ______ ____
ROOT
ATOM      1  C   LIG    1       23.818 -22.349   7.103  0.00  0.00    +0.056 C 
ENDROOT
BRANCH   1   2
ATOM      2  C   LIG    1       24.380 -23.724   6.798  0.00  0.00    -0.046 A 
ATOM      3  C   LIG    1       25.743 -23.996   6.967  0.00  0.00    +0.003 A 
ATOM      4  C   LIG    1       26.251 -25.270   6.699  0.00  0.00    +0.000 A 
ATOM      5  C   LIG    1       25.402 -26.282   6.252  0.00  0.00    +0.000 A 
ATOM      6  C   LIG    1       24.047 -26.019   6.069  0.00  0.00    +0.000 A 
ATOM      7  C   LIG    1       23.538 -24.748   6.337  0.00  0.00    +0.003 A 
ENDBRANCH   1   2
BRANCH   1   8
ATOM      8  C   LIG    1       24.039 -21.246   6.020  0.00  0.00    +0.017 C 
ATOM      9  C   LIG    1       22.926 -20.181   6.046  0.00  0.00    +0.027 C 
ATOM     10  C   LIG    1       25.389 -20.533   6.253  0.00  0.00    +0.027 C 
BRANCH   8  12
ATOM     11  C   LIG    1       24.194 -20.910   3.548  0.00  0.00    +0.101 C 
ATOM     12  N   LIG    1       24.155 -21.846   4.663  0.00  0.00    -0.314 NA
ATOM     13  H   LIG    1       24.995 -22.423   4.626  0.00  0.00    +0.122 HD
ENDBRANCH   8  12
ENDBRANCH   1   8
TORSDOF 3
ENDMDL
MODEL 6
REMARK VINA RESULT:      -6.3      1.821      4.909
REMARK  Name = *****
REMARK                            x       y       z     vdW  Elec       q    Type
REMARK                         _______ _______ _______ _____ _____    ______ ____
ROOT
ATOM      1  C   LIG    1       23.983 -22.528   7.186  0.00  0.00    +0.056 C 
ENDROOT
BRANCH   1   2
ATOM      2  C   LIG    1       24.485 -23.894   6.763  0.00  0.00    -0.046 A 
ATOM      3  C   LIG    1       23.597 -24.878   6.312  0.00  0.00    +0.003 A 
ATOM      4  C   LIG    1       24.069 -26.130   5.909  0.00  0.00    +0.000 A 
ATOM      5  C   LIG    1       25.433 -26.412   5.959  0.00  0.00    +0.000 A 
ATOM      6  C   LIG    1       26.324 -25.446   6.418  0.00  0.00    +0.000 A 
ATOM      7  C   LIG    1       25.855 -24.196   6.820  0.00  0.00    +0.003 A 
ENDBRANCH   1   2
BRANCH   1   8
ATOM      8  C   LIG    1       24.309 -21.334   6.231  0.00  0.00    +0.017 C 
ATOM      9  C   LIG    1       24.496 -21.797   4.774  0.00  0.00    +0.027 C 
ATOM     10  C   LIG    1       23.165 -20.298   6.262  0.00  0.00    +0.027 C 
BRANCH   8  12
ATOM     11  C   LIG    1       25.747 -20.591   8.136  0.00  0.00    +0.101 C 
ATOM     12  N   LIG    1       25.509 -20.590   6.699  0.00  0.00    -0.314 NA
ATOM     13  H   LIG    1       26.336 -20.970   6.238  0.00  0.00    +0.122 HD
ENDBRANCH   8  12
ENDBRANCH   1   8
TORSDOF 3
ENDMDL
MODEL 7
REMARK VINA RESULT:      -6.3      1.344      4.521
REMARK  Name = *****
REMARK                            x       y       z     vdW  Elec       q    Type
REMARK                         _______ _______ _______ _____ _____    ______ ____
ROOT
ATOM      1  C   LIG    1       23.235 -21.127   6.568  0.00  0.00    +0.056 C 
ENDROOT
BRANCH   1   2
ATOM      2  C   LIG    1       23.948 -22.461   6.668  0.00  0.00    -0.046 A 
ATOM      3  C   LIG    1       23.244 -23.664   6.527  0.00  0.00    +0.003 A 
ATOM      4  C   LIG    1       23.911 -24.890   6.605  0.00  0.00    +0.000 A 
ATOM      5  C   LIG    1       25.286 -24.924   6.833  0.00  0.00    +0.000 A 
ATOM      6  C   LIG    1       25.993 -23.735   6.988  0.00  0.00    +0.000 A 
ATOM      7  C   LIG    1       25.330 -22.511   6.909  0.00  0.00    +0.003 A 
ENDBRANCH   1   2
BRANCH   1   8
ATOM      8  C   LIG    1       22.705 -20.720   5.156  0.00  0.00    +0.017 C 
ATOM      9  C   LIG    1       21.345 -21.372   4.841  0.00  0.00    +0.027 C 
ATOM     10  C   LIG    1       22.532 -19.188   5.071  0.00  0.00    +0.027 C 
BRANCH   8  12
ATOM     11  C   LIG    1       24.812 -20.124   3.950  0.00  0.00    +0.101 C 
ATOM     12  N   LIG    1       23.698 -21.050   4.098  0.00  0.00    -0.314 NA
ATOM     13  H   LIG    1       24.076 -21.981   4.276  0.00  0.00    +0.122 HD
ENDBRANCH   8  12
ENDBRANCH   1   8
TORSDOF 3
ENDMDL
MODEL 8
REMARK VINA RESULT:      -6.3      2.284      3.803
REMARK  Name = *****
REMARK                            x       y       z     vdW  Elec       q    Type
REMARK                         _______ _______ _______ _____ _____    ______ ____
ROOT
ATOM      1  C   LIG    1       24.822 -21.087   7.229  0.00  0.00    +0.056 C 
ENDROOT
BRANCH   1   2
ATOM      2  C   LIG    1       26.308 -20.896   7.001  0.00  0.00    -0.046 A 
ATOM      3  C   LIG    1       26.778 -20.108   5.943  0.00  0.00    +0.003 A 
ATOM      4  C   LIG    1       28.149 -19.923   5.749  0.00  0.00    +0.000 A 
ATOM      5  C   LIG    1       29.065 -20.532   6.607  0.00  0.00    +0.000 A 
ATOM      6  C   LIG    1       28.610 -21.328   7.654  0.00  0.00    +0.000 A 
ATOM      7  C   LIG    1       27.241 -21.512   7.850  0.00  0.00    +0.003 A 
ENDBRANCH   1   2
BRANCH   1   8
ATOM      8  C   LIG    1       24.056 -21.949   6.174  0.00  0.00    +0.017 C 
ATOM      9  C   LIG    1       23.026 -22.885   6.833  0.00  0.00    +0.027 C 
ATOM     10  C   LIG    1       23.306 -21.034   5.181  0.00  0.00    +0.027 C 
BRANCH   8  12
ATOM     11  C   LIG    1       25.096 -24.153   5.617  0.00  0.00    +0.101 C 
ATOM     12  N   LIG    1       25.004 -22.728   5.332  0.00  0.00    -0.314 NA
ATOM     13  H   LIG    1       24.748 -22.613   4.351  0.00  0.00    +0.122 HD
ENDBRANCH   8  12
ENDBRANCH   1   8
TORSDOF 3
ENDMDL
MODEL 9
REMARK VINA RESULT:      -6.2      3.262      4.989
REMARK  Name = *****
REMARK                            x       y       z     vdW  Elec       q    Type
REMARK                         _______ _______ _______ _____ _____    ______ ____
ROOT
ATOM      1  C   LIG    1       27.175 -20.459   8.256  0.00  0.00    +0.056 C 
ENDROOT
BRANCH   1   2
ATOM      2  C   LIG    1       26.004 -21.291   7.772  0.00  0.00    -0.046 A 
ATOM      3  C   LIG    1       26.156 -22.657   7.501  0.00  0.00    +0.003 A 
ATOM      4  C   LIG    1       25.069 -23.421   7.071  0.00  0.00    +0.000 A 
ATOM      5  C   LIG    1       23.820 -22.825   6.900  0.00  0.00    +0.000 A 
ATOM      6  C   LIG    1       23.660 -21.466   7.153  0.00  0.00    +0.000 A 
ATOM      7  C   LIG    1       24.744 -20.702   7.584  0.00  0.00    +0.003 A 
ENDBRANCH   1   2
BRANCH   1   8
ATOM      8  C   LIG    1       28.356 -20.259   7.252  0.00  0.00    +0.017 C 
ATOM      9  C   LIG    1       27.855 -20.034   5.813  0.00  0.00    +0.027 C 
ATOM     10  C   LIG    1       29.203 -19.035   7.661  0.00  0.00    +0.027 C 
BRANCH   8  12
ATOM     11  C   LIG    1       30.296 -21.376   8.362  0.00  0.00    +0.101 C 
ATOM     12  N   LIG    1       29.299 -21.409   7.302  0.00  0.00    -0.314 NA
ATOM     13  H   LIG    1       28.764 -22.273   7.392  0.00  0.00    +0.122 HD
ENDBRANCH   8  12
ENDBRANCH   1   8
TORSDOF 3
ENDMDL
