MODEL 1
REMARK VINA RESULT:      -2.5      0.000      0.000
REMARK  Name = *****
REMARK                            x       y       z     vdW  Elec       q    Type
REMARK                         _______ _______ _______ _____ _____    ______ ____
ROOT
ATOM      1  C   LIG    1       24.765 -19.327   4.231  0.00  0.00    +0.082 A 
ATOM      2  C   LIG    1       25.271 -20.324   5.085  0.00  0.00    +0.133 A 
ATOM      3  C   LIG    1       24.356 -21.096   5.823  0.00  0.00    +0.050 A 
ATOM      4  C   LIG    1       22.977 -20.916   5.689  0.00  0.00    +0.049 A 
ATOM      5  C   LIG    1       22.475 -19.964   4.812  0.00  0.00    +0.122 A 
ATOM      6  C   LIG    1       23.367 -19.186   4.091  0.00  0.00    +0.062 A 
ENDROOT
BRANCH   1   8
ATOM      7  O   LIG    1       26.192 -18.714   2.447  0.00  0.00    -0.270 OA
ATOM      8  C   LIG    1       25.552 -18.337   3.424  0.00  0.00    +0.248 C 
ATOM      9  N   LIG    1       25.513 -17.013   3.787  0.00  0.00    -0.310 N 
ATOM     10  H   LIG    1       24.814 -16.717   4.457  0.00  0.00    +0.149 HD
BRANCH   9  11
ATOM     11  C   LIG    1       26.098 -15.997   2.926  0.00  0.00    +0.123 C 
BRANCH  11  12
ATOM     12  C   LIG    1       26.301 -14.640   3.647  0.00  0.00    +0.071 C 
ATOM     13  N   LIG    1       26.420 -13.495   2.713  0.00  0.00    -0.312 NA
ATOM     14  H   LIG    1       26.703 -12.676   3.252  0.00  0.00    +0.122 HD
ATOM     15  C   LIG    1       25.158 -13.195   2.034  0.00  0.00    +0.081 C 
ATOM     16  C   LIG    1       24.023 -12.915   3.016  0.00  0.00    +0.015 C 
ATOM     17  C   LIG    1       23.855 -14.048   4.024  0.00  0.00    +0.003 C 
ATOM     18  C   LIG    1       25.192 -14.378   4.683  0.00  0.00    +0.020 C 
ENDBRANCH  11  12
ENDBRANCH   9  11
ENDBRANCH   1   8
BRANCH   2  19
ATOM     19  O   LIG    1       26.632 -20.500   5.189  0.00  0.00    -0.482 OA
BRANCH  19  20
ATOM     20  C   LIG    1       27.227 -20.042   6.421  0.00  0.00    +0.342 C 
BRANCH  20  21
ATOM     21  C   LIG    1       28.727 -19.785   6.307  0.00  0.00    +0.424 C 
ATOM     22  F   LIG    1       29.437 -20.842   6.763  0.00  0.00    -0.167 F 
ATOM     23  F   LIG    1       29.079 -18.715   7.061  0.00  0.00    -0.167 F 
ATOM     24  F   LIG    1       29.123 -19.536   5.040  0.00  0.00    -0.167 F 
ENDBRANCH  20  21
ENDBRANCH  19  20
ENDBRANCH   2  19
BRANCH   5  25
ATOM     25  O   LIG    1       21.112 -19.876   4.762  0.00  0.00    -0.483 OA
BRANCH  25  26
ATOM     26  C   LIG    1       20.495 -19.720   3.477  0.00  0.00    +0.342 C 
BRANCH  26  27
ATOM     27  C   LIG    1       20.080 -18.286   3.158  0.00  0.00    +0.424 C 
ATOM     28  F   LIG    1       19.350 -18.223   2.023  0.00  0.00    -0.167 F 
ATOM     29  F   LIG    1       21.173 -17.507   2.973  0.00  0.00    -0.167 F 
ATOM     30  F   LIG    1       19.350 -17.723   4.147  0.00  0.00    -0.167 F 
ENDBRANCH  26  27
ENDBRANCH  25  26
ENDBRANCH   5  25
TORSDOF 9
ENDMDL
MODEL 2
REMARK VINA RESULT:      -2.2      2.854      5.553
REMARK  Name = *****
REMARK                            x       y       z     vdW  Elec       q    Type
REMARK                         _______ _______ _______ _____ _____    ______ ____
ROOT
ATOM      1  C   LIG    1       26.787 -17.274   3.653  0.00  0.00    +0.082 A 
ATOM      2  C   LIG    1       28.026 -17.097   4.296  0.00  0.00    +0.133 A 
ATOM      3  C   LIG    1       28.502 -15.786   4.474  0.00  0.00    +0.050 A 
ATOM      4  C   LIG    1       27.755 -14.678   4.066  0.00  0.00    +0.049 A 
ATOM      5  C   LIG    1       26.511 -14.850   3.473  0.00  0.00    +0.122 A 
ATOM      6  C   LIG    1       26.038 -16.137   3.278  0.00  0.00    +0.062 A 
ENDROOT
BRANCH   1   8
ATOM      7  O   LIG    1       26.078 -18.916   2.105  0.00  0.00    -0.270 OA
ATOM      8  C   LIG    1       26.134 -18.573   3.282  0.00  0.00    +0.248 C 
ATOM      9  N   LIG    1       25.632 -19.367   4.283  0.00  0.00    -0.310 N 
ATOM     10  H   LIG    1       25.884 -19.153   5.240  0.00  0.00    +0.149 HD
BRANCH   9  11
ATOM     11  C   LIG    1       25.167 -20.714   3.990  0.00  0.00    +0.123 C 
BRANCH  11  12
ATOM     12  C   LIG    1       23.641 -20.781   3.725  0.00  0.00    +0.071 C 
ATOM     13  N   LIG    1       22.870 -21.297   4.881  0.00  0.00    -0.312 NA
ATOM     14  H   LIG    1       21.910 -21.455   4.574  0.00  0.00    +0.122 HD
ATOM     15  C   LIG    1       22.855 -20.360   6.006  0.00  0.00    +0.081 C 
ATOM     16  C   LIG    1       22.301 -18.992   5.613  0.00  0.00    +0.015 C 
ATOM     17  C   LIG    1       23.038 -18.406   4.413  0.00  0.00    +0.003 C 
ATOM     18  C   LIG    1       23.086 -19.419   3.271  0.00  0.00    +0.020 C 
ENDBRANCH  11  12
ENDBRANCH   9  11
ENDBRANCH   1   8
BRANCH   2  19
ATOM     19  O   LIG    1       28.739 -18.200   4.708  0.00  0.00    -0.482 OA
BRANCH  19  20
ATOM     20  C   LIG    1       28.620 -18.532   6.107  0.00  0.00    +0.342 C 
BRANCH  20  21
ATOM     21  C   LIG    1       28.422 -20.024   6.357  0.00  0.00    +0.424 C 
ATOM     22  F   LIG    1       28.299 -20.700   5.191  0.00  0.00    -0.167 F 
ATOM     23  F   LIG    1       27.285 -20.236   7.062  0.00  0.00    -0.167 F 
ATOM     24  F   LIG    1       29.439 -20.582   7.051  0.00  0.00    -0.167 F 
ENDBRANCH  20  21
ENDBRANCH  19  20
ENDBRANCH   2  19
BRANCH   5  25
ATOM     25  O   LIG    1       25.870 -13.697   3.116  0.00  0.00    -0.483 OA
BRANCH  25  26
ATOM     26  C   LIG    1       25.436 -12.818   4.163  0.00  0.00    +0.342 C 
BRANCH  26  27
ATOM     27  C   LIG    1       23.919 -12.734   4.313  0.00  0.00    +0.424 C 
ATOM     28  F   LIG    1       23.408 -13.877   4.820  0.00  0.00    -0.167 F 
ATOM     29  F   LIG    1       23.335 -12.536   3.106  0.00  0.00    -0.167 F 
ATOM     30  F   LIG    1       23.530 -11.719   5.117  0.00  0.00    -0.167 F 
ENDBRANCH  26  27
ENDBRANCH  25  26
ENDBRANCH   5  25
TORSDOF 9
ENDMDL
MODEL 3
REMARK VINA RESULT:      -1.7      3.170      6.629
REMARK  Name = *****
REMARK                            x       y       z     vdW  Elec       q    Type
REMARK                         _______ _______ _______ _____ _____    ______ ____
ROOT
ATOM      1  C   LIG    1       24.587 -17.363   3.774  0.00  0.00    +0.082 A 
ATOM      2  C   LIG    1       23.207 -17.410   4.038  0.00  0.00    +0.133 A 
ATOM      3  C   LIG    1       22.534 -16.200   4.287  0.00  0.00    +0.050 A 
ATOM      4  C   LIG    1       23.200 -14.973   4.234  0.00  0.00    +0.049 A 
ATOM      5  C   LIG    1       24.553 -14.921   3.927  0.00  0.00    +0.122 A 
ATOM      6  C   LIG    1       25.230 -16.107   3.696  0.00  0.00    +0.062 A 
ENDROOT
BRANCH   1   8
ATOM      7  O   LIG    1       26.105 -18.657   2.502  0.00  0.00    -0.270 OA
ATOM      8  C   LIG    1       25.514 -18.525   3.570  0.00  0.00    +0.248 C 
ATOM      9  N   LIG    1       25.701 -19.407   4.605  0.00  0.00    -0.310 N 
ATOM     10  H   LIG    1       25.367 -19.148   5.525  0.00  0.00    +0.149 HD
BRANCH   9  11
ATOM     11  C   LIG    1       26.730 -20.431   4.521  0.00  0.00    +0.123 C 
BRANCH  11  12
ATOM     12  C   LIG    1       27.086 -21.043   5.901  0.00  0.00    +0.071 C 
ATOM     13  N   LIG    1       28.470 -21.571   5.966  0.00  0.00    -0.312 NA
ATOM     14  H   LIG    1       28.569 -22.088   6.840  0.00  0.00    +0.122 HD
ATOM     15  C   LIG    1       29.475 -20.507   5.933  0.00  0.00    +0.081 C 
ATOM     16  C   LIG    1       29.280 -19.490   7.057  0.00  0.00    +0.015 C 
ATOM     17  C   LIG    1       27.866 -18.918   7.062  0.00  0.00    +0.003 C 
ATOM     18  C   LIG    1       26.835 -20.044   7.044  0.00  0.00    +0.020 C 
ENDBRANCH  11  12
ENDBRANCH   9  11
ENDBRANCH   1   8
BRANCH   2  19
ATOM     19  O   LIG    1       22.564 -18.627   4.068  0.00  0.00    -0.482 OA
BRANCH  19  20
ATOM     20  C   LIG    1       22.347 -19.185   5.380  0.00  0.00    +0.342 C 
BRANCH  20  21
ATOM     21  C   LIG    1       22.621 -20.685   5.449  0.00  0.00    +0.424 C 
ATOM     22  F   LIG    1       23.189 -21.020   6.630  0.00  0.00    -0.167 F 
ATOM     23  F   LIG    1       23.488 -21.050   4.473  0.00  0.00    -0.167 F 
ATOM     24  F   LIG    1       21.505 -21.432   5.300  0.00  0.00    -0.167 F 
ENDBRANCH  20  21
ENDBRANCH  19  20
ENDBRANCH   2  19
BRANCH   5  25
ATOM     25  O   LIG    1       25.099 -13.668   3.902  0.00  0.00    -0.483 OA
BRANCH  25  26
ATOM     26  C   LIG    1       26.337 -13.460   4.595  0.00  0.00    +0.342 C 
BRANCH  26  27
ATOM     27  C   LIG    1       27.575 -13.800   3.769  0.00  0.00    +0.424 C 
ATOM     28  F   LIG    1       27.324 -13.714   2.444  0.00  0.00    -0.167 F 
ATOM     29  F   LIG    1       27.974 -15.072   4.016  0.00  0.00    -0.167 F 
ATOM     30  F   LIG    1       28.623 -12.992   4.042  0.00  0.00    -0.167 F 
ENDBRANCH  26  27
ENDBRANCH  25  26
ENDBRANCH   5  25
TORSDOF 9
ENDMDL
MODEL 4
REMARK VINA RESULT:      -1.7      1.273      5.570
REMARK  Name = *****
REMARK                            x       y       z     vdW  Elec       q    Type
REMARK                         _______ _______ _______ _____ _____    ______ ____
ROOT
ATOM      1  C   LIG    1       25.397 -19.612   4.422  0.00  0.00    +0.082 A 
ATOM      2  C   LIG    1       24.339 -20.491   4.718  0.00  0.00    +0.133 A 
ATOM      3  C   LIG    1       24.545 -21.474   5.702  0.00  0.00    +0.050 A 
ATOM      4  C   LIG    1       25.751 -21.560   6.405  0.00  0.00    +0.049 A 
ATOM      5  C   LIG    1       26.779 -20.664   6.146  0.00  0.00    +0.122 A 
ATOM      6  C   LIG    1       26.593 -19.700   5.168  0.00  0.00    +0.062 A 
ENDROOT
BRANCH   1   8
ATOM      7  O   LIG    1       24.989 -18.798   2.240  0.00  0.00    -0.270 OA
ATOM      8  C   LIG    1       25.430 -18.555   3.359  0.00  0.00    +0.248 C 
ATOM      9  N   LIG    1       25.933 -17.317   3.676  0.00  0.00    -0.310 N 
ATOM     10  H   LIG    1       26.086 -17.095   4.652  0.00  0.00    +0.149 HD
BRANCH   9  11
ATOM     11  C   LIG    1       25.807 -16.210   2.741  0.00  0.00    +0.123 C 
BRANCH  11  12
ATOM     12  C   LIG    1       26.437 -14.897   3.273  0.00  0.00    +0.071 C 
ATOM     13  N   LIG    1       26.490 -13.821   2.254  0.00  0.00    -0.312 NA
ATOM     14  H   LIG    1       27.052 -13.057   2.632  0.00  0.00    +0.122 HD
ATOM     15  C   LIG    1       25.163 -13.305   1.917  0.00  0.00    +0.081 C 
ATOM     16  C   LIG    1       24.413 -12.788   3.144  0.00  0.00    +0.015 C 
ATOM     17  C   LIG    1       24.336 -13.841   4.245  0.00  0.00    +0.003 C 
ATOM     18  C   LIG    1       25.725 -14.402   4.544  0.00  0.00    +0.020 C 
ENDBRANCH  11  12
ENDBRANCH   9  11
ENDBRANCH   1   8
BRANCH   2  19
ATOM     19  O   LIG    1       23.153 -20.379   4.028  0.00  0.00    -0.482 OA
BRANCH  19  20
ATOM     20  C   LIG    1       22.063 -19.777   4.756  0.00  0.00    +0.342 C 
BRANCH  20  21
ATOM     21  C   LIG    1       21.538 -18.500   4.107  0.00  0.00    +0.424 C 
ATOM     22  F   LIG    1       22.163 -18.261   2.931  0.00  0.00    -0.167 F 
ATOM     23  F   LIG    1       21.775 -17.433   4.908  0.00  0.00    -0.167 F 
ATOM     24  F   LIG    1       20.209 -18.539   3.867  0.00  0.00    -0.167 F 
ENDBRANCH  20  21
ENDBRANCH  19  20
ENDBRANCH   2  19
BRANCH   5  25
ATOM     25  O   LIG    1       27.909 -20.841   6.894  0.00  0.00    -0.483 OA
BRANCH  25  26
ATOM     26  C   LIG    1       29.110 -20.188   6.460  0.00  0.00    +0.342 C 
BRANCH  26  27
ATOM     27  C   LIG    1       28.926 -18.711   6.119  0.00  0.00    +0.424 C 
ATOM     28  F   LIG    1       29.475 -17.914   7.062  0.00  0.00    -0.167 F 
ATOM     29  F   LIG    1       27.608 -18.402   6.054  0.00  0.00    -0.167 F 
ATOM     30  F   LIG    1       29.474 -18.378   4.930  0.00  0.00    -0.167 F 
ENDBRANCH  26  27
ENDBRANCH  25  26
ENDBRANCH   5  25
TORSDOF 9
ENDMDL
MODEL 5
REMARK VINA RESULT:      -1.3      1.881      5.479
REMARK  Name = *****
REMARK                            x       y       z     vdW  Elec       q    Type
REMARK                         _______ _______ _______ _____ _____    ______ ____
ROOT
ATOM      1  C   LIG    1       25.113 -18.559   4.052  0.00  0.00    +0.082 A 
ATOM      2  C   LIG    1       23.721 -18.703   4.189  0.00  0.00    +0.133 A 
ATOM      3  C   LIG    1       23.232 -19.819   4.892  0.00  0.00    +0.050 A 
ATOM      4  C   LIG    1       24.098 -20.745   5.479  0.00  0.00    +0.049 A 
ATOM      5  C   LIG    1       25.474 -20.580   5.384  0.00  0.00    +0.122 A 
ATOM      6  C   LIG    1       25.966 -19.492   4.681  0.00  0.00    +0.062 A 
ENDROOT
BRANCH   1   8
ATOM      7  O   LIG    1       26.197 -17.728   2.121  0.00  0.00    -0.270 OA
ATOM      8  C   LIG    1       25.845 -17.505   3.275  0.00  0.00    +0.248 C 
ATOM      9  N   LIG    1       26.082 -16.292   3.874  0.00  0.00    -0.310 N 
ATOM     10  H   LIG    1       25.596 -16.076   4.735  0.00  0.00    +0.149 HD
BRANCH   9  11
ATOM     11  C   LIG    1       26.612 -15.181   3.099  0.00  0.00    +0.123 C 
BRANCH  11  12
ATOM     12  C   LIG    1       26.890 -13.923   3.962  0.00  0.00    +0.071 C 
ATOM     13  N   LIG    1       27.357 -12.762   3.167  0.00  0.00    -0.312 NA
ATOM     14  H   LIG    1       27.661 -12.037   3.818  0.00  0.00    +0.122 HD
ATOM     15  C   LIG    1       26.305 -12.212   2.311  0.00  0.00    +0.081 C 
ATOM     16  C   LIG    1       25.066 -11.801   3.106  0.00  0.00    +0.015 C 
ATOM     17  C   LIG    1       24.540 -12.946   3.964  0.00  0.00    +0.003 C 
ATOM     18  C   LIG    1       25.665 -13.538   4.811  0.00  0.00    +0.020 C 
ENDBRANCH  11  12
ENDBRANCH   9  11
ENDBRANCH   1   8
BRANCH   2  19
ATOM     19  O   LIG    1       22.883 -17.770   3.619  0.00  0.00    -0.482 OA
BRANCH  19  20
ATOM     20  C   LIG    1       22.064 -17.023   4.542  0.00  0.00    +0.342 C 
BRANCH  20  21
ATOM     21  C   LIG    1       22.629 -15.643   4.867  0.00  0.00    +0.424 C 
ATOM     22  F   LIG    1       22.002 -15.102   5.936  0.00  0.00    -0.167 F 
ATOM     23  F   LIG    1       22.438 -14.799   3.824  0.00  0.00    -0.167 F 
ATOM     24  F   LIG    1       23.954 -15.666   5.133  0.00  0.00    -0.167 F 
ENDBRANCH  20  21
ENDBRANCH  19  20
ENDBRANCH   2  19
BRANCH   5  25
ATOM     25  O   LIG    1       26.222 -21.544   5.997  0.00  0.00    -0.483 OA
BRANCH  25  26
ATOM     26  C   LIG    1       27.095 -21.142   7.062  0.00  0.00    +0.342 C 
BRANCH  26  27
ATOM     27  C   LIG    1       28.410 -20.527   6.587  0.00  0.00    +0.424 C 
ATOM     28  F   LIG    1       29.475 -21.212   7.058  0.00  0.00    -0.167 F 
ATOM     29  F   LIG    1       28.524 -19.253   7.035  0.00  0.00    -0.167 F 
ATOM     30  F   LIG    1       28.510 -20.488   5.240  0.00  0.00    -0.167 F 
ENDBRANCH  26  27
ENDBRANCH  25  26
ENDBRANCH   5  25
TORSDOF 9
ENDMDL
MODEL 6
REMARK VINA RESULT:      -1.2      3.149      5.910
REMARK  Name = *****
REMARK                            x       y       z     vdW  Elec       q    Type
REMARK                         _______ _______ _______ _____ _____    ______ ____
ROOT
ATOM      1  C   LIG    1       25.834 -15.503   3.736  0.00  0.00    +0.082 A 
ATOM      2  C   LIG    1       25.831 -14.260   3.078  0.00  0.00    +0.133 A 
ATOM      3  C   LIG    1       24.599 -13.605   2.898  0.00  0.00    +0.050 A 
ATOM      4  C   LIG    1       23.408 -14.144   3.392  0.00  0.00    +0.049 A 
ATOM      5  C   LIG    1       23.416 -15.349   4.083  0.00  0.00    +0.122 A 
ATOM      6  C   LIG    1       24.622 -16.011   4.252  0.00  0.00    +0.062 A 
ENDROOT
BRANCH   1   8
ATOM      7  O   LIG    1       28.146 -15.952   3.957  0.00  0.00    -0.270 OA
ATOM      8  C   LIG    1       27.008 -16.411   3.958  0.00  0.00    +0.248 C 
ATOM      9  N   LIG    1       26.775 -17.745   4.187  0.00  0.00    -0.310 N 
ATOM     10  H   LIG    1       25.827 -18.041   4.390  0.00  0.00    +0.149 HD
BRANCH   9  11
ATOM     11  C   LIG    1       27.860 -18.621   4.597  0.00  0.00    +0.123 C 
BRANCH  11  12
ATOM     12  C   LIG    1       27.444 -20.114   4.646  0.00  0.00    +0.071 C 
ATOM     13  N   LIG    1       27.852 -20.793   5.899  0.00  0.00    -0.312 NA
ATOM     14  H   LIG    1       27.682 -21.793   5.785  0.00  0.00    +0.122 HD
ATOM     15  C   LIG    1       27.099 -20.318   7.061  0.00  0.00    +0.081 C 
ATOM     16  C   LIG    1       25.591 -20.480   6.880  0.00  0.00    +0.015 C 
ATOM     17  C   LIG    1       25.102 -19.819   5.595  0.00  0.00    +0.003 C 
ATOM     18  C   LIG    1       25.934 -20.289   4.404  0.00  0.00    +0.020 C 
ENDBRANCH  11  12
ENDBRANCH   9  11
ENDBRANCH   1   8
BRANCH   2  19
ATOM     19  O   LIG    1       27.016 -13.736   2.615  0.00  0.00    -0.482 OA
BRANCH  19  20
ATOM     20  C   LIG    1       27.423 -12.489   3.215  0.00  0.00    +0.342 C 
BRANCH  20  21
ATOM     21  C   LIG    1       28.496 -12.659   4.287  0.00  0.00    +0.424 C 
ATOM     22  F   LIG    1       29.079 -11.475   4.583  0.00  0.00    -0.167 F 
ATOM     23  F   LIG    1       29.475 -13.486   3.846  0.00  0.00    -0.167 F 
ATOM     24  F   LIG    1       28.013 -13.180   5.437  0.00  0.00    -0.167 F 
ENDBRANCH  20  21
ENDBRANCH  19  20
ENDBRANCH   2  19
BRANCH   5  25
ATOM     25  O   LIG    1       22.196 -15.779   4.521  0.00  0.00    -0.483 OA
BRANCH  25  26
ATOM     26  C   LIG    1       22.140 -17.011   5.253  0.00  0.00    +0.342 C 
BRANCH  26  27
ATOM     27  C   LIG    1       22.006 -18.251   4.372  0.00  0.00    +0.424 C 
ATOM     28  F   LIG    1       23.073 -18.395   3.555  0.00  0.00    -0.167 F 
ATOM     29  F   LIG    1       20.910 -18.152   3.581  0.00  0.00    -0.167 F 
ATOM     30  F   LIG    1       21.881 -19.389   5.089  0.00  0.00    -0.167 F 
ENDBRANCH  26  27
ENDBRANCH  25  26
ENDBRANCH   5  25
TORSDOF 9
ENDMDL
MODEL 7
REMARK VINA RESULT:      -1.2      2.966      7.497
REMARK  Name = *****
REMARK                            x       y       z     vdW  Elec       q    Type
REMARK                         _______ _______ _______ _____ _____    ______ ____
ROOT
ATOM      1  C   LIG    1       24.611 -16.773   3.871  0.00  0.00    +0.082 A 
ATOM      2  C   LIG    1       23.282 -16.553   4.276  0.00  0.00    +0.133 A 
ATOM      3  C   LIG    1       22.864 -15.229   4.501  0.00  0.00    +0.050 A 
ATOM      4  C   LIG    1       23.725 -14.148   4.291  0.00  0.00    +0.049 A 
ATOM      5  C   LIG    1       25.023 -14.361   3.846  0.00  0.00    +0.122 A 
ATOM      6  C   LIG    1       25.451 -15.662   3.636  0.00  0.00    +0.062 A 
ENDROOT
BRANCH   1   8
ATOM      7  O   LIG    1       25.803 -18.354   2.577  0.00  0.00    -0.270 OA
ATOM      8  C   LIG    1       25.290 -18.094   3.661  0.00  0.00    +0.248 C 
ATOM      9  N   LIG    1       25.346 -18.979   4.709  0.00  0.00    -0.310 N 
ATOM     10  H   LIG    1       25.104 -18.647   5.635  0.00  0.00    +0.149 HD
BRANCH   9  11
ATOM     11  C   LIG    1       26.157 -20.182   4.613  0.00  0.00    +0.123 C 
BRANCH  11  12
ATOM     12  C   LIG    1       25.395 -21.460   5.052  0.00  0.00    +0.071 C 
ATOM     13  N   LIG    1       25.239 -21.571   6.522  0.00  0.00    -0.312 NA
ATOM     14  H   LIG    1       24.873 -22.500   6.730  0.00  0.00    +0.122 HD
ATOM     15  C   LIG    1       24.317 -20.571   7.062  0.00  0.00    +0.081 C 
ATOM     16  C   LIG    1       22.937 -20.643   6.411  0.00  0.00    +0.015 C 
ATOM     17  C   LIG    1       23.023 -20.554   4.891  0.00  0.00    +0.003 C 
ATOM     18  C   LIG    1       24.028 -21.570   4.354  0.00  0.00    +0.020 C 
ENDBRANCH  11  12
ENDBRANCH   9  11
ENDBRANCH   1   8
BRANCH   2  19
ATOM     19  O   LIG    1       22.443 -17.629   4.460  0.00  0.00    -0.482 OA
BRANCH  19  20
ATOM     20  C   LIG    1       21.055 -17.399   4.142  0.00  0.00    +0.342 C 
BRANCH  20  21
ATOM     21  C   LIG    1       20.503 -18.379   3.111  0.00  0.00    +0.424 C 
ATOM     22  F   LIG    1       19.665 -17.758   2.250  0.00  0.00    -0.167 F 
ATOM     23  F   LIG    1       19.791 -19.356   3.724  0.00  0.00    -0.167 F 
ATOM     24  F   LIG    1       21.471 -18.979   2.384  0.00  0.00    -0.167 F 
ENDBRANCH  20  21
ENDBRANCH  19  20
ENDBRANCH   2  19
BRANCH   5  25
ATOM     25  O   LIG    1       25.773 -13.232   3.674  0.00  0.00    -0.483 OA
BRANCH  25  26
ATOM     26  C   LIG    1       26.823 -12.972   4.616  0.00  0.00    +0.342 C 
BRANCH  26  27
ATOM     27  C   LIG    1       28.222 -12.984   4.005  0.00  0.00    +0.424 C 
ATOM     28  F   LIG    1       28.196 -12.627   2.702  0.00  0.00    -0.167 F 
ATOM     29  F   LIG    1       28.754 -14.229   4.067  0.00  0.00    -0.167 F 
ATOM     30  F   LIG    1       29.076 -12.153   4.642  0.00  0.00    -0.167 F 
ENDBRANCH  26  27
ENDBRANCH  25  26
ENDBRANCH   5  25
TORSDOF 9
ENDMDL
MODEL 8
REMARK VINA RESULT:      -0.9      1.714      2.282
REMARK  Name = *****
REMARK                            x       y       z     vdW  Elec       q    Type
REMARK                         _______ _______ _______ _____ _____    ______ ____
ROOT
ATOM      1  C   LIG    1       24.790 -19.058   4.031  0.00  0.00    +0.082 A 
ATOM      2  C   LIG    1       24.906 -20.253   4.764  0.00  0.00    +0.133 A 
ATOM      3  C   LIG    1       23.730 -20.856   5.246  0.00  0.00    +0.050 A 
ATOM      4  C   LIG    1       22.470 -20.314   4.974  0.00  0.00    +0.049 A 
ATOM      5  C   LIG    1       22.352 -19.160   4.212  0.00  0.00    +0.122 A 
ATOM      6  C   LIG    1       23.504 -18.548   3.745  0.00  0.00    +0.062 A 
ENDROOT
BRANCH   1   8
ATOM      7  O   LIG    1       26.691 -18.664   2.680  0.00  0.00    -0.270 OA
ATOM      8  C   LIG    1       25.905 -18.205   3.503  0.00  0.00    +0.248 C 
ATOM      9  N   LIG    1       26.002 -16.905   3.937  0.00  0.00    -0.310 N 
ATOM     10  H   LIG    1       25.221 -16.507   4.443  0.00  0.00    +0.149 HD
BRANCH   9  11
ATOM     11  C   LIG    1       26.942 -15.989   3.311  0.00  0.00    +0.123 C 
BRANCH  11  12
ATOM     12  C   LIG    1       26.378 -14.552   3.165  0.00  0.00    +0.071 C 
ATOM     13  N   LIG    1       25.783 -14.030   4.418  0.00  0.00    -0.312 NA
ATOM     14  H   LIG    1       25.303 -13.156   4.198  0.00  0.00    +0.122 HD
ATOM     15  C   LIG    1       26.791 -13.766   5.447  0.00  0.00    +0.081 C 
ATOM     16  C   LIG    1       27.867 -12.793   4.968  0.00  0.00    +0.015 C 
ATOM     17  C   LIG    1       28.512 -13.261   3.667  0.00  0.00    +0.003 C 
ATOM     18  C   LIG    1       27.441 -13.579   2.626  0.00  0.00    +0.020 C 
ENDBRANCH  11  12
ENDBRANCH   9  11
ENDBRANCH   1   8
BRANCH   2  19
ATOM     19  O   LIG    1       26.154 -20.782   5.005  0.00  0.00    -0.482 OA
BRANCH  19  20
ATOM     20  C   LIG    1       26.723 -20.474   6.294  0.00  0.00    +0.342 C 
BRANCH  20  21
ATOM     21  C   LIG    1       28.235 -20.278   6.254  0.00  0.00    +0.424 C 
ATOM     22  F   LIG    1       28.880 -21.380   6.699  0.00  0.00    -0.167 F 
ATOM     23  F   LIG    1       28.598 -19.252   7.062  0.00  0.00    -0.167 F 
ATOM     24  F   LIG    1       28.697 -20.001   5.015  0.00  0.00    -0.167 F 
ENDBRANCH  20  21
ENDBRANCH  19  20
ENDBRANCH   2  19
BRANCH   5  25
ATOM     25  O   LIG    1       21.073 -18.723   4.010  0.00  0.00    -0.483 OA
BRANCH  25  26
ATOM     26  C   LIG    1       20.829 -17.310   4.069  0.00  0.00    +0.342 C 
BRANCH  26  27
ATOM     27  C   LIG    1       21.775 -16.555   4.999  0.00  0.00    +0.424 C 
ATOM     28  F   LIG    1       22.331 -17.380   5.915  0.00  0.00    -0.167 F 
ATOM     29  F   LIG    1       21.102 -15.597   5.682  0.00  0.00    -0.167 F 
ATOM     30  F   LIG    1       22.780 -15.942   4.335  0.00  0.00    -0.167 F 
ENDBRANCH  26  27
ENDBRANCH  25  26
ENDBRANCH   5  25
TORSDOF 9
ENDMDL
MODEL 9
REMARK VINA RESULT:      -0.4      2.211      5.700
REMARK  Name = *****
REMARK                            x       y       z     vdW  Elec       q    Type
REMARK                         _______ _______ _______ _____ _____    ______ ____
ROOT
ATOM      1  C   LIG    1       24.315 -17.348   4.009  0.00  0.00    +0.082 A 
ATOM      2  C   LIG    1       23.739 -18.611   3.780  0.00  0.00    +0.133 A 
ATOM      3  C   LIG    1       24.596 -19.704   3.561  0.00  0.00    +0.050 A 
ATOM      4  C   LIG    1       25.986 -19.562   3.610  0.00  0.00    +0.049 A 
ATOM      5  C   LIG    1       26.555 -18.325   3.882  0.00  0.00    +0.122 A 
ATOM      6  C   LIG    1       25.721 -17.237   4.084  0.00  0.00    +0.062 A 
ENDROOT
BRANCH   1   8
ATOM      7  O   LIG    1       22.571 -15.986   4.843  0.00  0.00    -0.270 OA
ATOM      8  C   LIG    1       23.600 -16.040   4.177  0.00  0.00    +0.248 C 
ATOM      9  N   LIG    1       24.137 -14.917   3.597  0.00  0.00    -0.310 N 
ATOM     10  H   LIG    1       25.085 -14.964   3.243  0.00  0.00    +0.149 HD
BRANCH   9  11
ATOM     11  C   LIG    1       23.589 -13.603   3.893  0.00  0.00    +0.123 C 
BRANCH  11  12
ATOM     12  C   LIG    1       24.645 -12.472   3.792  0.00  0.00    +0.071 C 
ATOM     13  N   LIG    1       25.478 -12.342   5.011  0.00  0.00    -0.312 NA
ATOM     14  H   LIG    1       26.032 -11.489   4.924  0.00  0.00    +0.122 HD
ATOM     15  C   LIG    1       26.388 -13.475   5.189  0.00  0.00    +0.081 C 
ATOM     16  C   LIG    1       27.304 -13.678   3.984  0.00  0.00    +0.015 C 
ATOM     17  C   LIG    1       26.512 -13.802   2.686  0.00  0.00    +0.003 C 
ATOM     18  C   LIG    1       25.534 -12.638   2.546  0.00  0.00    +0.020 C 
ENDBRANCH  11  12
ENDBRANCH   9  11
ENDBRANCH   1   8
BRANCH   2  19
ATOM     19  O   LIG    1       22.368 -18.736   3.754  0.00  0.00    -0.482 OA
BRANCH  19  20
ATOM     20  C   LIG    1       21.862 -20.078   3.899  0.00  0.00    +0.342 C 
BRANCH  20  21
ATOM     21  C   LIG    1       22.279 -20.741   5.209  0.00  0.00    +0.424 C 
ATOM     22  F   LIG    1       23.392 -21.491   5.040  0.00  0.00    -0.167 F 
ATOM     23  F   LIG    1       21.302 -21.572   5.647  0.00  0.00    -0.167 F 
ATOM     24  F   LIG    1       22.526 -19.850   6.194  0.00  0.00    -0.167 F 
ENDBRANCH  20  21
ENDBRANCH  19  20
ENDBRANCH   2  19
BRANCH   5  25
ATOM     25  O   LIG    1       27.921 -18.305   3.907  0.00  0.00    -0.483 OA
BRANCH  25  26
ATOM     26  C   LIG    1       28.569 -18.161   5.178  0.00  0.00    +0.342 C 
BRANCH  26  27
ATOM     27  C   LIG    1       28.579 -19.438   6.017  0.00  0.00    +0.424 C 
ATOM     28  F   LIG    1       27.372 -19.670   6.578  0.00  0.00    -0.167 F 
ATOM     29  F   LIG    1       29.475 -19.332   7.028  0.00  0.00    -0.167 F 
ATOM     30  F   LIG    1       28.915 -20.531   5.297  0.00  0.00    -0.167 F 
ENDBRANCH  26  27
ENDBRANCH  25  26
ENDBRANCH   5  25
TORSDOF 9
ENDMDL
