MODEL 1
REMARK VINA RESULT:     -10.1      0.000      0.000
REMARK  Name = *****
REMARK                            x       y       z     vdW  Elec       q    Type
REMARK                         _______ _______ _______ _____ _____    ______ ____
ROOT
ATOM      1  O   LIG    1       23.420 -24.798   6.602  0.00  0.00    -0.270 OA
ATOM      2  C   LIG    1       24.634 -24.716   6.487  0.00  0.00    +0.248 C 
ATOM      3  N   LIG    1       25.543 -25.770   6.455  0.00  0.00    -0.281 N 
ATOM      4  H   LIG    1       26.518 -25.541   6.584  0.00  0.00    +0.155 HD
ENDROOT
BRANCH   3   5
ATOM      5  C   LIG    1       25.206 -27.136   6.511  0.00  0.00    +0.037 A 
ATOM      6  C   LIG    1       25.550 -27.846   7.672  0.00  0.00    +0.070 A 
ATOM      7  C   LIG    1       25.156 -29.179   7.812  0.00  0.00    +0.141 A 
ATOM      8  C   LIG    1       24.448 -29.806   6.789  0.00  0.00    +0.064 A 
ATOM      9  C   LIG    1       23.995 -31.190   6.978  0.00  0.00    +0.193 C 
ATOM     10  C   LIG    1       24.334 -31.818   8.261  0.00  0.00    +0.101 C 
ATOM     11  C   LIG    1       25.040 -31.119   9.158  0.00  0.00    +0.177 C 
ATOM     12  O   LIG    1       23.365 -31.795   6.122  0.00  0.00    -0.287 OA
ATOM     13  C   LIG    1       24.160 -29.126   5.608  0.00  0.00    +0.017 A 
ATOM     14  O   LIG    1       25.482 -29.817   8.983  0.00  0.00    -0.451 OA
ATOM     15  C   LIG    1       24.545 -27.793   5.474  0.00  0.00    +0.024 A 
BRANCH  11  16
ATOM     16  C   LIG    1       25.381 -31.713  10.393  0.00  0.00    +0.215 A 
ATOM     17  N   LIG    1       25.159 -33.047  10.592  0.00  0.00    -0.236 N 
ATOM     18  H   LIG    1       24.760 -33.736   9.966  0.00  0.00    +0.192 HD
ATOM     19  N   LIG    1       25.523 -33.401  11.830  0.00  0.00    -0.046 NA
ATOM     20  N   LIG    1       25.973 -32.285  12.386  0.00  0.00    -0.023 NA
ATOM     21  N   LIG    1       25.878 -31.227  11.514  0.00  0.00    -0.105 NA
ENDBRANCH  11  16
ENDBRANCH   3   5
BRANCH   2  22
ATOM     22  C   LIG    1       25.266 -23.362   6.459  0.00  0.00    +0.037 A 
ATOM     23  C   LIG    1       26.302 -23.096   7.365  0.00  0.00    +0.016 A 
ATOM     24  C   LIG    1       26.945 -21.852   7.342  0.00  0.00    +0.046 A 
ATOM     25  C   LIG    1       26.573 -20.886   6.407  0.00  0.00    +0.120 A 
ATOM     26  C   LIG    1       25.525 -21.157   5.523  0.00  0.00    +0.046 A 
ATOM     27  C   LIG    1       24.857 -22.382   5.562  0.00  0.00    +0.016 A 
BRANCH  25  28
ATOM     28  O   LIG    1       27.177 -19.668   6.233  0.00  0.00    -0.492 OA
BRANCH  28  29
ATOM     29  C   LIG    1       28.376 -19.658   5.453  0.00  0.00    +0.229 C 
BRANCH  29  30
ATOM     30  C   LIG    1       29.341 -18.629   6.044  0.00  0.00    +0.041 C 
BRANCH  30  31
ATOM     31  C   LIG    1       30.394 -19.239   6.977  0.00  0.00    +0.008 C 
BRANCH  31  32
ATOM     32  C   LIG    1       29.994 -19.219   8.457  0.00  0.00    +0.035 C 
BRANCH  32  33
ATOM     33  C   LIG    1       30.712 -18.144   9.238  0.00  0.00    -0.047 A 
ATOM     34  C   LIG    1       31.961 -17.669   8.816  0.00  0.00    +0.003 A 
ATOM     35  C   LIG    1       32.632 -16.686   9.549  0.00  0.00    +0.000 A 
ATOM     36  C   LIG    1       32.060 -16.163  10.706  0.00  0.00    +0.000 A 
ATOM     37  C   LIG    1       30.814 -16.622  11.132  0.00  0.00    +0.000 A 
ATOM     38  C   LIG    1       30.145 -17.609  10.405  0.00  0.00    +0.003 A 
ENDBRANCH  32  33
ENDBRANCH  31  32
ENDBRANCH  30  31
ENDBRANCH  29  30
ENDBRANCH  28  29
ENDBRANCH  25  28
ENDBRANCH   2  22
TORSDOF 9
ENDMDL
MODEL 2
REMARK VINA RESULT:     -10.0      3.808     10.912
REMARK  Name = *****
REMARK                            x       y       z     vdW  Elec       q    Type
REMARK                         _______ _______ _______ _____ _____    ______ ____
ROOT
ATOM      1  O   LIG    1       26.560 -26.746   5.372  0.00  0.00    -0.270 OA
ATOM      2  C   LIG    1       25.600 -26.823   6.124  0.00  0.00    +0.248 C 
ATOM      3  N   LIG    1       24.888 -25.762   6.680  0.00  0.00    -0.281 N 
ATOM      4  H   LIG    1       24.272 -25.976   7.452  0.00  0.00    +0.155 HD
ENDROOT
BRANCH   3   5
ATOM      5  C   LIG    1       25.136 -24.398   6.433  0.00  0.00    +0.037 A 
ATOM      6  C   LIG    1       26.209 -23.797   7.109  0.00  0.00    +0.070 A 
ATOM      7  C   LIG    1       26.549 -22.472   6.828  0.00  0.00    +0.141 A 
ATOM      8  C   LIG    1       25.808 -21.745   5.900  0.00  0.00    +0.064 A 
ATOM      9  C   LIG    1       26.216 -20.371   5.578  0.00  0.00    +0.193 C 
ATOM     10  C   LIG    1       27.402 -19.862   6.279  0.00  0.00    +0.101 C 
ATOM     11  C   LIG    1       28.017 -20.650   7.169  0.00  0.00    +0.177 C 
ATOM     12  O   LIG    1       25.613 -19.682   4.768  0.00  0.00    -0.287 OA
ATOM     13  C   LIG    1       24.703 -22.316   5.273  0.00  0.00    +0.017 A 
ATOM     14  O   LIG    1       27.632 -21.942   7.488  0.00  0.00    -0.451 OA
ATOM     15  C   LIG    1       24.370 -23.641   5.546  0.00  0.00    +0.024 A 
BRANCH  11  16
ATOM     16  C   LIG    1       29.153 -20.170   7.857  0.00  0.00    +0.215 A 
ATOM     17  N   LIG    1       30.363 -20.783   7.686  0.00  0.00    -0.236 N 
ATOM     18  H   LIG    1       30.608 -21.583   7.116  0.00  0.00    +0.192 HD
ATOM     19  N   LIG    1       31.295 -20.194   8.445  0.00  0.00    -0.046 NA
ATOM     20  N   LIG    1       30.657 -19.217   9.074  0.00  0.00    -0.023 NA
ATOM     21  N   LIG    1       29.326 -19.199   8.731  0.00  0.00    -0.105 NA
ENDBRANCH  11  16
ENDBRANCH   3   5
BRANCH   2  22
ATOM     22  C   LIG    1       25.157 -28.170   6.593  0.00  0.00    +0.037 A 
ATOM     23  C   LIG    1       25.481 -28.555   7.902  0.00  0.00    +0.016 A 
ATOM     24  C   LIG    1       25.049 -29.794   8.390  0.00  0.00    +0.046 A 
ATOM     25  C   LIG    1       24.279 -30.637   7.587  0.00  0.00    +0.120 A 
ATOM     26  C   LIG    1       23.980 -30.249   6.278  0.00  0.00    +0.046 A 
ATOM     27  C   LIG    1       24.436 -29.030   5.773  0.00  0.00    +0.016 A 
BRANCH  25  28
ATOM     28  O   LIG    1       23.732 -31.832   7.976  0.00  0.00    -0.492 OA
BRANCH  28  29
ATOM     29  C   LIG    1       23.620 -32.051   9.385  0.00  0.00    +0.229 C 
BRANCH  29  30
ATOM     30  C   LIG    1       22.170 -31.812   9.808  0.00  0.00    +0.041 C 
BRANCH  30  31
ATOM     31  C   LIG    1       21.964 -30.505  10.584  0.00  0.00    +0.008 C 
BRANCH  31  32
ATOM     32  C   LIG    1       22.912 -30.340  11.778  0.00  0.00    +0.035 C 
BRANCH  32  33
ATOM     33  C   LIG    1       22.850 -28.956  12.381  0.00  0.00    -0.047 A 
ATOM     34  C   LIG    1       24.024 -28.278  12.734  0.00  0.00    +0.003 A 
ATOM     35  C   LIG    1       23.965 -27.005  13.307  0.00  0.00    +0.000 A 
ATOM     36  C   LIG    1       22.733 -26.394  13.528  0.00  0.00    +0.000 A 
ATOM     37  C   LIG    1       21.557 -27.055  13.174  0.00  0.00    +0.000 A 
ATOM     38  C   LIG    1       21.615 -28.330  12.607  0.00  0.00    +0.003 A 
ENDBRANCH  32  33
ENDBRANCH  31  32
ENDBRANCH  30  31
ENDBRANCH  29  30
ENDBRANCH  28  29
ENDBRANCH  25  28
ENDBRANCH   2  22
TORSDOF 9
ENDMDL
MODEL 3
REMARK VINA RESULT:      -9.9      3.863     10.666
REMARK  Name = *****
REMARK                            x       y       z     vdW  Elec       q    Type
REMARK                         _______ _______ _______ _____ _____    ______ ____
ROOT
ATOM      1  O   LIG    1       25.994 -27.027   4.774  0.00  0.00    -0.270 OA
ATOM      2  C   LIG    1       25.177 -27.469   5.568  0.00  0.00    +0.248 C 
ATOM      3  N   LIG    1       24.426 -26.740   6.487  0.00  0.00    -0.281 N 
ATOM      4  H   LIG    1       23.968 -27.260   7.222  0.00  0.00    +0.155 HD
ENDROOT
BRANCH   3   5
ATOM      5  C   LIG    1       24.454 -25.340   6.630  0.00  0.00    +0.037 A 
ATOM      6  C   LIG    1       25.695 -24.735   6.887  0.00  0.00    +0.070 A 
ATOM      7  C   LIG    1       25.788 -23.342   6.946  0.00  0.00    +0.141 A 
ATOM      8  C   LIG    1       24.647 -22.562   6.779  0.00  0.00    +0.064 A 
ATOM      9  C   LIG    1       24.775 -21.098   6.790  0.00  0.00    +0.193 C 
ATOM     10  C   LIG    1       26.129 -20.563   6.983  0.00  0.00    +0.101 C 
ATOM     11  C   LIG    1       27.145 -21.418   7.157  0.00  0.00    +0.177 C 
ATOM     12  O   LIG    1       23.814 -20.356   6.642  0.00  0.00    -0.287 OA
ATOM     13  C   LIG    1       23.403 -23.158   6.588  0.00  0.00    +0.017 A 
ATOM     14  O   LIG    1       27.031 -22.799   7.160  0.00  0.00    -0.451 OA
ATOM     15  C   LIG    1       23.313 -24.547   6.518  0.00  0.00    +0.024 A 
BRANCH  11  16
ATOM     16  C   LIG    1       28.451 -20.917   7.352  0.00  0.00    +0.215 A 
ATOM     17  N   LIG    1       29.010 -20.090   6.418  0.00  0.00    -0.236 N 
ATOM     18  H   LIG    1       28.628 -19.750   5.545  0.00  0.00    +0.192 HD
ATOM     19  N   LIG    1       30.254 -19.754   6.779  0.00  0.00    -0.046 NA
ATOM     20  N   LIG    1       30.453 -20.371   7.936  0.00  0.00    -0.023 NA
ATOM     21  N   LIG    1       29.350 -21.107   8.297  0.00  0.00    -0.105 NA
ENDBRANCH  11  16
ENDBRANCH   3   5
BRANCH   2  22
ATOM     22  C   LIG    1       24.989 -28.948   5.661  0.00  0.00    +0.037 A 
ATOM     23  C   LIG    1       25.835 -29.772   4.904  0.00  0.00    +0.016 A 
ATOM     24  C   LIG    1       25.716 -31.164   4.995  0.00  0.00    +0.046 A 
ATOM     25  C   LIG    1       24.773 -31.735   5.852  0.00  0.00    +0.120 A 
ATOM     26  C   LIG    1       23.922 -30.902   6.586  0.00  0.00    +0.046 A 
ATOM     27  C   LIG    1       24.014 -29.513   6.474  0.00  0.00    +0.016 A 
BRANCH  25  28
ATOM     28  O   LIG    1       24.614 -33.075   6.088  0.00  0.00    -0.492 OA
BRANCH  28  29
ATOM     29  C   LIG    1       24.961 -33.536   7.397  0.00  0.00    +0.229 C 
BRANCH  29  30
ATOM     30  C   LIG    1       26.485 -33.543   7.529  0.00  0.00    +0.041 C 
BRANCH  30  31
ATOM     31  C   LIG    1       27.004 -32.692   8.696  0.00  0.00    +0.008 C 
BRANCH  31  32
ATOM     32  C   LIG    1       25.893 -32.100   9.570  0.00  0.00    +0.035 C 
BRANCH  32  33
ATOM     33  C   LIG    1       26.195 -30.689  10.017  0.00  0.00    -0.047 A 
ATOM     34  C   LIG    1       26.292 -30.376  11.379  0.00  0.00    +0.003 A 
ATOM     35  C   LIG    1       26.556 -29.068  11.790  0.00  0.00    +0.000 A 
ATOM     36  C   LIG    1       26.731 -28.059  10.846  0.00  0.00    +0.000 A 
ATOM     37  C   LIG    1       26.645 -28.358   9.487  0.00  0.00    +0.000 A 
ATOM     38  C   LIG    1       26.375 -29.665   9.074  0.00  0.00    +0.003 A 
ENDBRANCH  32  33
ENDBRANCH  31  32
ENDBRANCH  30  31
ENDBRANCH  29  30
ENDBRANCH  28  29
ENDBRANCH  25  28
ENDBRANCH   2  22
TORSDOF 9
ENDMDL
MODEL 4
REMARK VINA RESULT:      -9.1      1.656      2.186
REMARK  Name = *****
REMARK                            x       y       z     vdW  Elec       q    Type
REMARK                         _______ _______ _______ _____ _____    ______ ____
ROOT
ATOM      1  O   LIG    1       23.576 -25.999   5.376  0.00  0.00    -0.270 OA
ATOM      2  C   LIG    1       24.641 -25.826   5.949  0.00  0.00    +0.248 C 
ATOM      3  N   LIG    1       25.456 -26.807   6.510  0.00  0.00    -0.281 N 
ATOM      4  H   LIG    1       26.182 -26.496   7.140  0.00  0.00    +0.155 HD
ENDROOT
BRANCH   3   5
ATOM      5  C   LIG    1       25.204 -28.191   6.475  0.00  0.00    +0.037 A 
ATOM      6  C   LIG    1       24.605 -28.774   7.603  0.00  0.00    +0.070 A 
ATOM      7  C   LIG    1       24.252 -30.125   7.580  0.00  0.00    +0.141 A 
ATOM      8  C   LIG    1       24.521 -30.895   6.451  0.00  0.00    +0.064 A 
ATOM      9  C   LIG    1       24.092 -32.300   6.425  0.00  0.00    +0.193 C 
ATOM     10  C   LIG    1       23.400 -32.792   7.623  0.00  0.00    +0.101 C 
ATOM     11  C   LIG    1       23.221 -31.960   8.656  0.00  0.00    +0.177 C 
ATOM     12  O   LIG    1       24.291 -33.027   5.463  0.00  0.00    -0.287 OA
ATOM     13  C   LIG    1       25.172 -30.338   5.353  0.00  0.00    +0.017 A 
ATOM     14  O   LIG    1       23.633 -30.638   8.693  0.00  0.00    -0.451 OA
ATOM     15  C   LIG    1       25.515 -28.987   5.373  0.00  0.00    +0.024 A 
BRANCH  11  16
ATOM     16  C   LIG    1       22.564 -32.423   9.818  0.00  0.00    +0.215 A 
ATOM     17  N   LIG    1       21.205 -32.574   9.818  0.00  0.00    -0.236 N 
ATOM     18  H   LIG    1       20.535 -32.396   9.081  0.00  0.00    +0.192 HD
ATOM     19  N   LIG    1       20.784 -32.993  11.017  0.00  0.00    -0.046 NA
ATOM     20  N   LIG    1       21.884 -33.104  11.747  0.00  0.00    -0.023 NA
ATOM     21  N   LIG    1       22.994 -32.740  11.023  0.00  0.00    -0.105 NA
ENDBRANCH  11  16
ENDBRANCH   3   5
BRANCH   2  22
ATOM     22  C   LIG    1       25.122 -24.429   6.171  0.00  0.00    +0.037 A 
ATOM     23  C   LIG    1       24.750 -23.445   5.244  0.00  0.00    +0.016 A 
ATOM     24  C   LIG    1       25.149 -22.117   5.441  0.00  0.00    +0.046 A 
ATOM     25  C   LIG    1       25.896 -21.766   6.566  0.00  0.00    +0.120 A 
ATOM     26  C   LIG    1       26.277 -22.761   7.472  0.00  0.00    +0.046 A 
ATOM     27  C   LIG    1       25.911 -24.092   7.265  0.00  0.00    +0.016 A 
BRANCH  25  28
ATOM     28  O   LIG    1       26.275 -20.495   6.909  0.00  0.00    -0.492 OA
BRANCH  28  29
ATOM     29  C   LIG    1       27.416 -19.967   6.227  0.00  0.00    +0.229 C 
BRANCH  29  30
ATOM     30  C   LIG    1       28.605 -19.953   7.189  0.00  0.00    +0.041 C 
BRANCH  30  31
ATOM     31  C   LIG    1       29.674 -18.913   6.830  0.00  0.00    +0.008 C 
BRANCH  31  32
ATOM     32  C   LIG    1       31.000 -19.109   7.575  0.00  0.00    +0.035 C 
BRANCH  32  33
ATOM     33  C   LIG    1       31.153 -18.167   8.746  0.00  0.00    -0.047 A 
ATOM     34  C   LIG    1       30.205 -18.151   9.777  0.00  0.00    +0.003 A 
ATOM     35  C   LIG    1       30.339 -17.268  10.852  0.00  0.00    +0.000 A 
ATOM     36  C   LIG    1       31.423 -16.396  10.910  0.00  0.00    +0.000 A 
ATOM     37  C   LIG    1       32.377 -16.407   9.894  0.00  0.00    +0.000 A 
ATOM     38  C   LIG    1       32.242 -17.285   8.816  0.00  0.00    +0.003 A 
ENDBRANCH  32  33
ENDBRANCH  31  32
ENDBRANCH  30  31
ENDBRANCH  29  30
ENDBRANCH  28  29
ENDBRANCH  25  28
ENDBRANCH   2  22
TORSDOF 9
ENDMDL
MODEL 5
REMARK VINA RESULT:      -9.0      1.974      2.773
REMARK  Name = *****
REMARK                            x       y       z     vdW  Elec       q    Type
REMARK                         _______ _______ _______ _____ _____    ______ ____
ROOT
ATOM      1  O   LIG    1       27.092 -26.529   5.830  0.00  0.00    -0.270 OA
ATOM      2  C   LIG    1       25.940 -26.261   6.138  0.00  0.00    +0.248 C 
ATOM      3  N   LIG    1       24.924 -27.166   6.438  0.00  0.00    -0.281 N 
ATOM      4  H   LIG    1       23.979 -26.808   6.451  0.00  0.00    +0.155 HD
ENDROOT
BRANCH   3   5
ATOM      5  C   LIG    1       25.067 -28.566   6.476  0.00  0.00    +0.037 A 
ATOM      6  C   LIG    1       25.053 -29.189   7.733  0.00  0.00    +0.070 A 
ATOM      7  C   LIG    1       25.101 -30.583   7.816  0.00  0.00    +0.141 A 
ATOM      8  C   LIG    1       25.189 -31.346   6.655  0.00  0.00    +0.064 A 
ATOM      9  C   LIG    1       25.182 -32.811   6.761  0.00  0.00    +0.193 C 
ATOM     10  C   LIG    1       25.081 -33.367   8.116  0.00  0.00    +0.101 C 
ATOM     11  C   LIG    1       25.025 -32.528   9.158  0.00  0.00    +0.177 C 
ATOM     12  O   LIG    1       25.251 -33.539   5.780  0.00  0.00    -0.287 OA
ATOM     13  C   LIG    1       25.268 -30.731   5.408  0.00  0.00    +0.017 A 
ATOM     14  O   LIG    1       25.044 -31.145   9.068  0.00  0.00    -0.451 OA
ATOM     15  C   LIG    1       25.210 -29.341   5.325  0.00  0.00    +0.024 A 
BRANCH  11  16
ATOM     16  C   LIG    1       24.936 -33.048  10.468  0.00  0.00    +0.215 A 
ATOM     17  N   LIG    1       23.713 -33.339  11.005  0.00  0.00    -0.236 N 
ATOM     18  H   LIG    1       22.790 -33.236  10.602  0.00  0.00    +0.192 HD
ATOM     19  N   LIG    1       23.849 -33.791  12.257  0.00  0.00    -0.046 NA
ATOM     20  N   LIG    1       25.155 -33.783  12.483  0.00  0.00    -0.023 NA
ATOM     21  N   LIG    1       25.841 -33.312  11.389  0.00  0.00    -0.105 NA
ENDBRANCH  11  16
ENDBRANCH   3   5
BRANCH   2  22
ATOM     22  C   LIG    1       25.504 -24.833   6.124  0.00  0.00    +0.037 A 
ATOM     23  C   LIG    1       25.795 -24.040   7.244  0.00  0.00    +0.016 A 
ATOM     24  C   LIG    1       25.437 -22.687   7.251  0.00  0.00    +0.046 A 
ATOM     25  C   LIG    1       24.812 -22.119   6.140  0.00  0.00    +0.120 A 
ATOM     26  C   LIG    1       24.510 -22.925   5.038  0.00  0.00    +0.046 A 
ATOM     27  C   LIG    1       24.834 -24.283   5.038  0.00  0.00    +0.016 A 
BRANCH  25  28
ATOM     28  O   LIG    1       24.486 -20.796   5.996  0.00  0.00    -0.492 OA
BRANCH  28  29
ATOM     29  C   LIG    1       24.581 -20.259   4.673  0.00  0.00    +0.229 C 
BRANCH  29  30
ATOM     30  C   LIG    1       25.920 -19.534   4.528  0.00  0.00    +0.041 C 
BRANCH  30  31
ATOM     31  C   LIG    1       27.038 -20.131   5.393  0.00  0.00    +0.008 C 
BRANCH  31  32
ATOM     32  C   LIG    1       28.310 -19.276   5.433  0.00  0.00    +0.035 C 
BRANCH  32  33
ATOM     33  C   LIG    1       29.263 -19.704   6.525  0.00  0.00    -0.047 A 
ATOM     34  C   LIG    1       29.043 -20.889   7.239  0.00  0.00    +0.003 A 
ATOM     35  C   LIG    1       29.916 -21.276   8.259  0.00  0.00    +0.000 A 
ATOM     36  C   LIG    1       31.020 -20.486   8.572  0.00  0.00    +0.000 A 
ATOM     37  C   LIG    1       31.254 -19.309   7.864  0.00  0.00    +0.000 A 
ATOM     38  C   LIG    1       30.379 -18.918   6.848  0.00  0.00    +0.003 A 
ENDBRANCH  32  33
ENDBRANCH  31  32
ENDBRANCH  30  31
ENDBRANCH  29  30
ENDBRANCH  28  29
ENDBRANCH  25  28
ENDBRANCH   2  22
TORSDOF 9
ENDMDL
MODEL 6
REMARK VINA RESULT:      -8.4      3.799     12.103
REMARK  Name = *****
REMARK                            x       y       z     vdW  Elec       q    Type
REMARK                         _______ _______ _______ _____ _____    ______ ____
ROOT
ATOM      1  O   LIG    1       25.758 -27.004   4.687  0.00  0.00    -0.270 OA
ATOM      2  C   LIG    1       25.170 -27.393   5.685  0.00  0.00    +0.248 C 
ATOM      3  N   LIG    1       24.608 -26.603   6.685  0.00  0.00    -0.281 N 
ATOM      4  H   LIG    1       24.359 -27.063   7.549  0.00  0.00    +0.155 HD
ENDROOT
BRANCH   3   5
ATOM      5  C   LIG    1       24.589 -25.195   6.693  0.00  0.00    +0.037 A 
ATOM      6  C   LIG    1       25.806 -24.528   6.902  0.00  0.00    +0.070 A 
ATOM      7  C   LIG    1       25.852 -23.133   6.829  0.00  0.00    +0.141 A 
ATOM      8  C   LIG    1       24.689 -22.411   6.577  0.00  0.00    +0.064 A 
ATOM      9  C   LIG    1       24.769 -20.950   6.449  0.00  0.00    +0.193 C 
ATOM     10  C   LIG    1       26.102 -20.354   6.602  0.00  0.00    +0.101 C 
ATOM     11  C   LIG    1       27.143 -21.153   6.867  0.00  0.00    +0.177 C 
ATOM     12  O   LIG    1       23.786 -20.258   6.222  0.00  0.00    -0.287 OA
ATOM     13  C   LIG    1       23.467 -23.064   6.433  0.00  0.00    +0.017 A 
ATOM     14  O   LIG    1       27.074 -22.530   7.001  0.00  0.00    -0.451 OA
ATOM     15  C   LIG    1       23.423 -24.456   6.496  0.00  0.00    +0.024 A 
BRANCH  11  16
ATOM     16  C   LIG    1       28.429 -20.592   7.025  0.00  0.00    +0.215 A 
ATOM     17  N   LIG    1       29.323 -21.168   7.885  0.00  0.00    -0.236 N 
ATOM     18  H   LIG    1       29.217 -21.983   8.476  0.00  0.00    +0.192 HD
ATOM     19  N   LIG    1       30.464 -20.469   7.908  0.00  0.00    -0.046 NA
ATOM     20  N   LIG    1       30.271 -19.470   7.058  0.00  0.00    -0.023 NA
ATOM     21  N   LIG    1       29.009 -19.525   6.514  0.00  0.00    -0.105 NA
ENDBRANCH  11  16
ENDBRANCH   3   5
BRANCH   2  22
ATOM     22  C   LIG    1       25.092 -28.861   5.948  0.00  0.00    +0.037 A 
ATOM     23  C   LIG    1       24.550 -29.287   7.169  0.00  0.00    +0.016 A 
ATOM     24  C   LIG    1       24.424 -30.656   7.436  0.00  0.00    +0.046 A 
ATOM     25  C   LIG    1       24.816 -31.597   6.483  0.00  0.00    +0.120 A 
ATOM     26  C   LIG    1       25.374 -31.159   5.278  0.00  0.00    +0.046 A 
ATOM     27  C   LIG    1       25.533 -29.796   5.020  0.00  0.00    +0.016 A 
BRANCH  25  28
ATOM     28  O   LIG    1       24.669 -32.955   6.593  0.00  0.00    -0.492 OA
BRANCH  28  29
ATOM     29  C   LIG    1       24.933 -33.521   7.880  0.00  0.00    +0.229 C 
BRANCH  29  30
ATOM     30  C   LIG    1       23.602 -33.825   8.568  0.00  0.00    +0.041 C 
BRANCH  30  31
ATOM     31  C   LIG    1       23.665 -33.732  10.098  0.00  0.00    +0.008 C 
BRANCH  31  32
ATOM     32  C   LIG    1       23.262 -32.360  10.651  0.00  0.00    +0.035 C 
BRANCH  32  33
ATOM     33  C   LIG    1       21.770 -32.128  10.595  0.00  0.00    -0.047 A 
ATOM     34  C   LIG    1       21.250 -30.827  10.581  0.00  0.00    +0.003 A 
ATOM     35  C   LIG    1       19.870 -30.614  10.545  0.00  0.00    +0.000 A 
ATOM     36  C   LIG    1       18.995 -31.698  10.517  0.00  0.00    +0.000 A 
ATOM     37  C   LIG    1       19.500 -32.997  10.523  0.00  0.00    +0.000 A 
ATOM     38  C   LIG    1       20.879 -33.212  10.565  0.00  0.00    +0.003 A 
ENDBRANCH  32  33
ENDBRANCH  31  32
ENDBRANCH  30  31
ENDBRANCH  29  30
ENDBRANCH  28  29
ENDBRANCH  25  28
ENDBRANCH   2  22
TORSDOF 9
ENDMDL
MODEL 7
REMARK VINA RESULT:      -8.4      3.935      4.818
REMARK  Name = *****
REMARK                            x       y       z     vdW  Elec       q    Type
REMARK                         _______ _______ _______ _____ _____    ______ ____
ROOT
ATOM      1  O   LIG    1       25.815 -24.059   7.448  0.00  0.00    -0.270 OA
ATOM      2  C   LIG    1       24.982 -24.019   6.555  0.00  0.00    +0.248 C 
ATOM      3  N   LIG    1       24.425 -25.104   5.884  0.00  0.00    -0.281 N 
ATOM      4  H   LIG    1       23.927 -24.909   5.027  0.00  0.00    +0.155 HD
ENDROOT
BRANCH   3   5
ATOM      5  C   LIG    1       24.704 -26.458   6.154  0.00  0.00    +0.037 A 
ATOM      6  C   LIG    1       25.399 -26.756   7.336  0.00  0.00    +0.070 A 
ATOM      7  C   LIG    1       25.619 -28.089   7.692  0.00  0.00    +0.141 A 
ATOM      8  C   LIG    1       25.174 -29.114   6.861  0.00  0.00    +0.064 A 
ATOM      9  C   LIG    1       25.366 -30.508   7.280  0.00  0.00    +0.193 C 
ATOM     10  C   LIG    1       26.031 -30.715   8.574  0.00  0.00    +0.101 C 
ATOM     11  C   LIG    1       26.435 -29.647   9.272  0.00  0.00    +0.177 C 
ATOM     12  O   LIG    1       24.993 -31.454   6.601  0.00  0.00    -0.287 OA
ATOM     13  C   LIG    1       24.540 -28.822   5.656  0.00  0.00    +0.017 A 
ATOM     14  O   LIG    1       26.269 -28.329   8.879  0.00  0.00    -0.451 OA
ATOM     15  C   LIG    1       24.312 -27.493   5.306  0.00  0.00    +0.024 A 
BRANCH  11  16
ATOM     16  C   LIG    1       27.083 -29.831  10.513  0.00  0.00    +0.215 A 
ATOM     17  N   LIG    1       26.352 -30.149  11.624  0.00  0.00    -0.236 N 
ATOM     18  H   LIG    1       25.354 -30.282  11.724  0.00  0.00    +0.192 HD
ATOM     19  N   LIG    1       27.149 -30.251  12.694  0.00  0.00    -0.046 NA
ATOM     20  N   LIG    1       28.368 -30.001  12.237  0.00  0.00    -0.023 NA
ATOM     21  N   LIG    1       28.342 -29.725  10.890  0.00  0.00    -0.105 NA
ENDBRANCH  11  16
ENDBRANCH   3   5
BRANCH   2  22
ATOM     22  C   LIG    1       24.546 -22.688   6.036  0.00  0.00    +0.037 A 
ATOM     23  C   LIG    1       23.174 -22.398   6.027  0.00  0.00    +0.016 A 
ATOM     24  C   LIG    1       22.730 -21.146   5.584  0.00  0.00    +0.046 A 
ATOM     25  C   LIG    1       23.648 -20.179   5.173  0.00  0.00    +0.120 A 
ATOM     26  C   LIG    1       25.012 -20.488   5.168  0.00  0.00    +0.046 A 
ATOM     27  C   LIG    1       25.459 -21.746   5.577  0.00  0.00    +0.016 A 
BRANCH  25  28
ATOM     28  O   LIG    1       23.345 -18.897   4.796  0.00  0.00    -0.492 OA
BRANCH  28  29
ATOM     29  C   LIG    1       21.999 -18.660   4.373  0.00  0.00    +0.229 C 
BRANCH  29  30
ATOM     30  C   LIG    1       21.802 -17.156   4.171  0.00  0.00    +0.041 C 
BRANCH  30  31
ATOM     31  C   LIG    1       22.830 -16.297   4.918  0.00  0.00    +0.008 C 
BRANCH  31  32
ATOM     32  C   LIG    1       23.234 -15.024   4.164  0.00  0.00    +0.035 C 
BRANCH  32  33
ATOM     33  C   LIG    1       24.733 -14.874   4.041  0.00  0.00    -0.047 A 
ATOM     34  C   LIG    1       25.509 -15.898   3.483  0.00  0.00    +0.003 A 
ATOM     35  C   LIG    1       26.897 -15.764   3.384  0.00  0.00    +0.000 A 
ATOM     36  C   LIG    1       27.522 -14.604   3.837  0.00  0.00    +0.000 A 
ATOM     37  C   LIG    1       26.759 -13.575   4.387  0.00  0.00    +0.000 A 
ATOM     38  C   LIG    1       25.373 -13.710   4.492  0.00  0.00    +0.003 A 
ENDBRANCH  32  33
ENDBRANCH  31  32
ENDBRANCH  30  31
ENDBRANCH  29  30
ENDBRANCH  28  29
ENDBRANCH  25  28
ENDBRANCH   2  22
TORSDOF 9
ENDMDL
MODEL 8
REMARK VINA RESULT:      -8.3      2.495      4.657
REMARK  Name = *****
REMARK                            x       y       z     vdW  Elec       q    Type
REMARK                         _______ _______ _______ _____ _____    ______ ____
ROOT
ATOM      1  O   LIG    1       23.269 -25.239   6.475  0.00  0.00    -0.270 OA
ATOM      2  C   LIG    1       24.470 -25.163   6.686  0.00  0.00    +0.248 C 
ATOM      3  N   LIG    1       25.368 -26.223   6.790  0.00  0.00    -0.281 N 
ATOM      4  H   LIG    1       26.275 -26.021   7.187  0.00  0.00    +0.155 HD
ENDROOT
BRANCH   3   5
ATOM      5  C   LIG    1       25.042 -27.583   6.628  0.00  0.00    +0.037 A 
ATOM      6  C   LIG    1       25.353 -28.458   7.681  0.00  0.00    +0.070 A 
ATOM      7  C   LIG    1       24.967 -29.799   7.604  0.00  0.00    +0.141 A 
ATOM      8  C   LIG    1       24.302 -30.267   6.475  0.00  0.00    +0.064 A 
ATOM      9  C   LIG    1       23.856 -31.666   6.438  0.00  0.00    +0.193 C 
ATOM     10  C   LIG    1       24.157 -32.479   7.624  0.00  0.00    +0.101 C 
ATOM     11  C   LIG    1       24.825 -31.919   8.640  0.00  0.00    +0.177 C 
ATOM     12  O   LIG    1       23.261 -32.139   5.479  0.00  0.00    -0.287 OA
ATOM     13  C   LIG    1       24.047 -29.419   5.400  0.00  0.00    +0.017 A 
ATOM     14  O   LIG    1       25.260 -30.604   8.678  0.00  0.00    -0.451 OA
ATOM     15  C   LIG    1       24.423 -28.079   5.481  0.00  0.00    +0.024 A 
BRANCH  11  16
ATOM     16  C   LIG    1       25.128 -32.691   9.783  0.00  0.00    +0.215 A 
ATOM     17  N   LIG    1       24.132 -33.047  10.649  0.00  0.00    -0.236 N 
ATOM     18  H   LIG    1       23.143 -32.837  10.618  0.00  0.00    +0.192 HD
ATOM     19  N   LIG    1       24.634 -33.747  11.673  0.00  0.00    -0.046 NA
ATOM     20  N   LIG    1       25.935 -33.825  11.430  0.00  0.00    -0.023 NA
ATOM     21  N   LIG    1       26.259 -33.162  10.270  0.00  0.00    -0.105 NA
ENDBRANCH  11  16
ENDBRANCH   3   5
BRANCH   2  22
ATOM     22  C   LIG    1       25.073 -23.822   6.949  0.00  0.00    +0.037 A 
ATOM     23  C   LIG    1       24.213 -22.758   7.258  0.00  0.00    +0.016 A 
ATOM     24  C   LIG    1       24.744 -21.496   7.550  0.00  0.00    +0.046 A 
ATOM     25  C   LIG    1       26.126 -21.298   7.555  0.00  0.00    +0.120 A 
ATOM     26  C   LIG    1       26.971 -22.362   7.225  0.00  0.00    +0.046 A 
ATOM     27  C   LIG    1       26.446 -23.615   6.901  0.00  0.00    +0.016 A 
BRANCH  25  28
ATOM     28  O   LIG    1       26.766 -20.137   7.901  0.00  0.00    -0.492 OA
BRANCH  28  29
ATOM     29  C   LIG    1       27.916 -19.790   7.125  0.00  0.00    +0.229 C 
BRANCH  29  30
ATOM     30  C   LIG    1       27.684 -20.224   5.676  0.00  0.00    +0.041 C 
BRANCH  30  31
ATOM     31  C   LIG    1       26.785 -19.267   4.885  0.00  0.00    +0.008 C 
BRANCH  31  32
ATOM     32  C   LIG    1       25.895 -19.968   3.851  0.00  0.00    +0.035 C 
BRANCH  32  33
ATOM     33  C   LIG    1       24.422 -19.769   4.123  0.00  0.00    -0.047 A 
ATOM     34  C   LIG    1       23.624 -20.839   4.547  0.00  0.00    +0.003 A 
ATOM     35  C   LIG    1       22.259 -20.658   4.783  0.00  0.00    +0.000 A 
ATOM     36  C   LIG    1       21.678 -19.404   4.604  0.00  0.00    +0.000 A 
ATOM     37  C   LIG    1       22.464 -18.329   4.190  0.00  0.00    +0.000 A 
ATOM     38  C   LIG    1       23.827 -18.511   3.948  0.00  0.00    +0.003 A 
ENDBRANCH  32  33
ENDBRANCH  31  32
ENDBRANCH  30  31
ENDBRANCH  29  30
ENDBRANCH  28  29
ENDBRANCH  25  28
ENDBRANCH   2  22
TORSDOF 9
ENDMDL
MODEL 9
REMARK VINA RESULT:      -8.2      4.549     12.451
REMARK  Name = *****
REMARK                            x       y       z     vdW  Elec       q    Type
REMARK                         _______ _______ _______ _____ _____    ______ ____
ROOT
ATOM      1  O   LIG    1       26.506 -26.613   5.389  0.00  0.00    -0.270 OA
ATOM      2  C   LIG    1       25.661 -26.647   6.270  0.00  0.00    +0.248 C 
ATOM      3  N   LIG    1       25.024 -25.557   6.859  0.00  0.00    -0.281 N 
ATOM      4  H   LIG    1       24.524 -25.726   7.720  0.00  0.00    +0.155 HD
ENDROOT
BRANCH   3   5
ATOM      5  C   LIG    1       25.222 -24.209   6.500  0.00  0.00    +0.037 A 
ATOM      6  C   LIG    1       26.308 -23.534   7.078  0.00  0.00    +0.070 A 
ATOM      7  C   LIG    1       26.598 -22.225   6.685  0.00  0.00    +0.141 A 
ATOM      8  C   LIG    1       25.795 -21.587   5.744  0.00  0.00    +0.064 A 
ATOM      9  C   LIG    1       26.149 -20.232   5.303  0.00  0.00    +0.193 C 
ATOM     10  C   LIG    1       27.352 -19.643   5.906  0.00  0.00    +0.101 C 
ATOM     11  C   LIG    1       28.030 -20.349   6.820  0.00  0.00    +0.177 C 
ATOM     12  O   LIG    1       25.490 -19.619   4.475  0.00  0.00    -0.287 OA
ATOM     13  C   LIG    1       24.678 -22.230   5.215  0.00  0.00    +0.017 A 
ATOM     14  O   LIG    1       27.696 -21.622   7.250  0.00  0.00    -0.451 OA
ATOM     15  C   LIG    1       24.395 -23.539   5.600  0.00  0.00    +0.024 A 
BRANCH  11  16
ATOM     16  C   LIG    1       29.183 -19.791   7.415  0.00  0.00    +0.215 A 
ATOM     17  N   LIG    1       29.745 -18.662   6.887  0.00  0.00    -0.236 N 
ATOM     18  H   LIG    1       29.463 -18.116   6.083  0.00  0.00    +0.192 HD
ATOM     19  N   LIG    1       30.838 -18.319   7.577  0.00  0.00    -0.046 NA
ATOM     20  N   LIG    1       30.942 -19.233   8.531  0.00  0.00    -0.023 NA
ATOM     21  N   LIG    1       29.932 -20.161   8.434  0.00  0.00    -0.105 NA
ENDBRANCH  11  16
ENDBRANCH   3   5
BRANCH   2  22
ATOM     22  C   LIG    1       25.300 -27.965   6.874  0.00  0.00    +0.037 A 
ATOM     23  C   LIG    1       25.822 -28.281   8.136  0.00  0.00    +0.016 A 
ATOM     24  C   LIG    1       25.475 -29.489   8.752  0.00  0.00    +0.046 A 
ATOM     25  C   LIG    1       24.595 -30.371   8.122  0.00  0.00    +0.120 A 
ATOM     26  C   LIG    1       24.097 -30.053   6.855  0.00  0.00    +0.046 A 
ATOM     27  C   LIG    1       24.466 -28.865   6.222  0.00  0.00    +0.016 A 
BRANCH  25  28
ATOM     28  O   LIG    1       24.118 -31.541   8.654  0.00  0.00    -0.492 OA
BRANCH  28  29
ATOM     29  C   LIG    1       23.543 -31.457   9.961  0.00  0.00    +0.229 C 
BRANCH  29  30
ATOM     30  C   LIG    1       22.066 -31.845   9.877  0.00  0.00    +0.041 C 
BRANCH  30  31
ATOM     31  C   LIG    1       21.128 -30.846  10.564  0.00  0.00    +0.008 C 
BRANCH  31  32
ATOM     32  C   LIG    1       20.835 -31.183  12.031  0.00  0.00    +0.035 C 
BRANCH  32  33
ATOM     33  C   LIG    1       19.376 -31.014  12.386  0.00  0.00    -0.047 A 
ATOM     34  C   LIG    1       18.375 -31.512  11.543  0.00  0.00    +0.003 A 
ATOM     35  C   LIG    1       17.026 -31.342  11.864  0.00  0.00    +0.000 A 
ATOM     36  C   LIG    1       16.663 -30.677  13.033  0.00  0.00    +0.000 A 
ATOM     37  C   LIG    1       17.651 -30.183  13.884  0.00  0.00    +0.000 A 
ATOM     38  C   LIG    1       18.999 -30.347  13.562  0.00  0.00    +0.003 A 
ENDBRANCH  32  33
ENDBRANCH  31  32
ENDBRANCH  30  31
ENDBRANCH  29  30
ENDBRANCH  28  29
ENDBRANCH  25  28
ENDBRANCH   2  22
TORSDOF 9
ENDMDL
