MODEL 1
REMARK VINA RESULT:      10.3      0.000      0.000
REMARK  Name = *****
REMARK                            x       y       z     vdW  Elec       q    Type
REMARK                         _______ _______ _______ _____ _____    ______ ____
ROOT
ATOM      1  C   LIG    1       23.688 -12.488   5.526  0.00  0.00    +0.011 C 
ATOM      2  C   LIG    1       24.158 -13.879   5.119  0.00  0.00    +0.026 C 
ATOM      3  C   LIG    1       25.697 -14.141   5.004  0.00  0.00    +0.133 C 
ATOM      4  C   LIG    1       25.915 -14.661   3.531  0.00  0.00    +0.009 C 
ATOM      5  C   LIG    1       24.549 -15.292   3.164  0.00  0.00    +0.005 C 
ATOM      6  C   LIG    1       24.310 -16.742   3.677  0.00  0.00    +0.034 C 
ATOM      7  C   LIG    1       25.502 -17.696   3.400  0.00  0.00    +0.153 C 
ATOM      8  C   LIG    1       26.838 -17.076   3.868  0.00  0.00    +0.154 C 
ATOM      9  F   LIG    1       25.597 -17.771   2.020  0.00  0.00    -0.238 F 
ATOM     10  C   LIG    1       25.228 -19.176   3.948  0.00  0.00    +0.044 C 
ATOM     11  C   LIG    1       23.712 -19.439   3.963  0.00  0.00    -0.053 C 
ATOM     12  C   LIG    1       23.060 -20.067   4.957  0.00  0.00    +0.051 C 
ATOM     13  C   LIG    1       23.761 -20.496   6.184  0.00  0.00    +0.179 C 
ATOM     14  C   LIG    1       25.167 -20.073   6.332  0.00  0.00    +0.047 C 
ATOM     15  O   LIG    1       23.185 -21.123   7.062  0.00  0.00    -0.288 OA
ATOM     16  C   LIG    1       22.953 -18.800   2.842  0.00  0.00    +0.032 C 
ATOM     17  C   LIG    1       25.873 -20.222   3.005  0.00  0.00    +0.023 C 
ATOM     18  C   LIG    1       25.815 -19.462   5.331  0.00  0.00    -0.009 C 
ATOM     19  C   LIG    1       22.996 -17.285   3.033  0.00  0.00    +0.011 C 
ATOM     20  C   LIG    1       26.192 -13.478   2.557  0.00  0.00    +0.015 C 
ATOM     21  C   LIG    1       27.061 -15.668   3.319  0.00  0.00    +0.044 C 
ATOM     22  C   LIG    1       23.550 -14.295   3.770  0.00  0.00    +0.011 C 
ENDROOT
BRANCH   3  23
ATOM     23  O   LIG    1       25.961 -15.211   5.922  0.00  0.00    -0.380 OA
ATOM     24  H   LIG    1       25.118 -15.671   6.107  0.00  0.00    +0.211 HD
ENDBRANCH   3  23
BRANCH   3  25
ATOM     25  C   LIG    1       26.646 -12.955   5.345  0.00  0.00    +0.180 C 
ATOM     26  O   LIG    1       26.245 -11.792   5.445  0.00  0.00    -0.293 OA
BRANCH  25  27
ATOM     27  C   LIG    1       28.118 -13.258   5.508  0.00  0.00    +0.186 C 
ATOM     28 CL   LIG    1       28.987 -12.582   4.117  0.00  0.00    -0.117 Cl
ENDBRANCH  25  27
ENDBRANCH   3  25
BRANCH   8  29
ATOM     29  O   LIG    1       27.951 -17.872   3.435  0.00  0.00    -0.389 OA
ATOM     30  H   LIG    1       27.948 -18.680   3.984  0.00  0.00    +0.210 HD
ENDBRANCH   8  29
TORSDOF 4
ENDMDL
MODEL 2
REMARK VINA RESULT:      12.7      2.620      6.456
REMARK  Name = *****
REMARK                            x       y       z     vdW  Elec       q    Type
REMARK                         _______ _______ _______ _____ _____    ______ ____
ROOT
ATOM      1  C   LIG    1       25.284 -20.884   3.769  0.00  0.00    +0.011 C 
ATOM      2  C   LIG    1       25.027 -19.400   4.000  0.00  0.00    +0.026 C 
ATOM      3  C   LIG    1       23.825 -18.985   4.912  0.00  0.00    +0.133 C 
ATOM      4  C   LIG    1       22.937 -18.040   4.015  0.00  0.00    +0.009 C 
ATOM      5  C   LIG    1       23.948 -17.448   3.002  0.00  0.00    +0.005 C 
ATOM      6  C   LIG    1       24.786 -16.238   3.507  0.00  0.00    +0.034 C 
ATOM      7  C   LIG    1       23.932 -15.147   4.204  0.00  0.00    +0.153 C 
ATOM      8  C   LIG    1       23.005 -15.760   5.278  0.00  0.00    +0.154 C 
ATOM      9  F   LIG    1       23.084 -14.663   3.223  0.00  0.00    -0.238 F 
ATOM     10  C   LIG    1       24.826 -13.922   4.720  0.00  0.00    +0.044 C 
ATOM     11  C   LIG    1       26.082 -13.805   3.839  0.00  0.00    -0.053 C 
ATOM     12  C   LIG    1       27.317 -13.553   4.308  0.00  0.00    +0.051 C 
ATOM     13  C   LIG    1       27.581 -13.444   5.756  0.00  0.00    +0.179 C 
ATOM     14  C   LIG    1       26.464 -13.771   6.665  0.00  0.00    +0.047 C 
ATOM     15  O   LIG    1       28.690 -13.154   6.183  0.00  0.00    -0.288 OA
ATOM     16  C   LIG    1       25.873 -14.149   2.397  0.00  0.00    +0.032 C 
ATOM     17  C   LIG    1       24.039 -12.594   4.586  0.00  0.00    +0.023 C 
ATOM     18  C   LIG    1       25.233 -14.004   6.191  0.00  0.00    -0.009 C 
ATOM     19  C   LIG    1       25.575 -15.644   2.298  0.00  0.00    +0.011 C 
ATOM     20  C   LIG    1       21.869 -18.858   3.229  0.00  0.00    +0.015 C 
ATOM     21  C   LIG    1       22.169 -16.921   4.744  0.00  0.00    +0.044 C 
ATOM     22  C   LIG    1       24.830 -18.660   2.667  0.00  0.00    +0.011 C 
ENDROOT
BRANCH   3  23
ATOM     23  O   LIG    1       24.410 -18.213   5.970  0.00  0.00    -0.380 OA
ATOM     24  H   LIG    1       24.551 -18.802   6.737  0.00  0.00    +0.211 HD
ENDBRANCH   3  23
BRANCH   3  25
ATOM     25  C   LIG    1       22.988 -20.135   5.548  0.00  0.00    +0.180 C 
ATOM     26  O   LIG    1       22.080 -20.709   4.940  0.00  0.00    -0.293 OA
BRANCH  25  27
ATOM     27  C   LIG    1       23.286 -20.510   6.982  0.00  0.00    +0.186 C 
ATOM     28 CL   LIG    1       24.928 -21.175   7.058  0.00  0.00    -0.117 Cl
ENDBRANCH  25  27
ENDBRANCH   3  25
BRANCH   8  29
ATOM     29  O   LIG    1       22.085 -14.781   5.780  0.00  0.00    -0.389 OA
ATOM     30  H   LIG    1       22.468 -14.434   6.608  0.00  0.00    +0.210 HD
ENDBRANCH   8  29
TORSDOF 4
ENDMDL
