MODEL 1
REMARK VINA RESULT:      -6.8      0.000      0.000
REMARK  Name = *****
REMARK                            x       y       z     vdW  Elec       q    Type
REMARK                         _______ _______ _______ _____ _____    ______ ____
ROOT
ATOM      1  C   LIG    1       23.499 -30.465  11.577  0.00  0.00    -0.008 A 
ATOM      2  C   LIG    1       23.471 -29.177  12.147  0.00  0.00    -0.004 A 
ATOM      3  C   LIG    1       24.526 -28.219  12.535  0.00  0.00    -0.009 A 
ATOM      4  C   LIG    1       23.950 -27.122  13.238  0.00  0.00    -0.008 A 
ATOM      5  C   LIG    1       22.497 -27.377  13.286  0.00  0.00    -0.009 C 
ATOM      6  C   LIG    1       21.668 -26.656  14.081  0.00  0.00    +0.017 C 
ATOM      7  C   LIG    1       24.713 -26.077  13.743  0.00  0.00    +0.029 A 
ATOM      8  C   LIG    1       26.084 -26.104  13.528  0.00  0.00    +0.042 A 
ATOM      9 CL   LIG    1       27.072 -24.843  14.161  0.00  0.00    -0.084 Cl
ATOM     10  C   LIG    1       26.674 -27.145  12.794  0.00  0.00    +0.020 A 
ATOM     11  C   LIG    1       25.894 -28.194  12.283  0.00  0.00    +0.010 A 
ATOM     12  C   LIG    1       22.209 -28.594  12.503  0.00  0.00    -0.008 A 
ATOM     13  C   LIG    1       21.001 -29.166  12.138  0.00  0.00    +0.029 A 
ATOM     14  C   LIG    1       21.031 -30.400  11.523  0.00  0.00    +0.042 A 
ATOM     15 CL   LIG    1       19.548 -31.177  11.111  0.00  0.00    -0.084 Cl
ATOM     16  C   LIG    1       22.246 -31.052  11.268  0.00  0.00    +0.027 A 
ENDROOT
BRANCH   6  17
ATOM     17  C   LIG    1       20.265 -26.941  14.392  0.00  0.00    -0.024 A 
ATOM     18  C   LIG    1       19.913 -27.988  15.251  0.00  0.00    +0.009 A 
ATOM     19  C   LIG    1       18.568 -28.270  15.500  0.00  0.00    +0.020 A 
ATOM     20  C   LIG    1       17.572 -27.507  14.886  0.00  0.00    +0.041 A 
ATOM     21 CL   LIG    1       15.915 -27.869  15.176  0.00  0.00    -0.084 Cl
ATOM     22  C   LIG    1       17.914 -26.460  14.035  0.00  0.00    +0.020 A 
ATOM     23  C   LIG    1       19.255 -26.174  13.788  0.00  0.00    +0.009 A 
ENDBRANCH   6  17
BRANCH   1  24
ATOM     24  C   LIG    1       24.768 -31.247  11.282  0.00  0.00    +0.159 C 
BRANCH  24  25
ATOM     25  O   LIG    1       25.404 -31.483  12.547  0.00  0.00    -0.386 OA
ATOM     26  H   LIG    1       24.889 -32.163  13.010  0.00  0.00    +0.210 HD
ENDBRANCH  24  25
BRANCH  24  27
ATOM     27  C   LIG    1       25.824 -30.588  10.312  0.00  0.00    +0.120 C 
BRANCH  27  28
ATOM     28  N   LIG    1       25.639 -30.727   8.854  0.00  0.00    -0.300 NA
BRANCH  28  29
ATOM     29  C   LIG    1       25.203 -32.081   8.441  0.00  0.00    +0.084 C 
BRANCH  29  30
ATOM     30  C   LIG    1       25.129 -32.371   6.932  0.00  0.00    +0.015 C 
BRANCH  30  32
ATOM     31  C   LIG    1       27.591 -32.994   6.882  0.00  0.00    +0.004 C 
ATOM     32  C   LIG    1       26.496 -32.129   6.275  0.00  0.00    -0.002 C 
ENDBRANCH  30  32
ENDBRANCH  29  30
ENDBRANCH  28  29
BRANCH  28  33
ATOM     33  C   LIG    1       24.739 -29.705   8.276  0.00  0.00    +0.084 C 
BRANCH  33  34
ATOM     34  C   LIG    1       25.427 -28.442   7.721  0.00  0.00    +0.015 C 
BRANCH  34  35
ATOM     35  C   LIG    1       25.031 -28.176   6.269  0.00  0.00    -0.002 C 
ATOM     36  C   LIG    1       24.377 -26.810   6.120  0.00  0.00    +0.004 C 
ENDBRANCH  34  35
ENDBRANCH  33  34
ENDBRANCH  28  33
ENDBRANCH  27  28
ENDBRANCH  24  27
ENDBRANCH   1  24
TORSDOF 11
ENDMDL
MODEL 2
REMARK VINA RESULT:      -6.7      0.626      2.247
REMARK  Name = *****
REMARK                            x       y       z     vdW  Elec       q    Type
REMARK                         _______ _______ _______ _____ _____    ______ ____
ROOT
ATOM      1  C   LIG    1       23.553 -30.397  11.956  0.00  0.00    -0.008 A 
ATOM      2  C   LIG    1       23.487 -29.071  12.426  0.00  0.00    -0.004 A 
ATOM      3  C   LIG    1       24.514 -28.072  12.787  0.00  0.00    -0.009 A 
ATOM      4  C   LIG    1       23.895 -26.935  13.382  0.00  0.00    -0.008 A 
ATOM      5  C   LIG    1       22.445 -27.205  13.387  0.00  0.00    -0.009 C 
ATOM      6  C   LIG    1       21.574 -26.440  14.090  0.00  0.00    +0.017 C 
ATOM      7  C   LIG    1       24.625 -25.845  13.840  0.00  0.00    +0.029 A 
ATOM      8  C   LIG    1       26.004 -25.869  13.687  0.00  0.00    +0.042 A 
ATOM      9 CL   LIG    1       26.950 -24.551  14.266  0.00  0.00    -0.084 Cl
ATOM     10  C   LIG    1       26.637 -26.953  13.057  0.00  0.00    +0.020 A 
ATOM     11  C   LIG    1       25.891 -28.048  12.593  0.00  0.00    +0.010 A 
ATOM     12  C   LIG    1       22.204 -28.481  12.685  0.00  0.00    -0.008 A 
ATOM     13  C   LIG    1       21.020 -29.094  12.311  0.00  0.00    +0.029 A 
ATOM     14  C   LIG    1       21.089 -30.370  11.791  0.00  0.00    +0.042 A 
ATOM     15 CL   LIG    1       19.634 -31.196  11.376  0.00  0.00    -0.084 Cl
ATOM     16  C   LIG    1       22.321 -31.022  11.638  0.00  0.00    +0.027 A 
ENDROOT
BRANCH   6  17
ATOM     17  C   LIG    1       20.162 -26.720  14.360  0.00  0.00    -0.024 A 
ATOM     18  C   LIG    1       19.785 -27.700  15.286  0.00  0.00    +0.009 A 
ATOM     19  C   LIG    1       18.433 -27.981  15.497  0.00  0.00    +0.020 A 
ATOM     20  C   LIG    1       17.456 -27.286  14.780  0.00  0.00    +0.041 A 
ATOM     21 CL   LIG    1       15.793 -27.649  15.026  0.00  0.00    -0.084 Cl
ATOM     22  C   LIG    1       17.824 -26.305  13.863  0.00  0.00    +0.020 A 
ATOM     23  C   LIG    1       19.172 -26.020  13.653  0.00  0.00    +0.009 A 
ENDBRANCH   6  17
BRANCH   1  24
ATOM     24  C   LIG    1       24.842 -31.181  11.774  0.00  0.00    +0.159 C 
BRANCH  24  25
ATOM     25  O   LIG    1       25.420 -31.323  13.080  0.00  0.00    -0.386 OA
ATOM     26  H   LIG    1       26.347 -31.040  13.021  0.00  0.00    +0.210 HD
ENDBRANCH  24  25
BRANCH  24  27
ATOM     27  C   LIG    1       25.936 -30.575  10.812  0.00  0.00    +0.120 C 
BRANCH  27  28
ATOM     28  N   LIG    1       25.734 -30.669   9.352  0.00  0.00    -0.300 NA
BRANCH  28  29
ATOM     29  C   LIG    1       25.509 -29.357   8.702  0.00  0.00    +0.084 C 
BRANCH  29  30
ATOM     30  C   LIG    1       24.430 -29.285   7.609  0.00  0.00    +0.015 C 
BRANCH  30  32
ATOM     31  C   LIG    1       24.524 -28.563   5.176  0.00  0.00    +0.004 C 
ATOM     32  C   LIG    1       24.742 -28.149   6.624  0.00  0.00    -0.002 C 
ENDBRANCH  30  32
ENDBRANCH  29  30
ENDBRANCH  28  29
BRANCH  28  33
ATOM     33  C   LIG    1       26.814 -31.402   8.655  0.00  0.00    +0.084 C 
BRANCH  33  34
ATOM     34  C   LIG    1       26.360 -32.362   7.538  0.00  0.00    +0.015 C 
BRANCH  34  35
ATOM     35  C   LIG    1       27.551 -32.995   6.820  0.00  0.00    -0.002 C 
ATOM     36  C   LIG    1       27.204 -33.340   5.379  0.00  0.00    +0.004 C 
ENDBRANCH  34  35
ENDBRANCH  33  34
ENDBRANCH  28  33
ENDBRANCH  27  28
ENDBRANCH  24  27
ENDBRANCH   1  24
TORSDOF 11
ENDMDL
MODEL 3
REMARK VINA RESULT:      -6.7      2.480      5.837
REMARK  Name = *****
REMARK                            x       y       z     vdW  Elec       q    Type
REMARK                         _______ _______ _______ _____ _____    ______ ____
ROOT
ATOM      1  C   LIG    1       24.829 -30.851   9.577  0.00  0.00    -0.008 A 
ATOM      2  C   LIG    1       23.845 -30.578  10.549  0.00  0.00    -0.004 A 
ATOM      3  C   LIG    1       22.415 -30.926  10.666  0.00  0.00    -0.009 A 
ATOM      4  C   LIG    1       21.839 -30.238  11.773  0.00  0.00    -0.008 A 
ATOM      5  C   LIG    1       22.926 -29.449  12.384  0.00  0.00    -0.009 C 
ATOM      6  C   LIG    1       22.684 -28.494  13.316  0.00  0.00    +0.017 C 
ATOM      7  C   LIG    1       20.496 -30.360  12.110  0.00  0.00    +0.029 A 
ATOM      8  C   LIG    1       19.703 -31.202  11.342  0.00  0.00    +0.042 A 
ATOM      9 CL   LIG    1       18.027 -31.362  11.706  0.00  0.00    -0.084 Cl
ATOM     10  C   LIG    1       20.254 -31.933  10.278  0.00  0.00    +0.020 A 
ATOM     11  C   LIG    1       21.613 -31.808   9.949  0.00  0.00    +0.010 A 
ATOM     12  C   LIG    1       24.185 -29.765  11.682  0.00  0.00    -0.008 A 
ATOM     13  C   LIG    1       25.490 -29.393  11.960  0.00  0.00    +0.029 A 
ATOM     14  C   LIG    1       26.464 -29.715  11.038  0.00  0.00    +0.042 A 
ATOM     15 CL   LIG    1       28.090 -29.212  11.313  0.00  0.00    -0.084 Cl
ATOM     16  C   LIG    1       26.144 -30.406   9.860  0.00  0.00    +0.027 A 
ENDROOT
BRANCH   6  17
ATOM     17  C   LIG    1       23.626 -27.499  13.834  0.00  0.00    -0.024 A 
ATOM     18  C   LIG    1       24.524 -27.819  14.859  0.00  0.00    +0.009 A 
ATOM     19  C   LIG    1       25.383 -26.843  15.368  0.00  0.00    +0.020 A 
ATOM     20  C   LIG    1       25.344 -25.544  14.856  0.00  0.00    +0.041 A 
ATOM     21 CL   LIG    1       26.387 -24.337  15.499  0.00  0.00    -0.084 Cl
ATOM     22  C   LIG    1       24.458 -25.220  13.832  0.00  0.00    +0.020 A 
ATOM     23  C   LIG    1       23.601 -26.193  13.320  0.00  0.00    +0.009 A 
ENDBRANCH   6  17
BRANCH   1  24
ATOM     24  C   LIG    1       24.566 -31.580   8.270  0.00  0.00    +0.159 C 
BRANCH  24  25
ATOM     25  O   LIG    1       24.563 -32.982   8.579  0.00  0.00    -0.386 OA
ATOM     26  H   LIG    1       25.154 -33.114   9.338  0.00  0.00    +0.210 HD
ENDBRANCH  24  25
BRANCH  24  27
ATOM     27  C   LIG    1       25.575 -31.337   7.082  0.00  0.00    +0.120 C 
BRANCH  27  28
ATOM     28  N   LIG    1       25.042 -30.949   5.760  0.00  0.00    -0.300 NA
BRANCH  28  29
ATOM     29  C   LIG    1       25.238 -29.516   5.443  0.00  0.00    +0.084 C 
BRANCH  29  30
ATOM     30  C   LIG    1       24.312 -28.504   6.139  0.00  0.00    +0.015 C 
BRANCH  30  32
ATOM     31  C   LIG    1       24.189 -25.968   6.112  0.00  0.00    +0.004 C 
ATOM     32  C   LIG    1       25.057 -27.185   6.393  0.00  0.00    -0.002 C 
ENDBRANCH  30  32
ENDBRANCH  29  30
ENDBRANCH  28  29
BRANCH  28  33
ATOM     33  C   LIG    1       25.549 -31.789   4.653  0.00  0.00    +0.084 C 
BRANCH  33  34
ATOM     34  C   LIG    1       26.659 -32.791   5.025  0.00  0.00    +0.015 C 
BRANCH  34  35
ATOM     35  C   LIG    1       27.217 -33.500   3.791  0.00  0.00    -0.002 C 
ATOM     36  C   LIG    1       26.624 -32.925   2.512  0.00  0.00    +0.004 C 
ENDBRANCH  34  35
ENDBRANCH  33  34
ENDBRANCH  28  33
ENDBRANCH  27  28
ENDBRANCH  24  27
ENDBRANCH   1  24
TORSDOF 11
ENDMDL
MODEL 4
REMARK VINA RESULT:      -6.6      2.361      5.348
REMARK  Name = *****
REMARK                            x       y       z     vdW  Elec       q    Type
REMARK                         _______ _______ _______ _____ _____    ______ ____
ROOT
ATOM      1  C   LIG    1       24.610 -30.890   9.835  0.00  0.00    -0.008 A 
ATOM      2  C   LIG    1       23.641 -30.573  10.807  0.00  0.00    -0.004 A 
ATOM      3  C   LIG    1       22.209 -30.905  10.955  0.00  0.00    -0.009 A 
ATOM      4  C   LIG    1       21.651 -30.172  12.041  0.00  0.00    -0.008 A 
ATOM      5  C   LIG    1       22.751 -29.369  12.609  0.00  0.00    -0.009 C 
ATOM      6  C   LIG    1       22.527 -28.377  13.507  0.00  0.00    +0.017 C 
ATOM      7  C   LIG    1       20.312 -30.271  12.398  0.00  0.00    +0.029 A 
ATOM      8  C   LIG    1       19.504 -31.136  11.672  0.00  0.00    +0.042 A 
ATOM      9 CL   LIG    1       17.832 -31.269  12.062  0.00  0.00    -0.084 Cl
ATOM     10  C   LIG    1       20.037 -31.910  10.630  0.00  0.00    +0.020 A 
ATOM     11  C   LIG    1       21.393 -31.807  10.280  0.00  0.00    +0.010 A 
ATOM     12  C   LIG    1       23.999 -29.720  11.904  0.00  0.00    -0.008 A 
ATOM     13  C   LIG    1       25.310 -29.347  12.153  0.00  0.00    +0.029 A 
ATOM     14  C   LIG    1       26.271 -29.712  11.233  0.00  0.00    +0.042 A 
ATOM     15 CL   LIG    1       27.903 -29.211  11.469  0.00  0.00    -0.084 Cl
ATOM     16  C   LIG    1       25.932 -30.444  10.086  0.00  0.00    +0.027 A 
ENDROOT
BRANCH   6  17
ATOM     17  C   LIG    1       23.482 -27.370  13.975  0.00  0.00    -0.024 A 
ATOM     18  C   LIG    1       23.603 -26.134  13.330  0.00  0.00    +0.009 A 
ATOM     19  C   LIG    1       24.550 -25.205  13.766  0.00  0.00    +0.020 A 
ATOM     20  C   LIG    1       25.380 -25.511  14.847  0.00  0.00    +0.041 A 
ATOM     21 CL   LIG    1       26.561 -24.375  15.370  0.00  0.00    -0.084 Cl
ATOM     22  C   LIG    1       25.261 -26.736  15.498  0.00  0.00    +0.020 A 
ATOM     23  C   LIG    1       24.314 -27.664  15.067  0.00  0.00    +0.009 A 
ENDBRANCH   6  17
BRANCH   1  24
ATOM     24  C   LIG    1       24.326 -31.666   8.559  0.00  0.00    +0.159 C 
BRANCH  24  25
ATOM     25  O   LIG    1       25.471 -32.499   8.327  0.00  0.00    -0.386 OA
ATOM     26  H   LIG    1       25.869 -32.696   9.192  0.00  0.00    +0.210 HD
ENDBRANCH  24  25
BRANCH  24  27
ATOM     27  C   LIG    1       24.044 -30.837   7.247  0.00  0.00    +0.120 C 
BRANCH  27  28
ATOM     28  N   LIG    1       25.123 -29.999   6.686  0.00  0.00    -0.300 NA
BRANCH  28  29
ATOM     29  C   LIG    1       25.423 -30.297   5.266  0.00  0.00    +0.084 C 
BRANCH  29  30
ATOM     30  C   LIG    1       26.179 -31.602   4.962  0.00  0.00    +0.015 C 
BRANCH  30  32
ATOM     31  C   LIG    1       26.433 -32.894   2.791  0.00  0.00    +0.004 C 
ATOM     32  C   LIG    1       25.466 -32.384   3.849  0.00  0.00    -0.002 C 
ENDBRANCH  30  32
ENDBRANCH  29  30
ENDBRANCH  28  29
BRANCH  28  33
ATOM     33  C   LIG    1       24.893 -28.548   6.863  0.00  0.00    +0.084 C 
BRANCH  33  34
ATOM     34  C   LIG    1       24.497 -27.772   5.592  0.00  0.00    +0.015 C 
BRANCH  34  35
ATOM     35  C   LIG    1       24.305 -26.283   5.877  0.00  0.00    -0.002 C 
ATOM     36  C   LIG    1       25.189 -25.431   4.977  0.00  0.00    +0.004 C 
ENDBRANCH  34  35
ENDBRANCH  33  34
ENDBRANCH  28  33
ENDBRANCH  27  28
ENDBRANCH  24  27
ENDBRANCH   1  24
TORSDOF 11
ENDMDL
MODEL 5
REMARK VINA RESULT:      -6.2      1.778      2.490
REMARK  Name = *****
REMARK                            x       y       z     vdW  Elec       q    Type
REMARK                         _______ _______ _______ _____ _____    ______ ____
ROOT
ATOM      1  C   LIG    1       23.931 -29.755  11.570  0.00  0.00    -0.008 A 
ATOM      2  C   LIG    1       23.685 -28.574  12.300  0.00  0.00    -0.004 A 
ATOM      3  C   LIG    1       24.566 -27.539  12.876  0.00  0.00    -0.009 A 
ATOM      4  C   LIG    1       23.800 -26.643  13.677  0.00  0.00    -0.008 A 
ATOM      5  C   LIG    1       22.402 -27.106  13.597  0.00  0.00    -0.009 C 
ATOM      6  C   LIG    1       21.438 -26.627  14.423  0.00  0.00    +0.017 C 
ATOM      7  C   LIG    1       24.375 -25.579  14.362  0.00  0.00    +0.029 A 
ATOM      8  C   LIG    1       25.743 -25.382  14.235  0.00  0.00    +0.042 A 
ATOM      9 CL   LIG    1       26.501 -24.092  15.089  0.00  0.00    -0.084 Cl
ATOM     10  C   LIG    1       26.514 -26.216  13.412  0.00  0.00    +0.020 A 
ATOM     11  C   LIG    1       25.925 -27.285  12.720  0.00  0.00    +0.010 A 
ATOM     12  C   LIG    1       22.335 -28.232  12.646  0.00  0.00    -0.008 A 
ATOM     13  C   LIG    1       21.244 -28.914  12.132  0.00  0.00    +0.029 A 
ATOM     14  C   LIG    1       21.486 -30.035  11.365  0.00  0.00    +0.042 A 
ATOM     15 CL   LIG    1       20.157 -30.951  10.761  0.00  0.00    -0.084 Cl
ATOM     16  C   LIG    1       22.796 -30.465  11.107  0.00  0.00    +0.027 A 
ENDROOT
BRANCH   6  17
ATOM     17  C   LIG    1       20.081 -27.149  14.602  0.00  0.00    -0.024 A 
ATOM     18  C   LIG    1       18.967 -26.437  14.143  0.00  0.00    +0.009 A 
ATOM     19  C   LIG    1       17.680 -26.931  14.362  0.00  0.00    +0.020 A 
ATOM     20  C   LIG    1       17.503 -28.136  15.045  0.00  0.00    +0.041 A 
ATOM     21 CL   LIG    1       15.916 -28.733  15.335  0.00  0.00    -0.084 Cl
ATOM     22  C   LIG    1       18.607 -28.854  15.500  0.00  0.00    +0.020 A 
ATOM     23  C   LIG    1       19.893 -28.364  15.279  0.00  0.00    +0.009 A 
ENDBRANCH   6  17
BRANCH   1  24
ATOM     24  C   LIG    1       25.315 -30.299  11.259  0.00  0.00    +0.159 C 
BRANCH  24  25
ATOM     25  O   LIG    1       25.866 -29.453  10.240  0.00  0.00    -0.386 OA
ATOM     26  H   LIG    1       26.092 -30.017   9.482  0.00  0.00    +0.210 HD
ENDBRANCH  24  25
BRANCH  24  27
ATOM     27  C   LIG    1       25.419 -31.796  10.769  0.00  0.00    +0.120 C 
BRANCH  27  28
ATOM     28  N   LIG    1       25.493 -32.069   9.320  0.00  0.00    -0.300 NA
BRANCH  28  29
ATOM     29  C   LIG    1       26.879 -32.137   8.802  0.00  0.00    +0.084 C 
BRANCH  29  30
ATOM     30  C   LIG    1       27.284 -33.403   8.028  0.00  0.00    +0.015 C 
BRANCH  30  32
ATOM     31  C   LIG    1       26.576 -32.299   5.853  0.00  0.00    +0.004 C 
ATOM     32  C   LIG    1       27.680 -33.045   6.588  0.00  0.00    -0.002 C 
ENDBRANCH  30  32
ENDBRANCH  29  30
ENDBRANCH  28  29
BRANCH  28  33
ATOM     33  C   LIG    1       24.737 -33.273   8.910  0.00  0.00    +0.084 C 
BRANCH  33  34
ATOM     34  C   LIG    1       23.490 -33.019   8.042  0.00  0.00    +0.015 C 
BRANCH  34  35
ATOM     35  C   LIG    1       22.274 -33.784   8.562  0.00  0.00    -0.002 C 
ATOM     36  C   LIG    1       22.260 -33.824  10.084  0.00  0.00    +0.004 C 
ENDBRANCH  34  35
ENDBRANCH  33  34
ENDBRANCH  28  33
ENDBRANCH  27  28
ENDBRANCH  24  27
ENDBRANCH   1  24
TORSDOF 11
ENDMDL
MODEL 6
REMARK VINA RESULT:      -6.0      2.655      8.503
REMARK  Name = *****
REMARK                            x       y       z     vdW  Elec       q    Type
REMARK                         _______ _______ _______ _____ _____    ______ ____
ROOT
ATOM      1  C   LIG    1       24.781 -29.577  13.103  0.00  0.00    -0.008 A 
ATOM      2  C   LIG    1       23.965 -30.007  12.038  0.00  0.00    -0.004 A 
ATOM      3  C   LIG    1       22.514 -30.251  11.910  0.00  0.00    -0.009 A 
ATOM      4  C   LIG    1       22.234 -30.854  10.650  0.00  0.00    -0.008 A 
ATOM      5  C   LIG    1       23.528 -30.982   9.954  0.00  0.00    -0.009 C 
ATOM      6  C   LIG    1       23.668 -31.726   8.828  0.00  0.00    +0.017 C 
ATOM      7  C   LIG    1       20.948 -31.216  10.266  0.00  0.00    +0.029 A 
ATOM      8  C   LIG    1       19.906 -30.955  11.145  0.00  0.00    +0.042 A 
ATOM      9 CL   LIG    1       18.300 -31.413  10.722  0.00  0.00    -0.084 Cl
ATOM     10  C   LIG    1       20.144 -30.315  12.371  0.00  0.00    +0.020 A 
ATOM     11  C   LIG    1       21.445 -29.948  12.748  0.00  0.00    +0.010 A 
ATOM     12  C   LIG    1       24.570 -30.345  10.782  0.00  0.00    -0.008 A 
ATOM     13  C   LIG    1       25.904 -30.088  10.511  0.00  0.00    +0.029 A 
ATOM     14  C   LIG    1       26.691 -29.607  11.537  0.00  0.00    +0.042 A 
ATOM     15 CL   LIG    1       28.370 -29.336  11.262  0.00  0.00    -0.084 Cl
ATOM     16  C   LIG    1       26.154 -29.379  12.813  0.00  0.00    +0.027 A 
ENDROOT
BRANCH   6  17
ATOM     17  C   LIG    1       24.916 -32.117   8.170  0.00  0.00    -0.024 A 
ATOM     18  C   LIG    1       25.381 -31.434   7.039  0.00  0.00    +0.009 A 
ATOM     19  C   LIG    1       26.551 -31.850   6.402  0.00  0.00    +0.020 A 
ATOM     20  C   LIG    1       27.258 -32.952   6.890  0.00  0.00    +0.041 A 
ATOM     21 CL   LIG    1       28.687 -33.477   6.090  0.00  0.00    -0.084 Cl
ATOM     22  C   LIG    1       26.805 -33.632   8.017  0.00  0.00    +0.020 A 
ATOM     23  C   LIG    1       25.639 -33.217   8.658  0.00  0.00    +0.009 A 
ENDBRANCH   6  17
BRANCH   1  24
ATOM     24  C   LIG    1       24.285 -29.321  14.517  0.00  0.00    +0.159 C 
BRANCH  24  25
ATOM     25  O   LIG    1       23.591 -30.508  14.926  0.00  0.00    -0.386 OA
ATOM     26  H   LIG    1       22.988 -30.260  15.645  0.00  0.00    +0.210 HD
ENDBRANCH  24  25
BRANCH  24  27
ATOM     27  C   LIG    1       23.330 -28.086  14.743  0.00  0.00    +0.120 C 
BRANCH  27  28
ATOM     28  N   LIG    1       23.513 -26.880  13.912  0.00  0.00    -0.300 NA
BRANCH  28  29
ATOM     29  C   LIG    1       22.251 -26.366  13.331  0.00  0.00    +0.084 C 
BRANCH  29  30
ATOM     30  C   LIG    1       20.948 -26.669  14.090  0.00  0.00    +0.015 C 
BRANCH  30  32
ATOM     31  C   LIG    1       18.484 -26.092  13.872  0.00  0.00    +0.004 C 
ATOM     32  C   LIG    1       19.741 -26.550  13.147  0.00  0.00    -0.002 C 
ENDBRANCH  30  32
ENDBRANCH  29  30
ENDBRANCH  28  29
BRANCH  28  33
ATOM     33  C   LIG    1       24.232 -25.790  14.609  0.00  0.00    +0.084 C 
BRANCH  33  34
ATOM     34  C   LIG    1       25.070 -24.859  13.711  0.00  0.00    +0.015 C 
BRANCH  34  35
ATOM     35  C   LIG    1       26.304 -25.570  13.158  0.00  0.00    -0.002 C 
ATOM     36  C   LIG    1       27.566 -25.127  13.884  0.00  0.00    +0.004 C 
ENDBRANCH  34  35
ENDBRANCH  33  34
ENDBRANCH  28  33
ENDBRANCH  27  28
ENDBRANCH  24  27
ENDBRANCH   1  24
TORSDOF 11
ENDMDL
MODEL 7
REMARK VINA RESULT:      -6.0      3.050      6.088
REMARK  Name = *****
REMARK                            x       y       z     vdW  Elec       q    Type
REMARK                         _______ _______ _______ _____ _____    ______ ____
ROOT
ATOM      1  C   LIG    1       25.712 -30.755  13.206  0.00  0.00    -0.008 A 
ATOM      2  C   LIG    1       24.973 -30.732  12.006  0.00  0.00    -0.004 A 
ATOM      3  C   LIG    1       25.218 -30.134  10.678  0.00  0.00    -0.009 A 
ATOM      4  C   LIG    1       24.053 -30.260   9.868  0.00  0.00    -0.008 A 
ATOM      5  C   LIG    1       23.051 -30.967  10.688  0.00  0.00    -0.009 C 
ATOM      6  C   LIG    1       21.750 -31.051  10.317  0.00  0.00    +0.017 C 
ATOM      7  C   LIG    1       23.990 -29.765   8.571  0.00  0.00    +0.029 A 
ATOM      8  C   LIG    1       25.118 -29.144   8.052  0.00  0.00    +0.042 A 
ATOM      9 CL   LIG    1       25.074 -28.490   6.459  0.00  0.00    -0.084 Cl
ATOM     10  C   LIG    1       26.297 -29.051   8.808  0.00  0.00    +0.020 A 
ATOM     11  C   LIG    1       26.353 -29.559  10.115  0.00  0.00    +0.010 A 
ATOM     12  C   LIG    1       23.680 -31.354  11.966  0.00  0.00    -0.008 A 
ATOM     13  C   LIG    1       23.206 -32.141  13.002  0.00  0.00    +0.029 A 
ATOM     14  C   LIG    1       23.960 -32.214  14.155  0.00  0.00    +0.042 A 
ATOM     15 CL   LIG    1       23.374 -33.128  15.494  0.00  0.00    -0.084 Cl
ATOM     16  C   LIG    1       25.173 -31.520  14.271  0.00  0.00    +0.027 A 
ENDROOT
BRANCH   6  17
ATOM     17  C   LIG    1       20.623 -31.520  11.127  0.00  0.00    -0.024 A 
ATOM     18  C   LIG    1       20.021 -30.688  12.079  0.00  0.00    +0.009 A 
ATOM     19  C   LIG    1       18.977 -31.169  12.870  0.00  0.00    +0.020 A 
ATOM     20  C   LIG    1       18.534 -32.485  12.716  0.00  0.00    +0.041 A 
ATOM     21 CL   LIG    1       17.262 -33.084  13.707  0.00  0.00    -0.084 Cl
ATOM     22  C   LIG    1       19.123 -33.317  11.767  0.00  0.00    +0.020 A 
ATOM     23  C   LIG    1       20.163 -32.838  10.973  0.00  0.00    +0.009 A 
ENDBRANCH   6  17
BRANCH   1  24
ATOM     24  C   LIG    1       27.025 -30.021  13.420  0.00  0.00    +0.159 C 
BRANCH  24  25
ATOM     25  O   LIG    1       27.873 -30.913  14.159  0.00  0.00    -0.386 OA
ATOM     26  H   LIG    1       28.793 -30.674  13.959  0.00  0.00    +0.210 HD
ENDBRANCH  24  25
BRANCH  24  27
ATOM     27  C   LIG    1       26.975 -28.641  14.182  0.00  0.00    +0.120 C 
BRANCH  27  28
ATOM     28  N   LIG    1       26.214 -27.524  13.588  0.00  0.00    -0.300 NA
BRANCH  28  29
ATOM     29  C   LIG    1       24.945 -27.233  14.294  0.00  0.00    +0.084 C 
BRANCH  29  30
ATOM     30  C   LIG    1       23.767 -26.720  13.450  0.00  0.00    +0.015 C 
BRANCH  30  32
ATOM     31  C   LIG    1       21.376 -27.400  12.929  0.00  0.00    +0.004 C 
ATOM     32  C   LIG    1       22.811 -27.873  13.110  0.00  0.00    -0.002 C 
ENDBRANCH  30  32
ENDBRANCH  29  30
ENDBRANCH  28  29
BRANCH  28  33
ATOM     33  C   LIG    1       27.008 -26.285  13.438  0.00  0.00    +0.084 C 
BRANCH  33  34
ATOM     34  C   LIG    1       27.861 -25.884  14.658  0.00  0.00    +0.015 C 
BRANCH  34  35
ATOM     35  C   LIG    1       27.861 -24.371  14.874  0.00  0.00    -0.002 C 
ATOM     36  C   LIG    1       26.451 -23.849  15.105  0.00  0.00    +0.004 C 
ENDBRANCH  34  35
ENDBRANCH  33  34
ENDBRANCH  28  33
ENDBRANCH  27  28
ENDBRANCH  24  27
ENDBRANCH   1  24
TORSDOF 11
ENDMDL
MODEL 8
REMARK VINA RESULT:      -6.0      2.701      8.403
REMARK  Name = *****
REMARK                            x       y       z     vdW  Elec       q    Type
REMARK                         _______ _______ _______ _____ _____    ______ ____
ROOT
ATOM      1  C   LIG    1       24.043 -29.420  13.005  0.00  0.00    -0.008 A 
ATOM      2  C   LIG    1       23.249 -29.985  11.987  0.00  0.00    -0.004 A 
ATOM      3  C   LIG    1       21.835 -30.407  11.923  0.00  0.00    -0.009 A 
ATOM      4  C   LIG    1       21.588 -31.087  10.695  0.00  0.00    -0.008 A 
ATOM      5  C   LIG    1       22.863 -31.083   9.954  0.00  0.00    -0.009 C 
ATOM      6  C   LIG    1       23.054 -31.846   8.849  0.00  0.00    +0.017 C 
ATOM      7  C   LIG    1       20.343 -31.615  10.374  0.00  0.00    +0.029 A 
ATOM      8  C   LIG    1       19.308 -31.450  11.282  0.00  0.00    +0.042 A 
ATOM      9 CL   LIG    1       17.756 -32.114  10.937  0.00  0.00    -0.084 Cl
ATOM     10  C   LIG    1       19.508 -30.740  12.477  0.00  0.00    +0.020 A 
ATOM     11  C   LIG    1       20.767 -30.205  12.791  0.00  0.00    +0.010 A 
ATOM     12  C   LIG    1       23.848 -30.294  10.720  0.00  0.00    -0.008 A 
ATOM     13  C   LIG    1       25.130 -29.888  10.390  0.00  0.00    +0.029 A 
ATOM     14  C   LIG    1       25.887 -29.277  11.369  0.00  0.00    +0.042 A 
ATOM     15 CL   LIG    1       27.510 -28.816  11.020  0.00  0.00    -0.084 Cl
ATOM     16  C   LIG    1       25.370 -29.068  12.656  0.00  0.00    +0.027 A 
ENDROOT
BRANCH   6  17
ATOM     17  C   LIG    1       24.318 -32.107   8.156  0.00  0.00    -0.024 A 
ATOM     18  C   LIG    1       24.681 -31.379   7.017  0.00  0.00    +0.009 A 
ATOM     19  C   LIG    1       25.870 -31.673   6.347  0.00  0.00    +0.020 A 
ATOM     20  C   LIG    1       26.697 -32.699   6.811  0.00  0.00    +0.041 A 
ATOM     21 CL   LIG    1       28.150 -33.075   5.972  0.00  0.00    -0.084 Cl
ATOM     22  C   LIG    1       26.346 -33.423   7.948  0.00  0.00    +0.020 A 
ATOM     23  C   LIG    1       25.161 -33.128   8.621  0.00  0.00    +0.009 A 
ENDBRANCH   6  17
BRANCH   1  24
ATOM     24  C   LIG    1       23.568 -29.173  14.428  0.00  0.00    +0.159 C 
BRANCH  24  25
ATOM     25  O   LIG    1       23.380 -30.465  15.024  0.00  0.00    -0.386 OA
ATOM     26  H   LIG    1       22.596 -30.412  15.595  0.00  0.00    +0.210 HD
ENDBRANCH  24  25
BRANCH  24  27
ATOM     27  C   LIG    1       22.241 -28.341  14.621  0.00  0.00    +0.120 C 
BRANCH  27  28
ATOM     28  N   LIG    1       22.304 -26.868  14.539  0.00  0.00    -0.300 NA
BRANCH  28  29
ATOM     29  C   LIG    1       23.644 -26.316  14.843  0.00  0.00    +0.084 C 
BRANCH  29  30
ATOM     30  C   LIG    1       24.378 -25.576  13.713  0.00  0.00    +0.015 C 
BRANCH  30  32
ATOM     31  C   LIG    1       26.790 -25.806  12.953  0.00  0.00    +0.004 C 
ATOM     32  C   LIG    1       25.856 -25.377  14.076  0.00  0.00    -0.002 C 
ENDBRANCH  30  32
ENDBRANCH  29  30
ENDBRANCH  28  29
BRANCH  28  33
ATOM     33  C   LIG    1       21.814 -26.331  13.250  0.00  0.00    +0.084 C 
BRANCH  33  34
ATOM     34  C   LIG    1       20.364 -26.700  12.877  0.00  0.00    +0.015 C 
BRANCH  34  35
ATOM     35  C   LIG    1       19.384 -26.327  13.988  0.00  0.00    -0.002 C 
ATOM     36  C   LIG    1       18.512 -27.513  14.374  0.00  0.00    +0.004 C 
ENDBRANCH  34  35
ENDBRANCH  33  34
ENDBRANCH  28  33
ENDBRANCH  27  28
ENDBRANCH  24  27
ENDBRANCH   1  24
TORSDOF 11
ENDMDL
MODEL 9
REMARK VINA RESULT:      -5.7      4.644      8.152
REMARK  Name = *****
REMARK                            x       y       z     vdW  Elec       q    Type
REMARK                         _______ _______ _______ _____ _____    ______ ____
ROOT
ATOM      1  C   LIG    1       25.921 -28.224   7.793  0.00  0.00    -0.008 A 
ATOM      2  C   LIG    1       25.702 -29.611   7.672  0.00  0.00    -0.004 A 
ATOM      3  C   LIG    1       25.402 -30.492   6.525  0.00  0.00    -0.009 A 
ATOM      4  C   LIG    1       25.095 -31.803   6.989  0.00  0.00    -0.008 A 
ATOM      5  C   LIG    1       25.218 -31.764   8.459  0.00  0.00    -0.009 C 
ATOM      6  C   LIG    1       24.770 -32.774   9.244  0.00  0.00    +0.017 C 
ATOM      7  C   LIG    1       24.751 -32.837   6.126  0.00  0.00    +0.029 A 
ATOM      8  C   LIG    1       24.730 -32.573   4.764  0.00  0.00    +0.042 A 
ATOM      9 CL   LIG    1       24.283 -33.818   3.661  0.00  0.00    -0.084 Cl
ATOM     10  C   LIG    1       25.079 -31.305   4.274  0.00  0.00    +0.020 A 
ATOM     11  C   LIG    1       25.430 -30.268   5.152  0.00  0.00    +0.010 A 
ATOM     12  C   LIG    1       25.708 -30.429   8.852  0.00  0.00    -0.008 A 
ATOM     13  C   LIG    1       26.107 -29.943  10.086  0.00  0.00    +0.029 A 
ATOM     14  C   LIG    1       26.383 -28.595  10.191  0.00  0.00    +0.042 A 
ATOM     15 CL   LIG    1       26.819 -27.937  11.723  0.00  0.00    -0.084 Cl
ATOM     16  C   LIG    1       26.270 -27.745   9.081  0.00  0.00    +0.027 A 
ENDROOT
BRANCH   6  17
ATOM     17  C   LIG    1       24.626 -32.771  10.702  0.00  0.00    -0.024 A 
ATOM     18  C   LIG    1       25.489 -33.516  11.515  0.00  0.00    +0.009 A 
ATOM     19  C   LIG    1       25.307 -33.533  12.899  0.00  0.00    +0.020 A 
ATOM     20  C   LIG    1       24.261 -32.808  13.474  0.00  0.00    +0.041 A 
ATOM     21 CL   LIG    1       24.025 -32.847  15.177  0.00  0.00    -0.084 Cl
ATOM     22  C   LIG    1       23.403 -32.059  12.672  0.00  0.00    +0.020 A 
ATOM     23  C   LIG    1       23.584 -32.038  11.291  0.00  0.00    +0.009 A 
ENDBRANCH   6  17
BRANCH   1  24
ATOM     24  C   LIG    1       25.806 -27.233   6.648  0.00  0.00    +0.159 C 
BRANCH  24  25
ATOM     25  O   LIG    1       27.147 -26.896   6.265  0.00  0.00    -0.386 OA
ATOM     26  H   LIG    1       27.686 -27.699   6.353  0.00  0.00    +0.210 HD
ENDBRANCH  24  25
BRANCH  24  27
ATOM     27  C   LIG    1       25.017 -25.893   6.917  0.00  0.00    +0.120 C 
BRANCH  27  28
ATOM     28  N   LIG    1       25.519 -24.638   6.324  0.00  0.00    -0.300 NA
BRANCH  28  29
ATOM     29  C   LIG    1       24.456 -23.806   5.715  0.00  0.00    +0.084 C 
BRANCH  29  30
ATOM     30  C   LIG    1       23.126 -23.687   6.478  0.00  0.00    +0.015 C 
BRANCH  30  32
ATOM     31  C   LIG    1       23.074 -21.174   6.112  0.00  0.00    +0.004 C 
ATOM     32  C   LIG    1       23.007 -22.302   7.131  0.00  0.00    -0.002 C 
ENDBRANCH  30  32
ENDBRANCH  29  30
ENDBRANCH  28  29
BRANCH  28  33
ATOM     33  C   LIG    1       26.325 -23.826   7.263  0.00  0.00    +0.084 C 
BRANCH  33  34
ATOM     34  C   LIG    1       26.564 -22.361   6.847  0.00  0.00    +0.015 C 
BRANCH  34  35
ATOM     35  C   LIG    1       27.099 -21.525   8.010  0.00  0.00    -0.002 C 
ATOM     36  C   LIG    1       25.989 -20.706   8.653  0.00  0.00    +0.004 C 
ENDBRANCH  34  35
ENDBRANCH  33  34
ENDBRANCH  28  33
ENDBRANCH  27  28
ENDBRANCH  24  27
ENDBRANCH   1  24
TORSDOF 11
ENDMDL
