MODEL 1
REMARK VINA RESULT:      -5.2      0.000      0.000
REMARK  Name = *****
REMARK                            x       y       z     vdW  Elec       q    Type
REMARK                         _______ _______ _______ _____ _____    ______ ____
ROOT
ATOM      1  C   LIG    1       22.970 -20.450   4.562  0.00  0.00    +0.025 A 
ATOM      2  C   LIG    1       24.306 -20.519   4.159  0.00  0.00    +0.023 A 
ATOM      3  C   LIG    1       24.977 -19.372   3.773  0.00  0.00    +0.015 A 
ATOM      4  C   LIG    1       24.337 -18.133   3.850  0.00  0.00    +0.037 A 
ATOM      5  C   LIG    1       23.001 -18.039   4.232  0.00  0.00    +0.015 A 
ATOM      6  C   LIG    1       22.334 -19.203   4.616  0.00  0.00    +0.023 A 
ENDROOT
BRANCH   4   7
ATOM      7  C   LIG    1       25.164 -16.964   3.530  0.00  0.00    +0.244 C 
ATOM      8  N   LIG    1       24.682 -15.709   3.799  0.00  0.00    -0.301 N 
ATOM      9  H   LIG    1       23.916 -15.656   4.460  0.00  0.00    +0.150 HD
ATOM     10  O   LIG    1       26.267 -17.135   3.035  0.00  0.00    -0.270 OA
BRANCH   8  11
ATOM     11  C   LIG    1       25.598 -14.566   3.800  0.00  0.00    +0.225 C 
BRANCH  11  12
ATOM     12  C   LIG    1       25.908 -13.883   2.462  0.00  0.00    +0.322 C 
ATOM     13  O   LIG    1       25.193 -12.992   2.008  0.00  0.00    -0.249 OA
BRANCH  12  14
ATOM     14  O   LIG    1       27.064 -14.216   1.849  0.00  0.00    -0.479 OA
ATOM     15  H   LIG    1       27.050 -13.963   0.896  0.00  0.00    +0.295 HD
ENDBRANCH  12  14
ENDBRANCH  11  12
ENDBRANCH   8  11
ENDBRANCH   4   7
BRANCH   1  16
ATOM     16  N   LIG    1       22.365 -21.572   5.135  0.00  0.00    -0.358 N 
ATOM     17  H   LIG    1       21.354 -21.505   5.197  0.00  0.00    +0.142 HD
ATOM     18  H   LIG    1       22.789 -21.871   6.006  0.00  0.00    +0.142 HD
ENDBRANCH   1  16
TORSDOF 5
ENDMDL
MODEL 2
REMARK VINA RESULT:      -5.0      2.618      5.967
REMARK  Name = *****
REMARK                            x       y       z     vdW  Elec       q    Type
REMARK                         _______ _______ _______ _____ _____    ______ ____
ROOT
ATOM      1  C   LIG    1       24.518 -12.666   3.000  0.00  0.00    +0.025 A 
ATOM      2  C   LIG    1       25.695 -13.098   2.384  0.00  0.00    +0.023 A 
ATOM      3  C   LIG    1       26.164 -14.382   2.601  0.00  0.00    +0.015 A 
ATOM      4  C   LIG    1       25.423 -15.269   3.386  0.00  0.00    +0.037 A 
ATOM      5  C   LIG    1       24.257 -14.858   4.026  0.00  0.00    +0.015 A 
ATOM      6  C   LIG    1       23.795 -13.560   3.802  0.00  0.00    +0.023 A 
ENDROOT
BRANCH   4   7
ATOM      7  C   LIG    1       25.941 -16.640   3.464  0.00  0.00    +0.244 C 
ATOM      8  N   LIG    1       25.059 -17.682   3.584  0.00  0.00    -0.301 N 
ATOM      9  H   LIG    1       24.099 -17.489   3.324  0.00  0.00    +0.150 HD
ATOM     10  O   LIG    1       27.147 -16.822   3.417  0.00  0.00    -0.270 OA
BRANCH   8  11
ATOM     11  C   LIG    1       25.517 -19.051   3.333  0.00  0.00    +0.225 C 
BRANCH  11  12
ATOM     12  C   LIG    1       25.860 -19.934   4.540  0.00  0.00    +0.322 C 
ATOM     13  O   LIG    1       25.020 -20.648   5.081  0.00  0.00    -0.249 OA
BRANCH  12  14
ATOM     14  O   LIG    1       27.156 -19.987   4.920  0.00  0.00    -0.479 OA
ATOM     15  H   LIG    1       27.324 -20.759   5.510  0.00  0.00    +0.295 HD
ENDBRANCH  12  14
ENDBRANCH  11  12
ENDBRANCH   8  11
ENDBRANCH   4   7
BRANCH   1  16
ATOM     16  N   LIG    1       23.950 -11.447   2.622  0.00  0.00    -0.358 N 
ATOM     17  H   LIG    1       23.235 -11.532   1.906  0.00  0.00    +0.142 HD
ATOM     18  H   LIG    1       24.627 -10.723   2.410  0.00  0.00    +0.142 HD
ENDBRANCH   1  16
TORSDOF 5
ENDMDL
MODEL 3
REMARK VINA RESULT:      -4.9      1.253      1.353
REMARK  Name = *****
REMARK                            x       y       z     vdW  Elec       q    Type
REMARK                         _______ _______ _______ _____ _____    ______ ____
ROOT
ATOM      1  C   LIG    1       22.892 -20.491   4.624  0.00  0.00    +0.025 A 
ATOM      2  C   LIG    1       24.218 -20.642   4.210  0.00  0.00    +0.023 A 
ATOM      3  C   LIG    1       24.943 -19.544   3.781  0.00  0.00    +0.015 A 
ATOM      4  C   LIG    1       24.370 -18.271   3.826  0.00  0.00    +0.037 A 
ATOM      5  C   LIG    1       23.045 -18.095   4.217  0.00  0.00    +0.015 A 
ATOM      6  C   LIG    1       22.322 -19.210   4.644  0.00  0.00    +0.023 A 
ENDROOT
BRANCH   4   7
ATOM      7  C   LIG    1       25.253 -17.157   3.461  0.00  0.00    +0.244 C 
ATOM      8  N   LIG    1       24.837 -15.872   3.689  0.00  0.00    -0.301 N 
ATOM      9  H   LIG    1       24.081 -15.757   4.353  0.00  0.00    +0.150 HD
ATOM     10  O   LIG    1       26.342 -17.401   2.965  0.00  0.00    -0.270 OA
BRANCH   8  11
ATOM     11  C   LIG    1       25.810 -14.777   3.646  0.00  0.00    +0.225 C 
BRANCH  11  12
ATOM     12  C   LIG    1       25.551 -13.541   4.517  0.00  0.00    +0.322 C 
ATOM     13  O   LIG    1       24.498 -12.910   4.449  0.00  0.00    -0.249 OA
BRANCH  12  14
ATOM     14  O   LIG    1       26.478 -13.233   5.449  0.00  0.00    -0.479 OA
ATOM     15  H   LIG    1       26.960 -14.037   5.754  0.00  0.00    +0.295 HD
ENDBRANCH  12  14
ENDBRANCH  11  12
ENDBRANCH   8  11
ENDBRANCH   4   7
BRANCH   1  16
ATOM     16  N   LIG    1       22.236 -21.560   5.238  0.00  0.00    -0.358 N 
ATOM     17  H   LIG    1       22.840 -22.352   5.436  0.00  0.00    +0.142 HD
ATOM     18  H   LIG    1       21.373 -21.834   4.780  0.00  0.00    +0.142 HD
ENDBRANCH   1  16
TORSDOF 5
ENDMDL
MODEL 4
REMARK VINA RESULT:      -4.6      1.277      1.872
REMARK  Name = *****
REMARK                            x       y       z     vdW  Elec       q    Type
REMARK                         _______ _______ _______ _____ _____    ______ ____
ROOT
ATOM      1  C   LIG    1       22.690 -20.481   4.691  0.00  0.00    +0.025 A 
ATOM      2  C   LIG    1       22.214 -19.170   4.625  0.00  0.00    +0.023 A 
ATOM      3  C   LIG    1       23.067 -18.135   4.280  0.00  0.00    +0.015 A 
ATOM      4  C   LIG    1       24.392 -18.412   3.935  0.00  0.00    +0.037 A 
ATOM      5  C   LIG    1       24.896 -19.708   4.011  0.00  0.00    +0.015 A 
ATOM      6  C   LIG    1       24.027 -20.742   4.362  0.00  0.00    +0.023 A 
ENDROOT
BRANCH   4   7
ATOM      7  C   LIG    1       25.186 -17.268   3.474  0.00  0.00    +0.244 C 
ATOM      8  N   LIG    1       24.730 -15.998   3.713  0.00  0.00    -0.301 N 
ATOM      9  H   LIG    1       24.028 -15.903   4.438  0.00  0.00    +0.150 HD
ATOM     10  O   LIG    1       26.239 -17.472   2.891  0.00  0.00    -0.270 OA
BRANCH   8  11
ATOM     11  C   LIG    1       25.642 -14.860   3.565  0.00  0.00    +0.225 C 
BRANCH  11  12
ATOM     12  C   LIG    1       25.424 -13.634   4.461  0.00  0.00    +0.322 C 
ATOM     13  O   LIG    1       24.361 -13.018   4.469  0.00  0.00    -0.249 OA
BRANCH  12  14
ATOM     14  O   LIG    1       26.408 -13.320   5.332  0.00  0.00    -0.479 OA
ATOM     15  H   LIG    1       27.295 -13.377   4.906  0.00  0.00    +0.295 HD
ENDBRANCH  12  14
ENDBRANCH  11  12
ENDBRANCH   8  11
ENDBRANCH   4   7
BRANCH   1  16
ATOM     16  N   LIG    1       21.786 -21.535   4.843  0.00  0.00    -0.358 N 
ATOM     17  H   LIG    1       21.425 -21.895   3.965  0.00  0.00    +0.142 HD
ATOM     18  H   LIG    1       21.054 -21.357   5.521  0.00  0.00    +0.142 HD
ENDBRANCH   1  16
TORSDOF 5
ENDMDL
MODEL 5
REMARK VINA RESULT:      -4.3      2.760      6.563
REMARK  Name = *****
REMARK                            x       y       z     vdW  Elec       q    Type
REMARK                         _______ _______ _______ _____ _____    ______ ____
ROOT
ATOM      1  C   LIG    1       28.169 -12.700   4.805  0.00  0.00    +0.025 A 
ATOM      2  C   LIG    1       27.023 -13.013   5.541  0.00  0.00    +0.023 A 
ATOM      3  C   LIG    1       26.160 -14.001   5.099  0.00  0.00    +0.015 A 
ATOM      4  C   LIG    1       26.470 -14.732   3.950  0.00  0.00    +0.037 A 
ATOM      5  C   LIG    1       27.596 -14.428   3.188  0.00  0.00    +0.015 A 
ATOM      6  C   LIG    1       28.457 -13.428   3.642  0.00  0.00    +0.023 A 
ENDROOT
BRANCH   4   7
ATOM      7  C   LIG    1       25.556 -15.834   3.625  0.00  0.00    +0.244 C 
ATOM      8  N   LIG    1       26.075 -17.057   3.291  0.00  0.00    -0.301 N 
ATOM      9  H   LIG    1       27.037 -17.225   3.561  0.00  0.00    +0.150 HD
ATOM     10  O   LIG    1       24.352 -15.636   3.664  0.00  0.00    -0.270 OA
BRANCH   8  11
ATOM     11  C   LIG    1       25.206 -18.237   3.289  0.00  0.00    +0.225 C 
BRANCH  11  12
ATOM     12  C   LIG    1       25.601 -19.430   4.168  0.00  0.00    +0.322 C 
ATOM     13  O   LIG    1       24.793 -20.303   4.477  0.00  0.00    -0.249 OA
BRANCH  12  14
ATOM     14  O   LIG    1       26.905 -19.552   4.500  0.00  0.00    -0.479 OA
ATOM     15  H   LIG    1       27.063 -19.276   5.434  0.00  0.00    +0.295 HD
ENDBRANCH  12  14
ENDBRANCH  11  12
ENDBRANCH   8  11
ENDBRANCH   4   7
BRANCH   1  16
ATOM     16  N   LIG    1       29.129 -11.848   5.356  0.00  0.00    -0.358 N 
ATOM     17  H   LIG    1       29.673 -11.342   4.664  0.00  0.00    +0.142 HD
ATOM     18  H   LIG    1       29.710 -12.283   6.064  0.00  0.00    +0.142 HD
ENDBRANCH   1  16
TORSDOF 5
ENDMDL
MODEL 6
REMARK VINA RESULT:      -4.2      1.189      1.230
REMARK  Name = *****
REMARK                            x       y       z     vdW  Elec       q    Type
REMARK                         _______ _______ _______ _____ _____    ______ ____
ROOT
ATOM      1  C   LIG    1       23.395 -20.657   4.484  0.00  0.00    +0.025 A 
ATOM      2  C   LIG    1       24.760 -20.867   4.690  0.00  0.00    +0.023 A 
ATOM      3  C   LIG    1       25.675 -19.885   4.350  0.00  0.00    +0.015 A 
ATOM      4  C   LIG    1       25.227 -18.656   3.861  0.00  0.00    +0.037 A 
ATOM      5  C   LIG    1       23.872 -18.428   3.629  0.00  0.00    +0.015 A 
ATOM      6  C   LIG    1       22.960 -19.426   3.973  0.00  0.00    +0.023 A 
ENDROOT
BRANCH   4   7
ATOM      7  C   LIG    1       26.261 -17.639   3.638  0.00  0.00    +0.244 C 
ATOM      8  N   LIG    1       25.889 -16.386   3.228  0.00  0.00    -0.301 N 
ATOM      9  H   LIG    1       24.919 -16.135   3.377  0.00  0.00    +0.150 HD
ATOM     10  O   LIG    1       27.431 -17.933   3.826  0.00  0.00    -0.270 OA
BRANCH   8  11
ATOM     11  C   LIG    1       26.847 -15.280   3.318  0.00  0.00    +0.225 C 
BRANCH  11  12
ATOM     12  C   LIG    1       26.304 -13.846   3.295  0.00  0.00    +0.322 C 
ATOM     13  O   LIG    1       25.343 -13.506   3.982  0.00  0.00    -0.249 OA
BRANCH  12  14
ATOM     14  O   LIG    1       26.992 -12.933   2.576  0.00  0.00    -0.479 OA
ATOM     15  H   LIG    1       27.716 -12.529   3.109  0.00  0.00    +0.295 HD
ENDBRANCH  12  14
ENDBRANCH  11  12
ENDBRANCH   8  11
ENDBRANCH   4   7
BRANCH   1  16
ATOM     16  N   LIG    1       22.471 -21.564   5.009  0.00  0.00    -0.358 N 
ATOM     17  H   LIG    1       21.935 -21.198   5.790  0.00  0.00    +0.142 HD
ATOM     18  H   LIG    1       22.856 -22.483   5.199  0.00  0.00    +0.142 HD
ENDBRANCH   1  16
TORSDOF 5
ENDMDL
MODEL 7
REMARK VINA RESULT:      -3.9      1.538      1.994
REMARK  Name = *****
REMARK                            x       y       z     vdW  Elec       q    Type
REMARK                         _______ _______ _______ _____ _____    ______ ____
ROOT
ATOM      1  C   LIG    1       23.601 -20.175   4.128  0.00  0.00    +0.025 A 
ATOM      2  C   LIG    1       22.514 -19.461   4.638  0.00  0.00    +0.023 A 
ATOM      3  C   LIG    1       22.558 -18.079   4.704  0.00  0.00    +0.015 A 
ATOM      4  C   LIG    1       23.665 -17.394   4.199  0.00  0.00    +0.037 A 
ATOM      5  C   LIG    1       24.769 -18.082   3.702  0.00  0.00    +0.015 A 
ATOM      6  C   LIG    1       24.714 -19.475   3.643  0.00  0.00    +0.023 A 
ENDROOT
BRANCH   4   7
ATOM      7  C   LIG    1       23.570 -15.929   4.208  0.00  0.00    +0.244 C 
ATOM      8  N   LIG    1       24.670 -15.186   3.864  0.00  0.00    -0.301 N 
ATOM      9  H   LIG    1       25.394 -15.670   3.347  0.00  0.00    +0.150 HD
ATOM     10  O   LIG    1       22.513 -15.405   4.518  0.00  0.00    -0.270 OA
BRANCH   8  11
ATOM     11  C   LIG    1       24.512 -13.764   3.547  0.00  0.00    +0.225 C 
BRANCH  11  12
ATOM     12  C   LIG    1       25.223 -13.215   2.303  0.00  0.00    +0.322 C 
ATOM     13  O   LIG    1       24.923 -12.130   1.812  0.00  0.00    -0.249 OA
BRANCH  12  14
ATOM     14  O   LIG    1       26.275 -13.917   1.829  0.00  0.00    -0.479 OA
ATOM     15  H   LIG    1       26.103 -14.888   1.866  0.00  0.00    +0.295 HD
ENDBRANCH  12  14
ENDBRANCH  11  12
ENDBRANCH   8  11
ENDBRANCH   4   7
BRANCH   1  16
ATOM     16  N   LIG    1       23.471 -21.544   3.882  0.00  0.00    -0.358 N 
ATOM     17  H   LIG    1       23.152 -21.763   2.943  0.00  0.00    +0.142 HD
ATOM     18  H   LIG    1       22.953 -22.045   4.595  0.00  0.00    +0.142 HD
ENDBRANCH   1  16
TORSDOF 5
ENDMDL
MODEL 8
REMARK VINA RESULT:      -3.9      3.027      6.190
REMARK  Name = *****
REMARK                            x       y       z     vdW  Elec       q    Type
REMARK                         _______ _______ _______ _____ _____    ______ ____
ROOT
ATOM      1  C   LIG    1       26.227 -13.741   3.301  0.00  0.00    +0.025 A 
ATOM      2  C   LIG    1       26.330 -15.130   3.191  0.00  0.00    +0.023 A 
ATOM      3  C   LIG    1       25.299 -15.942   3.631  0.00  0.00    +0.015 A 
ATOM      4  C   LIG    1       24.125 -15.369   4.126  0.00  0.00    +0.037 A 
ATOM      5  C   LIG    1       24.004 -13.988   4.262  0.00  0.00    +0.015 A 
ATOM      6  C   LIG    1       25.051 -13.180   3.818  0.00  0.00    +0.023 A 
ENDROOT
BRANCH   4   7
ATOM      7  C   LIG    1       23.046 -16.306   4.459  0.00  0.00    +0.244 C 
ATOM      8  N   LIG    1       23.112 -17.594   3.995  0.00  0.00    -0.301 N 
ATOM      9  H   LIG    1       24.024 -17.916   3.696  0.00  0.00    +0.150 HD
ATOM     10  O   LIG    1       22.115 -15.918   5.147  0.00  0.00    -0.270 OA
BRANCH   8  11
ATOM     11  C   LIG    1       22.240 -18.619   4.576  0.00  0.00    +0.225 C 
BRANCH  11  12
ATOM     12  C   LIG    1       22.850 -19.988   4.905  0.00  0.00    +0.322 C 
ATOM     13  O   LIG    1       23.997 -20.101   5.330  0.00  0.00    -0.249 OA
BRANCH  12  14
ATOM     14  O   LIG    1       22.038 -21.064   4.819  0.00  0.00    -0.479 OA
ATOM     15  H   LIG    1       21.704 -21.332   5.708  0.00  0.00    +0.295 HD
ENDBRANCH  12  14
ENDBRANCH  11  12
ENDBRANCH   8  11
ENDBRANCH   4   7
BRANCH   1  16
ATOM     16  N   LIG    1       27.177 -12.929   2.678  0.00  0.00    -0.358 N 
ATOM     17  H   LIG    1       27.967 -13.440   2.296  0.00  0.00    +0.142 HD
ATOM     18  H   LIG    1       27.463 -12.128   3.231  0.00  0.00    +0.142 HD
ENDBRANCH   1  16
TORSDOF 5
ENDMDL
MODEL 9
REMARK VINA RESULT:      -3.7      1.492      1.578
REMARK  Name = *****
REMARK                            x       y       z     vdW  Elec       q    Type
REMARK                         _______ _______ _______ _____ _____    ______ ____
ROOT
ATOM      1  C   LIG    1       23.056 -20.257   4.384  0.00  0.00    +0.025 A 
ATOM      2  C   LIG    1       24.322 -19.936   3.889  0.00  0.00    +0.023 A 
ATOM      3  C   LIG    1       24.673 -18.613   3.679  0.00  0.00    +0.015 A 
ATOM      4  C   LIG    1       23.783 -17.594   4.026  0.00  0.00    +0.037 A 
ATOM      5  C   LIG    1       22.509 -17.888   4.504  0.00  0.00    +0.015 A 
ATOM      6  C   LIG    1       22.165 -19.225   4.709  0.00  0.00    +0.023 A 
ENDROOT
BRANCH   4   7
ATOM      7  C   LIG    1       24.288 -16.224   3.874  0.00  0.00    +0.244 C 
ATOM      8  N   LIG    1       25.556 -16.028   3.394  0.00  0.00    -0.301 N 
ATOM      9  H   LIG    1       25.973 -16.808   2.899  0.00  0.00    +0.150 HD
ATOM     10  O   LIG    1       23.565 -15.289   4.177  0.00  0.00    -0.270 OA
BRANCH   8  11
ATOM     11  C   LIG    1       25.957 -14.698   2.927  0.00  0.00    +0.225 C 
BRANCH  11  12
ATOM     12  C   LIG    1       27.290 -14.126   3.424  0.00  0.00    +0.322 C 
ATOM     13  O   LIG    1       27.579 -12.940   3.285  0.00  0.00    -0.249 OA
BRANCH  12  14
ATOM     14  O   LIG    1       28.096 -14.952   4.127  0.00  0.00    -0.479 OA
ATOM     15  H   LIG    1       28.166 -15.836   3.695  0.00  0.00    +0.295 HD
ENDBRANCH  12  14
ENDBRANCH  11  12
ENDBRANCH   8  11
ENDBRANCH   4   7
BRANCH   1  16
ATOM     16  N   LIG    1       22.783 -21.569   4.778  0.00  0.00    -0.358 N 
ATOM     17  H   LIG    1       22.189 -21.636   5.599  0.00  0.00    +0.142 HD
ATOM     18  H   LIG    1       23.604 -22.160   4.844  0.00  0.00    +0.142 HD
ENDBRANCH   1  16
TORSDOF 5
ENDMDL
