MODEL 1
REMARK VINA RESULT:      -1.3      0.000      0.000
REMARK  Name = *****
REMARK                            x       y       z     vdW  Elec       q    Type
REMARK                         _______ _______ _______ _____ _____    ______ ____
ROOT
ATOM      1  C   LIG    1       25.875 -14.268   3.973  0.00  0.00    +0.115 C 
ATOM      2  C   LIG    1       24.976 -15.369   3.906  0.00  0.00    +0.075 C 
ATOM      3  C   LIG    1       23.576 -15.127   3.891  0.00  0.00    +0.008 C 
ATOM      4  C   LIG    1       22.950 -16.365   4.052  0.00  0.00    -0.018 C 
ATOM      5  C   LIG    1       21.582 -16.915   4.117  0.00  0.00    +0.038 C 
ATOM      6  C   LIG    1       21.843 -18.397   4.531  0.00  0.00    +0.015 C 
ATOM      7  C   LIG    1       23.367 -18.715   4.243  0.00  0.00    +0.047 C 
ATOM      8  C   LIG    1       23.909 -17.330   4.123  0.00  0.00    +0.027 C 
ATOM      9  C   LIG    1       23.078 -13.820   3.764  0.00  0.00    +0.048 C 
ATOM     10  C   LIG    1       23.971 -12.765   3.711  0.00  0.00    +0.126 C 
ATOM     11  F   LIG    1       23.502 -11.515   3.596  0.00  0.00    -0.205 F 
ATOM     12  N   LIG    1       25.114 -16.764   3.794  0.00  0.00    -0.337 NA
ATOM     13  C   LIG    1       25.332 -12.971   3.839  0.00  0.00    +0.067 C 
ENDROOT
BRANCH   1  15
ATOM     14  C   LIG    1       28.272 -12.799   3.773  0.00  0.00    +0.200 C 
ATOM     15  S   LIG    1       27.608 -14.311   4.420  0.00  0.00    -0.004 S 
ATOM     16  O   LIG    1       27.705 -14.295   5.862  0.00  0.00    -0.170 OA
ATOM     17  O   LIG    1       28.232 -15.383   3.658  0.00  0.00    -0.170 OA
ENDBRANCH   1  15
BRANCH   7  18
ATOM     18  C   LIG    1       23.993 -19.521   5.376  0.00  0.00    +0.130 C 
BRANCH  18  19
ATOM     19  C   LIG    1       23.271 -20.833   5.565  0.00  0.00    +0.305 C 
ATOM     20  O   LIG    1       22.867 -21.254   6.638  0.00  0.00    -0.251 OA
BRANCH  19  21
ATOM     21  O   LIG    1       23.069 -21.499   4.407  0.00  0.00    -0.481 OA
ATOM     22  H   LIG    1       22.520 -21.024   3.754  0.00  0.00    +0.295 HD
ENDBRANCH  19  21
ENDBRANCH  18  19
ENDBRANCH   7  18
BRANCH  12  23
ATOM     23  C   LIG    1       26.199 -17.508   3.146  0.00  0.00    +0.157 C 
BRANCH  23  24
ATOM     24  C   LIG    1       26.999 -18.345   4.127  0.00  0.00    -0.028 C 
ATOM     25  C   LIG    1       28.227 -17.893   4.640  0.00  0.00    +0.007 C 
ATOM     26  C   LIG    1       28.968 -18.662   5.541  0.00  0.00    +0.020 C 
ATOM     27  C   LIG    1       28.490 -19.904   5.939  0.00  0.00    +0.041 C 
ATOM     28 CL   LIG    1       29.393 -20.847   7.060  0.00  0.00    -0.084 Cl
ATOM     29  C   LIG    1       27.286 -20.384   5.433  0.00  0.00    +0.020 C 
ATOM     30  C   LIG    1       26.549 -19.614   4.523  0.00  0.00    +0.007 C 
ENDBRANCH  23  24
ENDBRANCH  12  23
TORSDOF 6
ENDMDL
