MODEL 1
REMARK VINA RESULT:      -7.6      0.000      0.000
REMARK  Name = *****
REMARK                            x       y       z     vdW  Elec       q    Type
REMARK                         _______ _______ _______ _____ _____    ______ ____
ROOT
ATOM      1  C   LIG    1       25.136 -21.810   6.103  0.00  0.00    +0.183 C 
ATOM      2  C   LIG    1       26.302 -21.120   6.890  0.00  0.00    +0.008 C 
ATOM      3  C   LIG    1       25.735 -20.377   8.133  0.00  0.00    +0.015 C 
ATOM      4  C   LIG    1       26.854 -20.051   5.892  0.00  0.00    +0.002 C 
ATOM      5  C   LIG    1       28.367 -20.010   5.584  0.00  0.00    -0.003 C 
ATOM      6  C   LIG    1       29.256 -20.786   6.569  0.00  0.00    -0.000 C 
ATOM      7  C   LIG    1       28.660 -22.191   6.723  0.00  0.00    +0.005 C 
ATOM      8  C   LIG    1       29.539 -20.049   7.914  0.00  0.00    +0.019 C 
ATOM      9  C   LIG    1       29.872 -18.580   7.699  0.00  0.00    -0.063 C 
ATOM     10  C   LIG    1       30.856 -17.937   8.352  0.00  0.00    +0.045 C 
ATOM     11  C   LIG    1       31.631 -18.603   9.422  0.00  0.00    +0.156 C 
ATOM     12  O   LIG    1       32.543 -17.996   9.978  0.00  0.00    -0.293 OA
ATOM     13  C   LIG    1       31.185 -19.974   9.864  0.00  0.00    +0.079 C 
ATOM     14  C   LIG    1       28.994 -17.830   6.733  0.00  0.00    +0.031 C 
ATOM     15  C   LIG    1       30.667 -20.776   8.680  0.00  0.00    +0.016 C 
ATOM     16  C   LIG    1       28.866 -18.568   5.406  0.00  0.00    +0.008 C 
ATOM     17  C   LIG    1       26.043 -20.243   4.593  0.00  0.00    +0.008 C 
ATOM     18  C   LIG    1       27.302 -22.185   7.408  0.00  0.00    +0.011 C 
ATOM     19  C   LIG    1       24.707 -20.783   5.063  0.00  0.00    +0.045 C 
ENDROOT
BRANCH   1  20
ATOM     20  O   LIG    1       24.105 -22.197   7.009  0.00  0.00    -0.461 OA
BRANCH  20  21
ATOM     21  C   LIG    1       23.573 -23.433   6.867  0.00  0.00    +0.307 C 
ATOM     22  O   LIG    1       22.379 -23.697   6.763  0.00  0.00    -0.251 OA
BRANCH  21  23
ATOM     23  C   LIG    1       24.690 -24.434   6.713  0.00  0.00    +0.120 C 
BRANCH  23  24
ATOM     24  C   LIG    1       24.227 -25.570   5.805  0.00  0.00    +0.011 C 
BRANCH  24  25
ATOM     25  C   LIG    1       25.365 -26.098   4.930  0.00  0.00    +0.000 C 
BRANCH  25  26
ATOM     26  C   LIG    1       25.692 -27.562   5.244  0.00  0.00    +0.000 C 
BRANCH  26  27
ATOM     27  C   LIG    1       24.441 -28.347   5.655  0.00  0.00    -0.000 C 
BRANCH  27  28
ATOM     28  C   LIG    1       24.513 -28.922   7.074  0.00  0.00    -0.000 C 
BRANCH  28  29
ATOM     29  C   LIG    1       25.653 -28.346   7.922  0.00  0.00    -0.000 C 
BRANCH  29  31
ATOM     30  C   LIG    1       26.823 -28.536  10.170  0.00  0.00    +0.004 C 
ATOM     31  C   LIG    1       26.102 -29.277   9.053  0.00  0.00    -0.003 C 
ENDBRANCH  29  31
ENDBRANCH  28  29
ENDBRANCH  27  28
ENDBRANCH  26  27
ENDBRANCH  25  26
ENDBRANCH  24  25
ENDBRANCH  23  24
ENDBRANCH  21  23
ENDBRANCH  20  21
ENDBRANCH   1  20
TORSDOF 10
ENDMDL
MODEL 2
REMARK VINA RESULT:      -7.4      3.105      6.906
REMARK  Name = *****
REMARK                            x       y       z     vdW  Elec       q    Type
REMARK                         _______ _______ _______ _____ _____    ______ ____
ROOT
ATOM      1  C   LIG    1       23.373 -22.422   5.878  0.00  0.00    +0.183 C 
ATOM      2  C   LIG    1       23.791 -20.935   5.618  0.00  0.00    +0.008 C 
ATOM      3  C   LIG    1       24.196 -20.257   6.958  0.00  0.00    +0.015 C 
ATOM      4  C   LIG    1       22.480 -20.257   5.105  0.00  0.00    +0.002 C 
ATOM      5  C   LIG    1       22.507 -19.454   3.786  0.00  0.00    -0.003 C 
ATOM      6  C   LIG    1       23.909 -19.077   3.279  0.00  0.00    -0.000 C 
ATOM      7  C   LIG    1       24.761 -20.353   3.282  0.00  0.00    +0.005 C 
ATOM      8  C   LIG    1       24.561 -17.858   4.001  0.00  0.00    +0.019 C 
ATOM      9  C   LIG    1       23.573 -16.718   4.197  0.00  0.00    -0.063 C 
ATOM     10  C   LIG    1       23.880 -15.425   3.995  0.00  0.00    +0.045 C 
ATOM     11  C   LIG    1       25.259 -15.006   3.661  0.00  0.00    +0.156 C 
ATOM     12  O   LIG    1       25.498 -13.819   3.454  0.00  0.00    -0.293 OA
ATOM     13  C   LIG    1       26.342 -16.055   3.702  0.00  0.00    +0.079 C 
ATOM     14  C   LIG    1       22.204 -17.098   4.696  0.00  0.00    +0.031 C 
ATOM     15  C   LIG    1       25.808 -17.394   3.218  0.00  0.00    +0.016 C 
ATOM     16  C   LIG    1       21.597 -18.218   3.860  0.00  0.00    +0.008 C 
ATOM     17  C   LIG    1       21.434 -21.389   5.026  0.00  0.00    +0.008 C 
ATOM     18  C   LIG    1       25.026 -20.882   4.683  0.00  0.00    +0.011 C 
ATOM     19  C   LIG    1       21.866 -22.372   6.095  0.00  0.00    +0.045 C 
ENDROOT
BRANCH   1  20
ATOM     20  O   LIG    1       24.109 -22.945   6.983  0.00  0.00    -0.461 OA
BRANCH  20  21
ATOM     21  C   LIG    1       24.832 -24.071   6.781  0.00  0.00    +0.307 C 
ATOM     22  O   LIG    1       24.383 -25.172   6.479  0.00  0.00    -0.251 OA
BRANCH  21  23
ATOM     23  C   LIG    1       26.300 -23.732   6.848  0.00  0.00    +0.120 C 
BRANCH  23  24
ATOM     24  C   LIG    1       26.492 -22.495   7.721  0.00  0.00    +0.011 C 
BRANCH  24  25
ATOM     25  C   LIG    1       27.818 -21.793   7.429  0.00  0.00    +0.000 C 
BRANCH  25  26
ATOM     26  C   LIG    1       27.648 -20.274   7.327  0.00  0.00    +0.000 C 
BRANCH  26  27
ATOM     27  C   LIG    1       28.156 -19.736   5.984  0.00  0.00    -0.000 C 
BRANCH  27  28
ATOM     28  C   LIG    1       29.567 -19.139   6.053  0.00  0.00    -0.000 C 
BRANCH  28  29
ATOM     29  C   LIG    1       29.929 -18.554   7.423  0.00  0.00    -0.000 C 
BRANCH  29  31
ATOM     30  C   LIG    1       31.139 -20.433   8.633  0.00  0.00    +0.004 C 
ATOM     31  C   LIG    1       31.264 -19.069   7.971  0.00  0.00    -0.003 C 
ENDBRANCH  29  31
ENDBRANCH  28  29
ENDBRANCH  27  28
ENDBRANCH  26  27
ENDBRANCH  25  26
ENDBRANCH  24  25
ENDBRANCH  23  24
ENDBRANCH  21  23
ENDBRANCH  20  21
ENDBRANCH   1  20
TORSDOF 10
ENDMDL
MODEL 3
REMARK VINA RESULT:      -7.3      4.123     10.000
REMARK  Name = *****
REMARK                            x       y       z     vdW  Elec       q    Type
REMARK                         _______ _______ _______ _____ _____    ______ ____
ROOT
ATOM      1  C   LIG    1       25.419 -31.125   7.887  0.00  0.00    +0.183 C 
ATOM      2  C   LIG    1       25.153 -30.186   9.112  0.00  0.00    +0.008 C 
ATOM      3  C   LIG    1       25.890 -28.831   8.910  0.00  0.00    +0.015 C 
ATOM      4  C   LIG    1       25.820 -30.930  10.313  0.00  0.00    +0.002 C 
ATOM      5  C   LIG    1       25.000 -31.187  11.597  0.00  0.00    -0.003 C 
ATOM      6  C   LIG    1       23.710 -30.360  11.725  0.00  0.00    -0.000 C 
ATOM      7  C   LIG    1       22.931 -30.512  10.412  0.00  0.00    +0.005 C 
ATOM      8  C   LIG    1       23.921 -28.886  12.189  0.00  0.00    +0.019 C 
ATOM      9  C   LIG    1       24.916 -28.787  13.335  0.00  0.00    -0.063 C 
ATOM     10  C   LIG    1       24.741 -27.993  14.406  0.00  0.00    +0.045 C 
ATOM     11  C   LIG    1       23.593 -27.064  14.493  0.00  0.00    +0.156 C 
ATOM     12  O   LIG    1       23.447 -26.374  15.499  0.00  0.00    -0.293 OA
ATOM     13  C   LIG    1       22.708 -26.923  13.281  0.00  0.00    +0.079 C 
ATOM     14  C   LIG    1       26.177 -29.600  13.198  0.00  0.00    +0.031 C 
ATOM     15  C   LIG    1       22.561 -28.259  12.568  0.00  0.00    +0.016 C 
ATOM     16  C   LIG    1       25.869 -31.053  12.857  0.00  0.00    +0.008 C 
ATOM     17  C   LIG    1       26.346 -32.260   9.733  0.00  0.00    +0.008 C 
ATOM     18  C   LIG    1       23.639 -29.873   9.228  0.00  0.00    +0.011 C 
ATOM     19  C   LIG    1       26.643 -31.943   8.282  0.00  0.00    +0.045 C 
ENDROOT
BRANCH   1  20
ATOM     20  O   LIG    1       25.590 -30.343   6.706  0.00  0.00    -0.461 OA
BRANCH  20  21
ATOM     21  C   LIG    1       24.511 -30.161   5.910  0.00  0.00    +0.307 C 
ATOM     22  O   LIG    1       23.454 -30.781   5.975  0.00  0.00    -0.251 OA
BRANCH  21  23
ATOM     23  C   LIG    1       24.756 -28.974   5.014  0.00  0.00    +0.120 C 
BRANCH  23  24
ATOM     24  C   LIG    1       24.426 -27.692   5.774  0.00  0.00    +0.011 C 
BRANCH  24  25
ATOM     25  C   LIG    1       25.542 -26.654   5.651  0.00  0.00    +0.000 C 
BRANCH  25  26
ATOM     26  C   LIG    1       25.429 -25.565   6.722  0.00  0.00    +0.000 C 
BRANCH  26  27
ATOM     27  C   LIG    1       24.172 -24.709   6.529  0.00  0.00    -0.000 C 
BRANCH  27  28
ATOM     28  C   LIG    1       24.407 -23.210   6.752  0.00  0.00    -0.000 C 
BRANCH  28  29
ATOM     29  C   LIG    1       25.828 -22.865   7.212  0.00  0.00    -0.000 C 
BRANCH  29  31
ATOM     30  C   LIG    1       26.702 -20.656   8.115  0.00  0.00    +0.004 C 
ATOM     31  C   LIG    1       25.865 -21.896   8.398  0.00  0.00    -0.003 C 
ENDBRANCH  29  31
ENDBRANCH  28  29
ENDBRANCH  27  28
ENDBRANCH  26  27
ENDBRANCH  25  26
ENDBRANCH  24  25
ENDBRANCH  23  24
ENDBRANCH  21  23
ENDBRANCH  20  21
ENDBRANCH   1  20
TORSDOF 10
ENDMDL
MODEL 4
REMARK VINA RESULT:      -6.9      3.706      5.233
REMARK  Name = *****
REMARK                            x       y       z     vdW  Elec       q    Type
REMARK                         _______ _______ _______ _____ _____    ______ ____
ROOT
ATOM      1  C   LIG    1       23.935 -22.345   6.113  0.00  0.00    +0.183 C 
ATOM      2  C   LIG    1       24.199 -20.835   5.793  0.00  0.00    +0.008 C 
ATOM      3  C   LIG    1       24.567 -20.073   7.098  0.00  0.00    +0.015 C 
ATOM      4  C   LIG    1       22.816 -20.306   5.293  0.00  0.00    +0.002 C 
ATOM      5  C   LIG    1       22.733 -19.551   3.947  0.00  0.00    -0.003 C 
ATOM      6  C   LIG    1       24.078 -19.058   3.390  0.00  0.00    -0.000 C 
ATOM      7  C   LIG    1       25.051 -20.244   3.413  0.00  0.00    +0.005 C 
ATOM      8  C   LIG    1       24.625 -17.757   4.054  0.00  0.00    +0.019 C 
ATOM      9  C   LIG    1       23.535 -16.712   4.239  0.00  0.00    -0.063 C 
ATOM     10  C   LIG    1       23.708 -15.403   3.986  0.00  0.00    +0.045 C 
ATOM     11  C   LIG    1       25.032 -14.864   3.601  0.00  0.00    +0.156 C 
ATOM     12  O   LIG    1       25.148 -13.668   3.348  0.00  0.00    -0.293 OA
ATOM     13  C   LIG    1       26.213 -15.800   3.647  0.00  0.00    +0.079 C 
ATOM     14  C   LIG    1       22.222 -17.205   4.787  0.00  0.00    +0.031 C 
ATOM     15  C   LIG    1       25.802 -17.201   3.222  0.00  0.00    +0.016 C 
ATOM     16  C   LIG    1       21.708 -18.408   4.005  0.00  0.00    +0.008 C 
ATOM     17  C   LIG    1       21.884 -21.536   5.280  0.00  0.00    +0.008 C 
ATOM     18  C   LIG    1       25.401 -20.694   4.824  0.00  0.00    +0.011 C 
ATOM     19  C   LIG    1       22.436 -22.433   6.369  0.00  0.00    +0.045 C 
ENDROOT
BRANCH   1  20
ATOM     20  O   LIG    1       24.745 -22.754   7.214  0.00  0.00    -0.461 OA
BRANCH  20  21
ATOM     21  C   LIG    1       25.773 -23.597   6.961  0.00  0.00    +0.307 C 
ATOM     22  O   LIG    1       26.963 -23.298   6.940  0.00  0.00    -0.251 OA
BRANCH  21  23
ATOM     23  C   LIG    1       25.239 -25.002   6.847  0.00  0.00    +0.120 C 
BRANCH  23  24
ATOM     24  C   LIG    1       26.203 -25.841   6.012  0.00  0.00    +0.011 C 
BRANCH  24  25
ATOM     25  C   LIG    1       25.466 -26.698   4.982  0.00  0.00    +0.000 C 
BRANCH  25  26
ATOM     26  C   LIG    1       24.575 -27.751   5.648  0.00  0.00    +0.000 C 
BRANCH  26  27
ATOM     27  C   LIG    1       25.020 -29.174   5.297  0.00  0.00    -0.000 C 
BRANCH  27  28
ATOM     28  C   LIG    1       25.092 -30.113   6.507  0.00  0.00    -0.000 C 
BRANCH  28  29
ATOM     29  C   LIG    1       24.335 -29.601   7.738  0.00  0.00    -0.000 C 
BRANCH  29  31
ATOM     30  C   LIG    1       26.318 -28.511   8.894  0.00  0.00    +0.004 C 
ATOM     31  C   LIG    1       25.199 -29.537   9.001  0.00  0.00    -0.003 C 
ENDBRANCH  29  31
ENDBRANCH  28  29
ENDBRANCH  27  28
ENDBRANCH  26  27
ENDBRANCH  25  26
ENDBRANCH  24  25
ENDBRANCH  23  24
ENDBRANCH  21  23
ENDBRANCH  20  21
ENDBRANCH   1  20
TORSDOF 10
ENDMDL
MODEL 5
REMARK VINA RESULT:      -6.9      6.095     11.424
REMARK  Name = *****
REMARK                            x       y       z     vdW  Elec       q    Type
REMARK                         _______ _______ _______ _____ _____    ______ ____
ROOT
ATOM      1  C   LIG    1       24.352 -30.780  11.678  0.00  0.00    +0.183 C 
ATOM      2  C   LIG    1       22.990 -30.108  12.061  0.00  0.00    +0.008 C 
ATOM      3  C   LIG    1       22.087 -29.986  10.801  0.00  0.00    +0.015 C 
ATOM      4  C   LIG    1       23.393 -28.667  12.514  0.00  0.00    +0.002 C 
ATOM      5  C   LIG    1       22.901 -28.136  13.879  0.00  0.00    -0.003 C 
ATOM      6  C   LIG    1       21.749 -28.931  14.514  0.00  0.00    -0.000 C 
ATOM      7  C   LIG    1       22.145 -30.413  14.496  0.00  0.00    +0.005 C 
ATOM      8  C   LIG    1       20.339 -28.628  13.921  0.00  0.00    +0.019 C 
ATOM      9  C   LIG    1       20.115 -27.137  13.721  0.00  0.00    -0.063 C 
ATOM     10  C   LIG    1       18.965 -26.510  14.026  0.00  0.00    +0.045 C 
ATOM     11  C   LIG    1       17.779 -27.264  14.489  0.00  0.00    +0.156 C 
ATOM     12  O   LIG    1       16.754 -26.656  14.787  0.00  0.00    -0.293 OA
ATOM     13  C   LIG    1       17.849 -28.769  14.466  0.00  0.00    +0.079 C 
ATOM     14  C   LIG    1       21.249 -26.368  13.096  0.00  0.00    +0.031 C 
ATOM     15  C   LIG    1       19.249 -29.245  14.824  0.00  0.00    +0.016 C 
ATOM     16  C   LIG    1       22.567 -26.637  13.813  0.00  0.00    +0.008 C 
ATOM     17  C   LIG    1       24.933 -28.628  12.442  0.00  0.00    +0.008 C 
ATOM     18  C   LIG    1       22.230 -30.985  13.089  0.00  0.00    +0.011 C 
ATOM     19  C   LIG    1       25.282 -29.619  11.351  0.00  0.00    +0.045 C 
ENDROOT
BRANCH   1  20
ATOM     20  O   LIG    1       24.153 -31.696  10.603  0.00  0.00    -0.461 OA
BRANCH  20  21
ATOM     21  C   LIG    1       25.215 -31.980   9.813  0.00  0.00    +0.307 C 
ATOM     22  O   LIG    1       26.288 -32.443  10.186  0.00  0.00    -0.251 OA
BRANCH  21  23
ATOM     23  C   LIG    1       24.825 -31.770   8.372  0.00  0.00    +0.120 C 
BRANCH  23  24
ATOM     24  C   LIG    1       25.452 -30.474   7.864  0.00  0.00    +0.011 C 
BRANCH  24  25
ATOM     25  C   LIG    1       24.414 -29.362   7.710  0.00  0.00    +0.000 C 
BRANCH  25  26
ATOM     26  C   LIG    1       24.748 -28.428   6.542  0.00  0.00    +0.000 C 
BRANCH  26  27
ATOM     27  C   LIG    1       25.759 -27.350   6.950  0.00  0.00    -0.000 C 
BRANCH  27  28
ATOM     28  C   LIG    1       25.798 -26.150   5.995  0.00  0.00    -0.000 C 
BRANCH  28  29
ATOM     29  C   LIG    1       25.265 -24.850   6.607  0.00  0.00    -0.000 C 
BRANCH  29  31
ATOM     30  C   LIG    1       23.267 -23.290   6.783  0.00  0.00    +0.004 C 
ATOM     31  C   LIG    1       23.743 -24.709   6.505  0.00  0.00    -0.003 C 
ENDBRANCH  29  31
ENDBRANCH  28  29
ENDBRANCH  27  28
ENDBRANCH  26  27
ENDBRANCH  25  26
ENDBRANCH  24  25
ENDBRANCH  23  24
ENDBRANCH  21  23
ENDBRANCH  20  21
ENDBRANCH   1  20
TORSDOF 10
ENDMDL
MODEL 6
REMARK VINA RESULT:      -6.6      3.699      6.203
REMARK  Name = *****
REMARK                            x       y       z     vdW  Elec       q    Type
REMARK                         _______ _______ _______ _____ _____    ______ ____
ROOT
ATOM      1  C   LIG    1       24.767 -26.691   6.522  0.00  0.00    +0.183 C 
ATOM      2  C   LIG    1       24.595 -25.258   5.914  0.00  0.00    +0.008 C 
ATOM      3  C   LIG    1       24.964 -25.277   4.403  0.00  0.00    +0.015 C 
ATOM      4  C   LIG    1       25.660 -24.397   6.665  0.00  0.00    +0.002 C 
ATOM      5  C   LIG    1       25.228 -23.079   7.345  0.00  0.00    -0.003 C 
ATOM      6  C   LIG    1       23.857 -22.537   6.909  0.00  0.00    -0.000 C 
ATOM      7  C   LIG    1       22.849 -23.688   7.018  0.00  0.00    +0.005 C 
ATOM      8  C   LIG    1       23.852 -21.797   5.536  0.00  0.00    +0.019 C 
ATOM      9  C   LIG    1       25.038 -20.856   5.393  0.00  0.00    -0.063 C 
ATOM     10  C   LIG    1       24.949 -19.619   4.872  0.00  0.00    +0.045 C 
ATOM     11  C   LIG    1       23.682 -19.119   4.295  0.00  0.00    +0.156 C 
ATOM     12  O   LIG    1       23.627 -17.974   3.854  0.00  0.00    -0.293 OA
ATOM     13  C   LIG    1       22.534 -20.089   4.171  0.00  0.00    +0.079 C 
ATOM     14  C   LIG    1       26.377 -21.397   5.822  0.00  0.00    +0.031 C 
ATOM     15  C   LIG    1       22.514 -21.048   5.351  0.00  0.00    +0.016 C 
ATOM     16  C   LIG    1       26.313 -21.998   7.221  0.00  0.00    +0.008 C 
ATOM     17  C   LIG    1       26.309 -25.347   7.694  0.00  0.00    +0.008 C 
ATOM     18  C   LIG    1       23.117 -24.805   6.021  0.00  0.00    +0.011 C 
ATOM     19  C   LIG    1       26.192 -26.718   7.060  0.00  0.00    +0.045 C 
ENDROOT
BRANCH   1  20
ATOM     20  O   LIG    1       24.495 -27.675   5.526  0.00  0.00    -0.461 OA
BRANCH  20  21
ATOM     21  C   LIG    1       24.793 -28.963   5.815  0.00  0.00    +0.307 C 
ATOM     22  O   LIG    1       25.559 -29.685   5.184  0.00  0.00    -0.251 OA
BRANCH  21  23
ATOM     23  C   LIG    1       24.144 -29.337   7.123  0.00  0.00    +0.120 C 
BRANCH  23  24
ATOM     24  C   LIG    1       25.084 -30.247   7.910  0.00  0.00    +0.011 C 
BRANCH  24  25
ATOM     25  C   LIG    1       25.505 -29.619   9.238  0.00  0.00    +0.000 C 
BRANCH  25  26
ATOM     26  C   LIG    1       26.885 -30.109   9.689  0.00  0.00    +0.000 C 
BRANCH  26  27
ATOM     27  C   LIG    1       27.533 -29.139  10.684  0.00  0.00    -0.000 C 
BRANCH  27  28
ATOM     28  C   LIG    1       26.695 -27.884  10.956  0.00  0.00    -0.000 C 
BRANCH  28  29
ATOM     29  C   LIG    1       26.796 -27.369  12.396  0.00  0.00    -0.000 C 
BRANCH  29  31
ATOM     30  C   LIG    1       24.440 -28.294  12.621  0.00  0.00    +0.004 C 
ATOM     31  C   LIG    1       25.438 -27.250  13.097  0.00  0.00    -0.003 C 
ENDBRANCH  29  31
ENDBRANCH  28  29
ENDBRANCH  27  28
ENDBRANCH  26  27
ENDBRANCH  25  26
ENDBRANCH  24  25
ENDBRANCH  23  24
ENDBRANCH  21  23
ENDBRANCH  20  21
ENDBRANCH   1  20
TORSDOF 10
ENDMDL
MODEL 7
REMARK VINA RESULT:      -6.5      6.287     10.418
REMARK  Name = *****
REMARK                            x       y       z     vdW  Elec       q    Type
REMARK                         _______ _______ _______ _____ _____    ______ ____
ROOT
ATOM      1  C   LIG    1       23.828 -31.960  11.527  0.00  0.00    +0.183 C 
ATOM      2  C   LIG    1       23.990 -30.928  10.359  0.00  0.00    +0.008 C 
ATOM      3  C   LIG    1       22.649 -30.175  10.128  0.00  0.00    +0.015 C 
ATOM      4  C   LIG    1       24.274 -31.816   9.105  0.00  0.00    +0.002 C 
ATOM      5  C   LIG    1       25.503 -31.509   8.220  0.00  0.00    -0.003 C 
ATOM      6  C   LIG    1       26.135 -30.125   8.437  0.00  0.00    -0.000 C 
ATOM      7  C   LIG    1       26.358 -29.949   9.945  0.00  0.00    +0.005 C 
ATOM      8  C   LIG    1       25.381 -28.945   7.750  0.00  0.00    +0.019 C 
ATOM      9  C   LIG    1       24.958 -29.291   6.330  0.00  0.00    -0.063 C 
ATOM     10  C   LIG    1       25.069 -28.442   5.293  0.00  0.00    +0.045 C 
ATOM     11  C   LIG    1       25.524 -27.047   5.488  0.00  0.00    +0.156 C 
ATOM     12  O   LIG    1       25.642 -26.308   4.515  0.00  0.00    -0.293 OA
ATOM     13  C   LIG    1       25.715 -26.561   6.902  0.00  0.00    +0.079 C 
ATOM     14  C   LIG    1       24.338 -30.649   6.129  0.00  0.00    +0.031 C 
ATOM     15  C   LIG    1       26.260 -27.675   7.782  0.00  0.00    +0.016 C 
ATOM     16  C   LIG    1       25.200 -31.751   6.733  0.00  0.00    +0.008 C 
ATOM     17  C   LIG    1       24.336 -33.265   9.631  0.00  0.00    +0.008 C 
ATOM     18  C   LIG    1       25.057 -29.865  10.728  0.00  0.00    +0.011 C 
ATOM     19  C   LIG    1       23.428 -33.262  10.844  0.00  0.00    +0.045 C 
ENDROOT
BRANCH   1  20
ATOM     20  O   LIG    1       22.876 -31.475  12.472  0.00  0.00    -0.461 OA
BRANCH  20  21
ATOM     21  C   LIG    1       23.310 -31.217  13.727  0.00  0.00    +0.307 C 
ATOM     22  O   LIG    1       24.216 -31.803  14.311  0.00  0.00    -0.251 OA
BRANCH  21  23
ATOM     23  C   LIG    1       22.599 -29.997  14.253  0.00  0.00    +0.120 C 
BRANCH  23  24
ATOM     24  C   LIG    1       23.285 -28.743  13.717  0.00  0.00    +0.011 C 
BRANCH  24  25
ATOM     25  C   LIG    1       22.296 -27.805  13.024  0.00  0.00    +0.000 C 
BRANCH  25  26
ATOM     26  C   LIG    1       22.595 -26.334  13.331  0.00  0.00    +0.000 C 
BRANCH  26  27
ATOM     27  C   LIG    1       23.850 -26.180  14.197  0.00  0.00    -0.000 C 
BRANCH  27  28
ATOM     28  C   LIG    1       24.828 -25.116  13.683  0.00  0.00    -0.000 C 
BRANCH  28  29
ATOM     29  C   LIG    1       26.292 -25.570  13.669  0.00  0.00    -0.000 C 
BRANCH  29  31
ATOM     30  C   LIG    1       26.989 -27.963  13.174  0.00  0.00    +0.004 C 
ATOM     31  C   LIG    1       26.596 -26.613  12.590  0.00  0.00    -0.003 C 
ENDBRANCH  29  31
ENDBRANCH  28  29
ENDBRANCH  27  28
ENDBRANCH  26  27
ENDBRANCH  25  26
ENDBRANCH  24  25
ENDBRANCH  23  24
ENDBRANCH  21  23
ENDBRANCH  20  21
ENDBRANCH   1  20
TORSDOF 10
ENDMDL
MODEL 8
REMARK VINA RESULT:      -6.1      3.735      6.508
REMARK  Name = *****
REMARK                            x       y       z     vdW  Elec       q    Type
REMARK                         _______ _______ _______ _____ _____    ______ ____
ROOT
ATOM      1  C   LIG    1       24.744 -26.536   6.474  0.00  0.00    +0.183 C 
ATOM      2  C   LIG    1       24.543 -25.106   5.867  0.00  0.00    +0.008 C 
ATOM      3  C   LIG    1       24.870 -25.125   4.346  0.00  0.00    +0.015 C 
ATOM      4  C   LIG    1       25.621 -24.233   6.587  0.00  0.00    +0.002 C 
ATOM      5  C   LIG    1       25.196 -22.917   7.276  0.00  0.00    -0.003 C 
ATOM      6  C   LIG    1       23.810 -22.389   6.876  0.00  0.00    -0.000 C 
ATOM      7  C   LIG    1       22.814 -23.548   7.016  0.00  0.00    +0.005 C 
ATOM      8  C   LIG    1       23.761 -21.652   5.502  0.00  0.00    +0.019 C 
ATOM      9  C   LIG    1       24.934 -20.701   5.325  0.00  0.00    -0.063 C 
ATOM     10  C   LIG    1       24.820 -19.466   4.803  0.00  0.00    +0.045 C 
ATOM     11  C   LIG    1       23.532 -18.979   4.261  0.00  0.00    +0.156 C 
ATOM     12  O   LIG    1       23.456 -17.835   3.819  0.00  0.00    -0.293 OA
ATOM     13  C   LIG    1       22.391 -19.959   4.170  0.00  0.00    +0.079 C 
ATOM     14  C   LIG    1       26.289 -21.230   5.717  0.00  0.00    +0.031 C 
ATOM     15  C   LIG    1       22.411 -20.914   5.353  0.00  0.00    +0.016 C 
ATOM     16  C   LIG    1       26.269 -21.828   7.119  0.00  0.00    +0.008 C 
ATOM     17  C   LIG    1       26.306 -25.175   7.599  0.00  0.00    +0.008 C 
ATOM     18  C   LIG    1       23.065 -24.664   6.014  0.00  0.00    +0.011 C 
ATOM     19  C   LIG    1       26.184 -26.549   6.972  0.00  0.00    +0.045 C 
ENDROOT
BRANCH   1  20
ATOM     20  O   LIG    1       24.453 -27.524   5.487  0.00  0.00    -0.461 OA
BRANCH  20  21
ATOM     21  C   LIG    1       24.729 -28.815   5.789  0.00  0.00    +0.307 C 
ATOM     22  O   LIG    1       25.516 -29.542   5.192  0.00  0.00    -0.251 OA
BRANCH  21  23
ATOM     23  C   LIG    1       24.020 -29.183   7.067  0.00  0.00    +0.120 C 
BRANCH  23  24
ATOM     24  C   LIG    1       24.873 -30.180   7.847  0.00  0.00    +0.011 C 
BRANCH  24  25
ATOM     25  C   LIG    1       25.111 -29.722   9.286  0.00  0.00    +0.000 C 
BRANCH  25  26
ATOM     26  C   LIG    1       24.389 -30.619  10.297  0.00  0.00    +0.000 C 
BRANCH  26  27
ATOM     27  C   LIG    1       22.961 -30.131  10.568  0.00  0.00    -0.000 C 
BRANCH  27  28
ATOM     28  C   LIG    1       21.894 -31.216  10.377  0.00  0.00    -0.000 C 
BRANCH  28  29
ATOM     29  C   LIG    1       20.460 -30.726  10.612  0.00  0.00    -0.000 C 
BRANCH  29  31
ATOM     30  C   LIG    1       18.114 -31.210   9.766  0.00  0.00    +0.004 C 
ATOM     31  C   LIG    1       19.398 -31.795  10.335  0.00  0.00    -0.003 C 
ENDBRANCH  29  31
ENDBRANCH  28  29
ENDBRANCH  27  28
ENDBRANCH  26  27
ENDBRANCH  25  26
ENDBRANCH  24  25
ENDBRANCH  23  24
ENDBRANCH  21  23
ENDBRANCH  20  21
ENDBRANCH   1  20
TORSDOF 10
ENDMDL
MODEL 9
REMARK VINA RESULT:      -6.0      6.102     10.426
REMARK  Name = *****
REMARK                            x       y       z     vdW  Elec       q    Type
REMARK                         _______ _______ _______ _____ _____    ______ ____
ROOT
ATOM      1  C   LIG    1       24.398 -31.818  11.445  0.00  0.00    +0.183 C 
ATOM      2  C   LIG    1       24.373 -30.716  10.332  0.00  0.00    +0.008 C 
ATOM      3  C   LIG    1       23.040 -29.919  10.407  0.00  0.00    +0.015 C 
ATOM      4  C   LIG    1       24.382 -31.527   8.996  0.00  0.00    +0.002 C 
ATOM      5  C   LIG    1       25.431 -31.191   7.912  0.00  0.00    -0.003 C 
ATOM      6  C   LIG    1       26.142 -29.839   8.087  0.00  0.00    -0.000 C 
ATOM      7  C   LIG    1       26.652 -29.768   9.531  0.00  0.00    +0.005 C 
ATOM      8  C   LIG    1       25.313 -28.600   7.628  0.00  0.00    +0.019 C 
ATOM      9  C   LIG    1       24.617 -28.842   6.297  0.00  0.00    -0.063 C 
ATOM     10  C   LIG    1       24.559 -27.930   5.311  0.00  0.00    +0.045 C 
ATOM     11  C   LIG    1       25.091 -26.562   5.498  0.00  0.00    +0.156 C 
ATOM     12  O   LIG    1       25.049 -25.763   4.566  0.00  0.00    -0.293 OA
ATOM     13  C   LIG    1       25.564 -26.174   6.876  0.00  0.00    +0.079 C 
ATOM     14  C   LIG    1       23.922 -30.169   6.138  0.00  0.00    +0.031 C 
ATOM     15  C   LIG    1       26.226 -27.355   7.567  0.00  0.00    +0.016 C 
ATOM     16  C   LIG    1       24.844 -31.328   6.499  0.00  0.00    +0.008 C 
ATOM     17  C   LIG    1       24.492 -33.008   9.413  0.00  0.00    +0.008 C 
ATOM     18  C   LIG    1       25.527 -29.705  10.553  0.00  0.00    +0.011 C 
ATOM     19  C   LIG    1       23.830 -33.063  10.775  0.00  0.00    +0.045 C 
ENDROOT
BRANCH   1  20
ATOM     20  O   LIG    1       23.660 -31.374  12.582  0.00  0.00    -0.461 OA
BRANCH  20  21
ATOM     21  C   LIG    1       24.354 -31.060  13.700  0.00  0.00    +0.307 C 
ATOM     22  O   LIG    1       25.487 -31.443  13.977  0.00  0.00    -0.251 OA
BRANCH  21  23
ATOM     23  C   LIG    1       23.574 -30.046  14.496  0.00  0.00    +0.120 C 
BRANCH  23  24
ATOM     24  C   LIG    1       24.438 -28.809  14.723  0.00  0.00    +0.011 C 
BRANCH  24  25
ATOM     25  C   LIG    1       24.662 -28.026  13.429  0.00  0.00    +0.000 C 
BRANCH  25  26
ATOM     26  C   LIG    1       24.142 -26.588  13.536  0.00  0.00    +0.000 C 
BRANCH  26  27
ATOM     27  C   LIG    1       22.758 -26.534  14.194  0.00  0.00    -0.000 C 
BRANCH  27  28
ATOM     28  C   LIG    1       21.602 -26.453  13.190  0.00  0.00    -0.000 C 
BRANCH  28  29
ATOM     29  C   LIG    1       20.955 -27.807  12.876  0.00  0.00    -0.000 C 
BRANCH  29  31
ATOM     30  C   LIG    1       18.927 -27.737  14.406  0.00  0.00    +0.004 C 
ATOM     31  C   LIG    1       20.240 -28.433  14.077  0.00  0.00    -0.003 C 
ENDBRANCH  29  31
ENDBRANCH  28  29
ENDBRANCH  27  28
ENDBRANCH  26  27
ENDBRANCH  25  26
ENDBRANCH  24  25
ENDBRANCH  23  24
ENDBRANCH  21  23
ENDBRANCH  20  21
ENDBRANCH   1  20
TORSDOF 10
ENDMDL
