MODEL 1
REMARK VINA RESULT:     -10.7      0.000      0.000
REMARK  Name = *****
REMARK                            x       y       z     vdW  Elec       q    Type
REMARK                         _______ _______ _______ _____ _____    ______ ____
ROOT
ATOM      1  N   LIG    1       26.590 -21.374   8.779  0.00  0.00    -0.311 NA
ATOM      2  H   LIG    1       26.276 -20.974   9.674  0.00  0.00    +0.122 HD
ENDROOT
BRANCH   1   3
ATOM      3  C   LIG    1       25.440 -21.980   8.087  0.00  0.00    +0.115 C 
BRANCH   3   4
ATOM      4  C   LIG    1       25.827 -22.743   6.793  0.00  0.00    +0.169 C 
BRANCH   4   5
ATOM      5  C   LIG    1       24.619 -23.093   5.881  0.00  0.00    +0.203 C 
ATOM      6  O   LIG    1       24.635 -22.351   4.652  0.00  0.00    -0.486 OA
ATOM      7  C   LIG    1       23.997 -21.139   4.652  0.00  0.00    +0.124 A 
ATOM      8  C   LIG    1       23.103 -20.728   5.645  0.00  0.00    -0.003 A 
ATOM      9  C   LIG    1       22.511 -19.458   5.543  0.00  0.00    +0.045 A 
ATOM     10  C   LIG    1       22.807 -18.647   4.455  0.00  0.00    +0.124 A 
ATOM     11  C   LIG    1       23.686 -19.056   3.465  0.00  0.00    +0.042 A 
ATOM     12  F   LIG    1       22.227 -17.437   4.363  0.00  0.00    -0.205 F 
ATOM     13  C   LIG    1       22.802 -21.600   6.827  0.00  0.00    +0.042 C 
ATOM     14  C   LIG    1       24.287 -20.313   3.565  0.00  0.00    +0.049 A 
ATOM     15  C   LIG    1       23.246 -23.028   6.560  0.00  0.00    +0.052 C 
ENDBRANCH   4   5
BRANCH   4  16
ATOM     16  O   LIG    1       26.578 -23.903   7.163  0.00  0.00    -0.387 OA
ATOM     17  H   LIG    1       27.456 -23.559   7.427  0.00  0.00    +0.210 HD
ENDBRANCH   4  16
ENDBRANCH   3   4
ENDBRANCH   1   3
BRANCH   1  18
ATOM     18  C   LIG    1       27.193 -20.296   7.978  0.00  0.00    +0.115 C 
BRANCH  18  19
ATOM     19  C   LIG    1       28.663 -20.608   7.599  0.00  0.00    +0.169 C 
BRANCH  19  20
ATOM     20  C   LIG    1       29.568 -19.363   7.789  0.00  0.00    +0.203 C 
ATOM     21  O   LIG    1       29.444 -18.960   9.168  0.00  0.00    -0.486 OA
ATOM     22  C   LIG    1       30.369 -18.055   9.617  0.00  0.00    +0.124 A 
ATOM     23  C   LIG    1       31.559 -17.761   8.943  0.00  0.00    -0.003 A 
ATOM     24  C   LIG    1       32.453 -16.840   9.510  0.00  0.00    +0.045 A 
ATOM     25  C   LIG    1       32.157 -16.252  10.734  0.00  0.00    +0.124 A 
ATOM     26  C   LIG    1       30.981 -16.551  11.410  0.00  0.00    +0.042 A 
ATOM     27  F   LIG    1       33.025 -15.385  11.276  0.00  0.00    -0.205 F 
ATOM     28  C   LIG    1       31.864 -18.398   7.619  0.00  0.00    +0.042 C 
ATOM     29  C   LIG    1       30.082 -17.460  10.848  0.00  0.00    +0.049 A 
ATOM     30  C   LIG    1       31.028 -19.660   7.430  0.00  0.00    +0.052 C 
ENDBRANCH  19  20
BRANCH  19  31
ATOM     31  O   LIG    1       29.142 -21.691   8.418  0.00  0.00    -0.387 OA
ATOM     32  H   LIG    1       30.021 -21.418   8.743  0.00  0.00    +0.210 HD
ENDBRANCH  19  31
ENDBRANCH  18  19
ENDBRANCH   1  18
TORSDOF 8
ENDMDL
MODEL 2
REMARK VINA RESULT:     -10.5      2.913      9.300
REMARK  Name = *****
REMARK                            x       y       z     vdW  Elec       q    Type
REMARK                         _______ _______ _______ _____ _____    ______ ____
ROOT
ATOM      1  N   LIG    1       28.332 -21.090   8.383  0.00  0.00    -0.311 NA
ATOM      2  H   LIG    1       27.927 -22.015   8.581  0.00  0.00    +0.122 HD
ENDROOT
BRANCH   1   3
ATOM      3  C   LIG    1       29.638 -21.260   7.724  0.00  0.00    +0.115 C 
BRANCH   3   4
ATOM      4  C   LIG    1       30.806 -20.571   8.475  0.00  0.00    +0.169 C 
BRANCH   4   5
ATOM      5  C   LIG    1       31.197 -19.183   7.897  0.00  0.00    +0.203 C 
ATOM      6  O   LIG    1       32.288 -18.585   8.615  0.00  0.00    -0.486 OA
ATOM      7  C   LIG    1       31.965 -17.796   9.687  0.00  0.00    +0.124 A 
ATOM      8  C   LIG    1       30.679 -17.308   9.936  0.00  0.00    -0.003 A 
ATOM      9  C   LIG    1       30.463 -16.511  11.073  0.00  0.00    +0.045 A 
ATOM     10  C   LIG    1       31.528 -16.208  11.912  0.00  0.00    +0.124 A 
ATOM     11  C   LIG    1       32.805 -16.684  11.662  0.00  0.00    +0.042 A 
ATOM     12  F   LIG    1       31.312 -15.437  12.992  0.00  0.00    -0.205 F 
ATOM     13  C   LIG    1       29.529 -17.654   9.038  0.00  0.00    +0.042 C 
ATOM     14  C   LIG    1       33.025 -17.486  10.539  0.00  0.00    +0.049 A 
ATOM     15  C   LIG    1       30.036 -18.200   7.713  0.00  0.00    +0.052 C 
ENDBRANCH   4   5
BRANCH   4  16
ATOM     16  O   LIG    1       31.915 -21.474   8.508  0.00  0.00    -0.387 OA
ATOM     17  H   LIG    1       31.675 -22.188   7.882  0.00  0.00    +0.210 HD
ENDBRANCH   4  16
ENDBRANCH   3   4
ENDBRANCH   1   3
BRANCH   1  18
ATOM     18  C   LIG    1       27.391 -20.349   7.527  0.00  0.00    +0.115 C 
BRANCH  18  19
ATOM     19  C   LIG    1       25.920 -20.544   7.977  0.00  0.00    +0.169 C 
BRANCH  19  20
ATOM     20  C   LIG    1       25.218 -21.642   7.136  0.00  0.00    +0.203 C 
ATOM     21  O   LIG    1       26.014 -22.838   7.257  0.00  0.00    -0.486 OA
ATOM     22  C   LIG    1       25.430 -23.998   6.824  0.00  0.00    +0.124 A 
ATOM     23  C   LIG    1       24.057 -24.135   6.584  0.00  0.00    -0.003 A 
ATOM     24  C   LIG    1       23.560 -25.380   6.173  0.00  0.00    +0.045 A 
ATOM     25  C   LIG    1       24.424 -26.459   6.030  0.00  0.00    +0.124 A 
ATOM     26  C   LIG    1       25.784 -26.328   6.278  0.00  0.00    +0.042 A 
ATOM     27  F   LIG    1       23.936 -27.650   5.652  0.00  0.00    -0.205 F 
ATOM     28  C   LIG    1       23.136 -22.961   6.736  0.00  0.00    +0.042 C 
ATOM     29  C   LIG    1       26.289 -25.090   6.679  0.00  0.00    +0.049 A 
ATOM     30  C   LIG    1       23.780 -21.886   7.607  0.00  0.00    +0.052 C 
ENDBRANCH  19  20
BRANCH  19  31
ATOM     31  O   LIG    1       25.897 -20.903   9.370  0.00  0.00    -0.387 OA
ATOM     32  H   LIG    1       26.798 -20.742   9.708  0.00  0.00    +0.210 HD
ENDBRANCH  19  31
ENDBRANCH  18  19
ENDBRANCH   1  18
TORSDOF 8
ENDMDL
MODEL 3
REMARK VINA RESULT:     -10.0      5.110      9.102
REMARK  Name = *****
REMARK                            x       y       z     vdW  Elec       q    Type
REMARK                         _______ _______ _______ _____ _____    ______ ____
ROOT
ATOM      1  N   LIG    1       23.497 -24.467   6.520  0.00  0.00    -0.311 NA
ATOM      2  H   LIG    1       22.971 -24.865   7.309  0.00  0.00    +0.122 HD
ENDROOT
BRANCH   1   3
ATOM      3  C   LIG    1       23.211 -23.025   6.422  0.00  0.00    +0.115 C 
BRANCH   3   4
ATOM      4  C   LIG    1       24.338 -22.215   5.730  0.00  0.00    +0.169 C 
BRANCH   4   5
ATOM      5  C   LIG    1       24.558 -20.800   6.331  0.00  0.00    +0.203 C 
ATOM      6  O   LIG    1       25.713 -20.150   5.778  0.00  0.00    -0.486 OA
ATOM      7  C   LIG    1       26.907 -20.360   6.415  0.00  0.00    +0.124 A 
ATOM      8  C   LIG    1       27.020 -20.901   7.700  0.00  0.00    -0.003 A 
ATOM      9  C   LIG    1       28.300 -21.077   8.252  0.00  0.00    +0.045 A 
ATOM     10  C   LIG    1       29.421 -20.695   7.526  0.00  0.00    +0.124 A 
ATOM     11  C   LIG    1       29.310 -20.150   6.257  0.00  0.00    +0.042 A 
ATOM     12  F   LIG    1       30.640 -20.859   8.068  0.00  0.00    -0.205 F 
ATOM     13  C   LIG    1       25.808 -21.330   8.471  0.00  0.00    +0.042 C 
ATOM     14  C   LIG    1       28.041 -19.982   5.696  0.00  0.00    +0.049 A 
ATOM     15  C   LIG    1       24.552 -20.730   7.862  0.00  0.00    +0.052 C 
ENDBRANCH   4   5
BRANCH   4  16
ATOM     16  O   LIG    1       24.062 -22.169   4.327  0.00  0.00    -0.387 OA
ATOM     17  H   LIG    1       24.380 -21.290   4.038  0.00  0.00    +0.210 HD
ENDBRANCH   4  16
ENDBRANCH   3   4
ENDBRANCH   1   3
BRANCH   1  18
ATOM     18  C   LIG    1       24.930 -24.716   6.748  0.00  0.00    +0.115 C 
BRANCH  18  19
ATOM     19  C   LIG    1       25.566 -25.535   5.596  0.00  0.00    +0.169 C 
BRANCH  19  20
ATOM     20  C   LIG    1       25.667 -27.038   5.965  0.00  0.00    +0.203 C 
ATOM     21  O   LIG    1       26.010 -27.106   7.364  0.00  0.00    -0.486 OA
ATOM     22  C   LIG    1       25.875 -28.331   7.960  0.00  0.00    +0.124 A 
ATOM     23  C   LIG    1       25.154 -29.392   7.400  0.00  0.00    -0.003 A 
ATOM     24  C   LIG    1       25.053 -30.596   8.113  0.00  0.00    +0.045 A 
ATOM     25  C   LIG    1       25.647 -30.712   9.363  0.00  0.00    +0.124 A 
ATOM     26  C   LIG    1       26.355 -29.658   9.925  0.00  0.00    +0.042 A 
ATOM     27  F   LIG    1       25.531 -31.863  10.044  0.00  0.00    -0.205 F 
ATOM     28  C   LIG    1       24.521 -29.254   6.047  0.00  0.00    +0.042 C 
ATOM     29  C   LIG    1       26.467 -28.458   9.219  0.00  0.00    +0.049 A 
ATOM     30  C   LIG    1       24.358 -27.782   5.681  0.00  0.00    +0.052 C 
ENDBRANCH  19  20
BRANCH  19  31
ATOM     31  O   LIG    1       24.771 -25.374   4.407  0.00  0.00    -0.387 OA
ATOM     32  H   LIG    1       25.327 -24.883   3.772  0.00  0.00    +0.210 HD
ENDBRANCH  19  31
ENDBRANCH  18  19
ENDBRANCH   1  18
TORSDOF 8
ENDMDL
MODEL 4
REMARK VINA RESULT:      -9.8      6.250      9.738
REMARK  Name = *****
REMARK                            x       y       z     vdW  Elec       q    Type
REMARK                         _______ _______ _______ _____ _____    ______ ____
ROOT
ATOM      1  N   LIG    1       25.294 -27.169   6.809  0.00  0.00    -0.311 NA
ATOM      2  H   LIG    1       24.988 -27.262   7.786  0.00  0.00    +0.122 HD
ENDROOT
BRANCH   1   3
ATOM      3  C   LIG    1       25.212 -28.481   6.144  0.00  0.00    +0.115 C 
BRANCH   3   4
ATOM      4  C   LIG    1       23.986 -29.323   6.583  0.00  0.00    +0.169 C 
BRANCH   4   5
ATOM      5  C   LIG    1       24.355 -30.625   7.345  0.00  0.00    +0.203 C 
ATOM      6  O   LIG    1       23.323 -31.029   8.259  0.00  0.00    -0.486 OA
ATOM      7  C   LIG    1       23.395 -30.531   9.532  0.00  0.00    +0.124 A 
ATOM      8  C   LIG    1       24.531 -29.919  10.069  0.00  0.00    -0.003 A 
ATOM      9  C   LIG    1       24.486 -29.439  11.388  0.00  0.00    +0.045 A 
ATOM     10  C   LIG    1       23.329 -29.597  12.138  0.00  0.00    +0.124 A 
ATOM     11  C   LIG    1       22.204 -30.212  11.612  0.00  0.00    +0.042 A 
ATOM     12  F   LIG    1       23.300 -29.143  13.403  0.00  0.00    -0.205 F 
ATOM     13  C   LIG    1       25.773 -29.733   9.247  0.00  0.00    +0.042 C 
ATOM     14  C   LIG    1       22.237 -30.682  10.297  0.00  0.00    +0.049 A 
ATOM     15  C   LIG    1       25.733 -30.623   8.016  0.00  0.00    +0.052 C 
ENDBRANCH   4   5
BRANCH   4  16
ATOM     16  O   LIG    1       23.182 -29.582   5.429  0.00  0.00    -0.387 OA
ATOM     17  H   LIG    1       23.770 -30.072   4.819  0.00  0.00    +0.210 HD
ENDBRANCH   4  16
ENDBRANCH   3   4
ENDBRANCH   1   3
BRANCH   1  18
ATOM     18  C   LIG    1       24.431 -26.177   6.147  0.00  0.00    +0.115 C 
BRANCH  18  19
ATOM     19  C   LIG    1       25.255 -25.078   5.429  0.00  0.00    +0.169 C 
BRANCH  19  20
ATOM     20  C   LIG    1       24.814 -23.661   5.879  0.00  0.00    +0.203 C 
ATOM     21  O   LIG    1       24.743 -22.845   4.692  0.00  0.00    -0.486 OA
ATOM     22  C   LIG    1       24.107 -21.640   4.825  0.00  0.00    +0.124 A 
ATOM     23  C   LIG    1       23.281 -21.313   5.907  0.00  0.00    -0.003 A 
ATOM     24  C   LIG    1       22.651 -20.060   5.927  0.00  0.00    +0.045 A 
ATOM     25  C   LIG    1       22.837 -19.175   4.872  0.00  0.00    +0.124 A 
ATOM     26  C   LIG    1       23.647 -19.501   3.793  0.00  0.00    +0.042 A 
ATOM     27  F   LIG    1       22.217 -17.985   4.892  0.00  0.00    -0.205 F 
ATOM     28  C   LIG    1       23.094 -22.275   7.042  0.00  0.00    +0.042 C 
ATOM     29  C   LIG    1       24.285 -20.744   3.769  0.00  0.00    +0.049 A 
ATOM     30  C   LIG    1       23.467 -23.690   6.610  0.00  0.00    +0.052 C 
ENDBRANCH  19  20
BRANCH  19  31
ATOM     31  O   LIG    1       26.652 -25.271   5.717  0.00  0.00    -0.387 OA
ATOM     32  H   LIG    1       26.848 -24.716   6.496  0.00  0.00    +0.210 HD
ENDBRANCH  19  31
ENDBRANCH  18  19
ENDBRANCH   1  18
TORSDOF 8
ENDMDL
MODEL 5
REMARK VINA RESULT:      -9.8      4.736      7.198
REMARK  Name = *****
REMARK                            x       y       z     vdW  Elec       q    Type
REMARK                         _______ _______ _______ _____ _____    ______ ____
ROOT
ATOM      1  N   LIG    1       22.963 -24.012   6.507  0.00  0.00    -0.311 NA
ATOM      2  H   LIG    1       22.686 -23.768   5.547  0.00  0.00    +0.122 HD
ENDROOT
BRANCH   1   3
ATOM      3  C   LIG    1       24.154 -24.877   6.466  0.00  0.00    +0.115 C 
BRANCH   3   4
ATOM      4  C   LIG    1       24.536 -25.341   5.036  0.00  0.00    +0.169 C 
BRANCH   4   5
ATOM      5  C   LIG    1       25.759 -26.297   4.988  0.00  0.00    +0.203 C 
ATOM      6  O   LIG    1       25.385 -27.638   4.635  0.00  0.00    -0.486 OA
ATOM      7  C   LIG    1       25.053 -28.479   5.664  0.00  0.00    +0.124 A 
ATOM      8  C   LIG    1       25.335 -28.217   7.008  0.00  0.00    -0.003 A 
ATOM      9  C   LIG    1       24.940 -29.152   7.979  0.00  0.00    +0.045 A 
ATOM     10  C   LIG    1       24.298 -30.320   7.589  0.00  0.00    +0.124 A 
ATOM     11  C   LIG    1       24.026 -30.585   6.256  0.00  0.00    +0.042 A 
ATOM     12  F   LIG    1       23.934 -31.212   8.526  0.00  0.00    -0.205 F 
ATOM     13  C   LIG    1       26.011 -26.945   7.425  0.00  0.00    +0.042 C 
ATOM     14  C   LIG    1       24.405 -29.656   5.285  0.00  0.00    +0.049 A 
ATOM     15  C   LIG    1       26.660 -26.271   6.228  0.00  0.00    +0.052 C 
ENDBRANCH   4   5
BRANCH   4  16
ATOM     16  O   LIG    1       24.725 -24.179   4.224  0.00  0.00    -0.387 OA
ATOM     17  H   LIG    1       23.918 -23.642   4.361  0.00  0.00    +0.210 HD
ENDBRANCH   4  16
ENDBRANCH   3   4
ENDBRANCH   1   3
BRANCH   1  18
ATOM     18  C   LIG    1       23.231 -22.764   7.242  0.00  0.00    +0.115 C 
BRANCH  18  19
ATOM     19  C   LIG    1       22.996 -21.511   6.360  0.00  0.00    +0.169 C 
BRANCH  19  20
ATOM     20  C   LIG    1       24.294 -20.673   6.220  0.00  0.00    +0.203 C 
ATOM     21  O   LIG    1       25.282 -21.281   7.076  0.00  0.00    -0.486 OA
ATOM     22  C   LIG    1       26.575 -20.869   6.893  0.00  0.00    +0.124 A 
ATOM     23  C   LIG    1       27.015 -20.169   5.764  0.00  0.00    -0.003 A 
ATOM     24  C   LIG    1       28.370 -19.824   5.663  0.00  0.00    +0.045 A 
ATOM     25  C   LIG    1       29.256 -20.196   6.667  0.00  0.00    +0.124 A 
ATOM     26  C   LIG    1       28.824 -20.900   7.783  0.00  0.00    +0.042 A 
ATOM     27  F   LIG    1       30.554 -19.875   6.554  0.00  0.00    -0.205 F 
ATOM     28  C   LIG    1       26.047 -19.769   4.690  0.00  0.00    +0.042 C 
ATOM     29  C   LIG    1       27.474 -21.240   7.896  0.00  0.00    +0.049 A 
ATOM     30  C   LIG    1       24.781 -20.617   4.768  0.00  0.00    +0.052 C 
ENDBRANCH  19  20
BRANCH  19  31
ATOM     31  O   LIG    1       22.539 -21.927   5.060  0.00  0.00    -0.387 OA
ATOM     32  H   LIG    1       23.004 -21.361   4.414  0.00  0.00    +0.210 HD
ENDBRANCH  19  31
ENDBRANCH  18  19
ENDBRANCH   1  18
TORSDOF 8
ENDMDL
MODEL 6
REMARK VINA RESULT:      -9.7      2.600      3.845
REMARK  Name = *****
REMARK                            x       y       z     vdW  Elec       q    Type
REMARK                         _______ _______ _______ _____ _____    ______ ____
ROOT
ATOM      1  N   LIG    1       26.428 -20.329   8.095  0.00  0.00    -0.311 NA
ATOM      2  H   LIG    1       26.258 -19.407   8.520  0.00  0.00    +0.122 HD
ENDROOT
BRANCH   1   3
ATOM      3  C   LIG    1       26.056 -20.286   6.671  0.00  0.00    +0.115 C 
BRANCH   3   4
ATOM      4  C   LIG    1       25.001 -21.351   6.273  0.00  0.00    +0.169 C 
BRANCH   4   5
ATOM      5  C   LIG    1       24.600 -22.306   7.431  0.00  0.00    +0.203 C 
ATOM      6  O   LIG    1       25.529 -23.389   7.586  0.00  0.00    -0.486 OA
ATOM      7  C   LIG    1       25.281 -24.526   6.863  0.00  0.00    +0.124 A 
ATOM      8  C   LIG    1       24.062 -24.803   6.239  0.00  0.00    -0.003 A 
ATOM      9  C   LIG    1       23.924 -26.000   5.517  0.00  0.00    +0.045 A 
ATOM     10  C   LIG    1       24.988 -26.891   5.454  0.00  0.00    +0.124 A 
ATOM     11  C   LIG    1       26.194 -26.623   6.080  0.00  0.00    +0.042 A 
ATOM     12  F   LIG    1       24.842 -28.039   4.769  0.00  0.00    -0.205 F 
ATOM     13  C   LIG    1       22.923 -23.828   6.294  0.00  0.00    +0.042 C 
ATOM     14  C   LIG    1       26.343 -25.428   6.790  0.00  0.00    +0.049 A 
ATOM     15  C   LIG    1       23.152 -22.806   7.395  0.00  0.00    +0.052 C 
ENDBRANCH   4   5
BRANCH   4  16
ATOM     16  O   LIG    1       25.488 -22.061   5.131  0.00  0.00    -0.387 OA
ATOM     17  H   LIG    1       25.438 -21.417   4.395  0.00  0.00    +0.210 HD
ENDBRANCH   4  16
ENDBRANCH   3   4
ENDBRANCH   1   3
BRANCH   1  18
ATOM     18  C   LIG    1       27.852 -20.661   8.269  0.00  0.00    +0.115 C 
BRANCH  18  19
ATOM     19  C   LIG    1       28.707 -20.199   7.061  0.00  0.00    +0.169 C 
BRANCH  19  20
ATOM     20  C   LIG    1       29.688 -19.068   7.469  0.00  0.00    +0.203 C 
ATOM     21  O   LIG    1       29.423 -18.760   8.852  0.00  0.00    -0.486 OA
ATOM     22  C   LIG    1       30.359 -17.989   9.489  0.00  0.00    +0.124 A 
ATOM     23  C   LIG    1       31.649 -17.766   8.993  0.00  0.00    -0.003 A 
ATOM     24  C   LIG    1       32.539 -16.985   9.744  0.00  0.00    +0.045 A 
ATOM     25  C   LIG    1       32.141 -16.465  10.969  0.00  0.00    +0.124 A 
ATOM     26  C   LIG    1       30.865 -16.694  11.468  0.00  0.00    +0.042 A 
ATOM     27  F   LIG    1       33.006 -15.732  11.688  0.00  0.00    -0.205 F 
ATOM     28  C   LIG    1       32.064 -18.329   7.666  0.00  0.00    +0.042 C 
ATOM     29  C   LIG    1       29.969 -17.463  10.723  0.00  0.00    +0.049 A 
ATOM     30  C   LIG    1       31.149 -19.482   7.266  0.00  0.00    +0.052 C 
ENDBRANCH  19  20
BRANCH  19  31
ATOM     31  O   LIG    1       29.442 -21.323   6.545  0.00  0.00    -0.387 OA
ATOM     32  H   LIG    1       30.153 -21.502   7.190  0.00  0.00    +0.210 HD
ENDBRANCH  19  31
ENDBRANCH  18  19
ENDBRANCH   1  18
TORSDOF 8
ENDMDL
MODEL 7
REMARK VINA RESULT:      -9.6      1.485      8.934
REMARK  Name = *****
REMARK                            x       y       z     vdW  Elec       q    Type
REMARK                         _______ _______ _______ _____ _____    ______ ____
ROOT
ATOM      1  N   LIG    1       28.750 -21.632   8.342  0.00  0.00    -0.311 NA
ATOM      2  H   LIG    1       28.625 -22.379   9.038  0.00  0.00    +0.122 HD
ENDROOT
BRANCH   1   3
ATOM      3  C   LIG    1       30.164 -21.578   7.932  0.00  0.00    +0.115 C 
BRANCH   3   4
ATOM      4  C   LIG    1       31.021 -20.606   8.783  0.00  0.00    +0.169 C 
BRANCH   4   5
ATOM      5  C   LIG    1       31.201 -19.201   8.146  0.00  0.00    +0.203 C 
ATOM      6  O   LIG    1       32.269 -18.461   8.759  0.00  0.00    -0.486 OA
ATOM      7  C   LIG    1       31.943 -17.682   9.837  0.00  0.00    +0.124 A 
ATOM      8  C   LIG    1       30.633 -17.336  10.182  0.00  0.00    -0.003 A 
ATOM      9  C   LIG    1       30.418 -16.535  11.316  0.00  0.00    +0.045 A 
ATOM     10  C   LIG    1       31.503 -16.089  12.058  0.00  0.00    +0.124 A 
ATOM     11  C   LIG    1       32.803 -16.423  11.713  0.00  0.00    +0.042 A 
ATOM     12  F   LIG    1       31.287 -15.314  13.136  0.00  0.00    -0.205 F 
ATOM     13  C   LIG    1       29.463 -17.837   9.389  0.00  0.00    +0.042 C 
ATOM     14  C   LIG    1       33.025 -17.228  10.593  0.00  0.00    +0.049 A 
ATOM     15  C   LIG    1       29.923 -18.361   8.039  0.00  0.00    +0.052 C 
ENDBRANCH   4   5
BRANCH   4  16
ATOM     16  O   LIG    1       32.274 -21.237   9.062  0.00  0.00    -0.387 OA
ATOM     17  H   LIG    1       32.839 -20.525   9.424  0.00  0.00    +0.210 HD
ENDBRANCH   4  16
ENDBRANCH   3   4
ENDBRANCH   1   3
BRANCH   1  18
ATOM     18  C   LIG    1       27.869 -21.915   7.198  0.00  0.00    +0.115 C 
BRANCH  18  19
ATOM     19  C   LIG    1       26.496 -22.476   7.648  0.00  0.00    +0.169 C 
BRANCH  19  20
ATOM     20  C   LIG    1       25.351 -21.480   7.331  0.00  0.00    +0.203 C 
ATOM     21  O   LIG    1       25.594 -20.967   6.006  0.00  0.00    -0.486 OA
ATOM     22  C   LIG    1       24.559 -20.287   5.422  0.00  0.00    +0.124 A 
ATOM     23  C   LIG    1       23.238 -20.338   5.882  0.00  0.00    -0.003 A 
ATOM     24  C   LIG    1       22.248 -19.628   5.188  0.00  0.00    +0.045 A 
ATOM     25  C   LIG    1       22.584 -18.904   4.050  0.00  0.00    +0.124 A 
ATOM     26  C   LIG    1       23.892 -18.860   3.585  0.00  0.00    +0.042 A 
ATOM     27  F   LIG    1       21.627 -18.241   3.384  0.00  0.00    -0.205 F 
ATOM     28  C   LIG    1       22.890 -21.119   7.115  0.00  0.00    +0.042 C 
ATOM     29  C   LIG    1       24.885 -19.558   4.276  0.00  0.00    +0.049 A 
ATOM     30  C   LIG    1       23.974 -22.148   7.420  0.00  0.00    +0.052 C 
ENDBRANCH  19  20
BRANCH  19  31
ATOM     31  O   LIG    1       26.256 -23.728   6.980  0.00  0.00    -0.387 OA
ATOM     32  H   LIG    1       25.422 -24.078   7.348  0.00  0.00    +0.210 HD
ENDBRANCH  19  31
ENDBRANCH  18  19
ENDBRANCH   1  18
TORSDOF 8
ENDMDL
MODEL 8
REMARK VINA RESULT:      -9.6      6.603     10.130
REMARK  Name = *****
REMARK                            x       y       z     vdW  Elec       q    Type
REMARK                         _______ _______ _______ _____ _____    ______ ____
ROOT
ATOM      1  N   LIG    1       23.929 -26.669   5.310  0.00  0.00    -0.311 NA
ATOM      2  H   LIG    1       24.143 -26.307   4.371  0.00  0.00    +0.122 HD
ENDROOT
BRANCH   1   3
ATOM      3  C   LIG    1       24.825 -27.796   5.615  0.00  0.00    +0.115 C 
BRANCH   3   4
ATOM      4  C   LIG    1       24.116 -28.980   6.323  0.00  0.00    +0.169 C 
BRANCH   4   5
ATOM      5  C   LIG    1       25.088 -30.003   6.971  0.00  0.00    +0.203 C 
ATOM      6  O   LIG    1       24.673 -31.360   6.750  0.00  0.00    -0.486 OA
ATOM      7  C   LIG    1       23.833 -31.909   7.681  0.00  0.00    +0.124 A 
ATOM      8  C   LIG    1       23.602 -31.359   8.945  0.00  0.00    -0.003 A 
ATOM      9  C   LIG    1       22.712 -32.008   9.817  0.00  0.00    +0.045 A 
ATOM     10  C   LIG    1       22.097 -33.188   9.418  0.00  0.00    +0.124 A 
ATOM     11  C   LIG    1       22.332 -33.740   8.170  0.00  0.00    +0.042 A 
ATOM     12  F   LIG    1       21.255 -33.806  10.265  0.00  0.00    -0.205 F 
ATOM     13  C   LIG    1       24.253 -30.074   9.363  0.00  0.00    +0.042 C 
ATOM     14  C   LIG    1       23.207 -33.094   7.292  0.00  0.00    +0.049 A 
ATOM     15  C   LIG    1       25.420 -29.748   8.445  0.00  0.00    +0.052 C 
ENDBRANCH   4   5
BRANCH   4  16
ATOM     16  O   LIG    1       23.228 -29.596   5.386  0.00  0.00    -0.387 OA
ATOM     17  H   LIG    1       23.365 -30.558   5.506  0.00  0.00    +0.210 HD
ENDBRANCH   4  16
ENDBRANCH   3   4
ENDBRANCH   1   3
BRANCH   1  18
ATOM     18  C   LIG    1       24.098 -25.571   6.277  0.00  0.00    +0.115 C 
BRANCH  18  19
ATOM     19  C   LIG    1       25.196 -24.571   5.832  0.00  0.00    +0.169 C 
BRANCH  19  20
ATOM     20  C   LIG    1       24.761 -23.106   6.094  0.00  0.00    +0.203 C 
ATOM     21  O   LIG    1       24.685 -22.453   4.811  0.00  0.00    -0.486 OA
ATOM     22  C   LIG    1       24.051 -21.239   4.788  0.00  0.00    +0.124 A 
ATOM     23  C   LIG    1       23.233 -20.770   5.822  0.00  0.00    -0.003 A 
ATOM     24  C   LIG    1       22.606 -19.524   5.680  0.00  0.00    +0.045 A 
ATOM     25  C   LIG    1       22.787 -18.786   4.517  0.00  0.00    +0.124 A 
ATOM     26  C   LIG    1       23.590 -19.254   3.485  0.00  0.00    +0.042 A 
ATOM     27  F   LIG    1       22.170 -17.602   4.384  0.00  0.00    -0.205 F 
ATOM     28  C   LIG    1       23.050 -21.575   7.075  0.00  0.00    +0.042 C 
ATOM     29  C   LIG    1       24.225 -20.490   3.622  0.00  0.00    +0.049 A 
ATOM     30  C   LIG    1       23.418 -23.035   6.830  0.00  0.00    +0.052 C 
ENDBRANCH  19  20
BRANCH  19  31
ATOM     31  O   LIG    1       26.413 -24.857   6.546  0.00  0.00    -0.387 OA
ATOM     32  H   LIG    1       26.201 -24.754   7.494  0.00  0.00    +0.210 HD
ENDBRANCH  19  31
ENDBRANCH  18  19
ENDBRANCH   1  18
TORSDOF 8
ENDMDL
MODEL 9
REMARK VINA RESULT:      -9.5      5.844      9.034
REMARK  Name = *****
REMARK                            x       y       z     vdW  Elec       q    Type
REMARK                         _______ _______ _______ _____ _____    ______ ____
ROOT
ATOM      1  N   LIG    1       24.564 -27.064   5.845  0.00  0.00    -0.311 NA
ATOM      2  H   LIG    1       23.840 -27.414   6.486  0.00  0.00    +0.122 HD
ENDROOT
BRANCH   1   3
ATOM      3  C   LIG    1       25.380 -26.052   6.537  0.00  0.00    +0.115 C 
BRANCH   3   4
ATOM      4  C   LIG    1       25.357 -24.661   5.850  0.00  0.00    +0.169 C 
BRANCH   4   5
ATOM      5  C   LIG    1       24.671 -23.552   6.695  0.00  0.00    +0.203 C 
ATOM      6  O   LIG    1       23.802 -22.728   5.903  0.00  0.00    -0.486 OA
ATOM      7  C   LIG    1       24.360 -21.623   5.317  0.00  0.00    +0.124 A 
ATOM      8  C   LIG    1       25.606 -21.096   5.673  0.00  0.00    -0.003 A 
ATOM      9  C   LIG    1       26.082 -19.960   4.998  0.00  0.00    +0.045 A 
ATOM     10  C   LIG    1       25.303 -19.372   4.009  0.00  0.00    +0.124 A 
ATOM     11  C   LIG    1       24.065 -19.887   3.661  0.00  0.00    +0.042 A 
ATOM     12  F   LIG    1       25.764 -18.279   3.376  0.00  0.00    -0.205 F 
ATOM     13  C   LIG    1       26.451 -21.747   6.728  0.00  0.00    +0.042 C 
ATOM     14  C   LIG    1       23.589 -21.023   4.321  0.00  0.00    +0.049 A 
ATOM     15  C   LIG    1       25.616 -22.708   7.558  0.00  0.00    +0.052 C 
ENDBRANCH   4   5
BRANCH   4  16
ATOM     16  O   LIG    1       24.756 -24.807   4.561  0.00  0.00    -0.387 OA
ATOM     17  H   LIG    1       25.302 -24.253   3.966  0.00  0.00    +0.210 HD
ENDBRANCH   4  16
ENDBRANCH   3   4
ENDBRANCH   1   3
BRANCH   1  18
ATOM     18  C   LIG    1       25.383 -28.206   5.406  0.00  0.00    +0.115 C 
BRANCH  18  19
ATOM     19  C   LIG    1       24.681 -29.561   5.677  0.00  0.00    +0.169 C 
BRANCH  19  20
ATOM     20  C   LIG    1       24.977 -30.069   7.112  0.00  0.00    +0.203 C 
ATOM     21  O   LIG    1       25.684 -29.014   7.794  0.00  0.00    -0.486 OA
ATOM     22  C   LIG    1       25.796 -29.142   9.153  0.00  0.00    +0.124 A 
ATOM     23  C   LIG    1       25.025 -30.027   9.915  0.00  0.00    -0.003 A 
ATOM     24  C   LIG    1       25.198 -30.054  11.307  0.00  0.00    +0.045 A 
ATOM     25  C   LIG    1       26.111 -29.196  11.908  0.00  0.00    +0.124 A 
ATOM     26  C   LIG    1       26.869 -28.310  11.154  0.00  0.00    +0.042 A 
ATOM     27  F   LIG    1       26.258 -29.218  13.241  0.00  0.00    -0.205 F 
ATOM     28  C   LIG    1       24.047 -30.952   9.253  0.00  0.00    +0.042 C 
ATOM     29  C   LIG    1       26.709 -28.282   9.767  0.00  0.00    +0.049 A 
ATOM     30  C   LIG    1       23.693 -30.446   7.858  0.00  0.00    +0.052 C 
ENDBRANCH  19  20
BRANCH  19  31
ATOM     31  O   LIG    1       23.262 -29.402   5.496  0.00  0.00    -0.387 OA
ATOM     32  H   LIG    1       23.093 -29.536   4.544  0.00  0.00    +0.210 HD
ENDBRANCH  19  31
ENDBRANCH  18  19
ENDBRANCH   1  18
TORSDOF 8
ENDMDL
