MODEL 1
REMARK VINA RESULT:      21.1      0.000      0.000
REMARK  Name = *****
REMARK                            x       y       z     vdW  Elec       q    Type
REMARK                         _______ _______ _______ _____ _____    ______ ____
ROOT
ATOM      1  C   LIG    1       26.343 -16.852   3.002  0.00  0.00    +0.240 C 
ENDROOT
BRANCH   1   2
ATOM      2  O   LIG    1       25.912 -18.527   2.775  0.00  0.00    -0.456 OA
BRANCH   2   3
ATOM      3  C   LIG    1       24.936 -19.576   2.944  0.00  0.00    +0.307 C 
ATOM      4  O   LIG    1       23.949 -19.736   2.218  0.00  0.00    -0.251 OA
BRANCH   3   5
ATOM      5  C   LIG    1       25.235 -20.915   3.971  0.00  0.00    +0.120 C 
BRANCH   5   6
ATOM      6  C   LIG    1       24.812 -21.134   5.493  0.00  0.00    +0.011 C 
BRANCH   6   7
ATOM      7  C   LIG    1       24.620 -19.814   6.271  0.00  0.00    +0.000 C 
BRANCH   7   8
ATOM      8  C   LIG    1       23.237 -20.075   6.670  0.00  0.00    +0.000 C 
BRANCH   8   9
ATOM      9  C   LIG    1       22.446 -21.231   6.439  0.00  0.00    -0.000 C 
BRANCH   9  10
ATOM     10  C   LIG    1       21.777 -21.447   4.735  0.00  0.00    -0.000 C 
BRANCH  10  11
ATOM     11  C   LIG    1       21.199 -20.894   3.432  0.00  0.00    -0.000 C 
BRANCH  11  12
ATOM     12  C   LIG    1       19.793 -20.369   3.320  0.00  0.00    -0.000 C 
BRANCH  12  13
ATOM     13  C   LIG    1       19.619 -18.906   3.572  0.00  0.00    -0.000 C 
BRANCH  13  14
ATOM     14  C   LIG    1       19.353 -17.896   2.514  0.00  0.00    -0.000 C 
BRANCH  14  15
ATOM     15  C   LIG    1       20.675 -17.587   1.888  0.00  0.00    -0.000 C 
BRANCH  15  16
ATOM     16  C   LIG    1       21.795 -17.727   2.880  0.00  0.00    -0.000 C 
BRANCH  16  17
ATOM     17  C   LIG    1       21.200 -18.058   4.241  0.00  0.00    -0.000 C 
BRANCH  17  18
ATOM     18  C   LIG    1       22.290 -18.430   5.250  0.00  0.00    -0.003 C 
ATOM     19  C   LIG    1       22.712 -17.248   6.085  0.00  0.00    +0.004 C 
ENDBRANCH  17  18
ENDBRANCH  16  17
ENDBRANCH  15  16
ENDBRANCH  14  15
ENDBRANCH  13  14
ENDBRANCH  12  13
ENDBRANCH  11  12
ENDBRANCH  10  11
ENDBRANCH   9  10
ENDBRANCH   8   9
ENDBRANCH   7   8
ENDBRANCH   6   7
ENDBRANCH   5   6
ENDBRANCH   3   5
ENDBRANCH   2   3
ENDBRANCH   1   2
BRANCH   1  20
ATOM     20  C   LIG    1       27.788 -16.496   3.868  0.00  0.00    +0.279 C 
BRANCH  20  21
ATOM     21  O   LIG    1       28.981 -15.551   3.619  0.00  0.00    -0.461 OA
BRANCH  21  22
ATOM     22  C   LIG    1       28.954 -14.205   3.239  0.00  0.00    +0.307 C 
ATOM     23  O   LIG    1       28.692 -13.864   2.086  0.00  0.00    -0.251 OA
BRANCH  22  24
ATOM     24  C   LIG    1       29.070 -13.132   4.429  0.00  0.00    +0.120 C 
BRANCH  24  25
ATOM     25  C   LIG    1       27.858 -12.211   4.927  0.00  0.00    +0.011 C 
BRANCH  25  26
ATOM     26  C   LIG    1       26.519 -12.912   5.318  0.00  0.00    +0.000 C 
BRANCH  26  27
ATOM     27  C   LIG    1       26.534 -14.444   5.739  0.00  0.00    +0.000 C 
BRANCH  27  28
ATOM     28  C   LIG    1       27.390 -14.677   7.043  0.00  0.00    -0.000 C 
BRANCH  28  29
ATOM     29  C   LIG    1       28.748 -15.458   6.951  0.00  0.00    -0.000 C 
BRANCH  29  30
ATOM     30  C   LIG    1       28.589 -16.923   6.372  0.00  0.00    -0.000 C 
BRANCH  30  31
ATOM     31  C   LIG    1       29.474 -18.007   7.057  0.00  0.00    -0.000 C 
BRANCH  31  32
ATOM     32  C   LIG    1       29.278 -19.517   6.649  0.00  0.00    -0.000 C 
BRANCH  32  33
ATOM     33  C   LIG    1       28.596 -19.780   5.290  0.00  0.00    -0.000 C 
BRANCH  33  34
ATOM     34  C   LIG    1       27.085 -20.188   5.279  0.00  0.00    -0.000 C 
BRANCH  34  35
ATOM     35  C   LIG    1       26.084 -19.144   5.808  0.00  0.00    -0.000 C 
BRANCH  35  36
ATOM     36  C   LIG    1       26.373 -17.664   5.433  0.00  0.00    -0.000 C 
BRANCH  36  38
ATOM     37  C   LIG    1       26.481 -15.831   3.667  0.00  0.00    +0.004 C 
ATOM     38  C   LIG    1       26.389 -17.336   3.933  0.00  0.00    -0.003 C 
ENDBRANCH  36  38
ENDBRANCH  35  36
ENDBRANCH  34  35
ENDBRANCH  33  34
ENDBRANCH  32  33
ENDBRANCH  31  32
ENDBRANCH  30  31
ENDBRANCH  29  30
ENDBRANCH  28  29
ENDBRANCH  27  28
ENDBRANCH  26  27
ENDBRANCH  25  26
ENDBRANCH  24  25
ENDBRANCH  22  24
ENDBRANCH  21  22
ENDBRANCH  20  21
ENDBRANCH   1  20
BRANCH   1  39
ATOM     39  C   LIG    1       25.047 -15.421   2.963  0.00  0.00    +0.220 C 
BRANCH  39  40
ATOM     40  O   LIG    1       23.520 -15.109   3.767  0.00  0.00    -0.283 OA
BRANCH  40  41
ATOM     41  P   LIG    1       22.854 -14.714   5.329  0.00  0.00    +0.475 P 
ATOM     42  O   LIG    1       22.022 -15.540   6.219  0.00  0.00    -0.227 OA
BRANCH  41  43
ATOM     43  O   LIG    1       24.295 -14.429   6.030  0.00  0.00    -0.302 OA
ATOM     44  H   LIG    1       24.870 -15.142   6.368  0.00  0.00    +0.222 HD
ENDBRANCH  41  43
BRANCH  41  45
ATOM     45  O   LIG    1       22.261 -13.250   5.490  0.00  0.00    -0.281 OA
BRANCH  45  46
ATOM     46  C   LIG    1       23.024 -12.079   5.156  0.00  0.00    +0.223 C 
BRANCH  46  47
ATOM     47  C   LIG    1       24.208 -11.864   4.066  0.00  0.00    +0.161 C 
BRANCH  47  48
ATOM     48  N   LIG    1       24.075 -12.464   2.613  0.00  0.00    +0.238 N 
ATOM     49  C   LIG    1       23.224 -13.735   2.421  0.00  0.00    +0.192 C 
ATOM     50  C   LIG    1       25.408 -12.884   1.982  0.00  0.00    +0.192 C 
ATOM     51  C   LIG    1       23.266 -11.480   1.853  0.00  0.00    +0.192 C 
ENDBRANCH  47  48
ENDBRANCH  46  47
ENDBRANCH  45  46
ENDBRANCH  41  45
ENDBRANCH  40  41
ENDBRANCH  39  40
ENDBRANCH   1  39
TORSDOF 41
ENDMDL
MODEL 2
REMARK VINA RESULT:      21.4      2.315      5.695
REMARK  Name = *****
REMARK                            x       y       z     vdW  Elec       q    Type
REMARK                         _______ _______ _______ _____ _____    ______ ____
ROOT
ATOM      1  C   LIG    1       24.297 -14.820   5.171  0.00  0.00    +0.240 C 
ENDROOT
BRANCH   1   2
ATOM      2  O   LIG    1       22.831 -14.949   4.234  0.00  0.00    -0.456 OA
BRANCH   2   3
ATOM      3  C   LIG    1       22.210 -15.047   2.936  0.00  0.00    +0.307 C 
ATOM      4  O   LIG    1       22.483 -14.322   1.974  0.00  0.00    -0.251 OA
BRANCH   3   5
ATOM      5  C   LIG    1       21.267 -16.411   2.500  0.00  0.00    +0.120 C 
BRANCH   5   6
ATOM      6  C   LIG    1       21.160 -17.833   3.214  0.00  0.00    +0.011 C 
BRANCH   6   7
ATOM      7  C   LIG    1       19.722 -18.195   3.642  0.00  0.00    +0.000 C 
BRANCH   7   8
ATOM      8  C   LIG    1       19.757 -19.570   3.141  0.00  0.00    +0.000 C 
BRANCH   8   9
ATOM      9  C   LIG    1       19.414 -20.772   3.814  0.00  0.00    -0.000 C 
BRANCH   9  10
ATOM     10  C   LIG    1       20.738 -21.557   4.828  0.00  0.00    -0.000 C 
BRANCH  10  11
ATOM     11  C   LIG    1       22.056 -21.504   5.602  0.00  0.00    -0.000 C 
BRANCH  11  12
ATOM     12  C   LIG    1       22.560 -20.256   6.273  0.00  0.00    -0.000 C 
BRANCH  12  13
ATOM     13  C   LIG    1       22.168 -18.964   5.631  0.00  0.00    -0.000 C 
BRANCH  13  14
ATOM     14  C   LIG    1       21.814 -17.727   6.377  0.00  0.00    -0.000 C 
BRANCH  14  15
ATOM     15  C   LIG    1       21.948 -16.599   5.404  0.00  0.00    -0.000 C 
BRANCH  15  16
ATOM     16  C   LIG    1       22.287 -15.312   6.103  0.00  0.00    -0.000 C 
BRANCH  16  17
ATOM     17  C   LIG    1       20.992 -14.580   6.424  0.00  0.00    -0.000 C 
BRANCH  17  18
ATOM     18  C   LIG    1       21.269 -13.192   7.011  0.00  0.00    -0.003 C 
ATOM     19  C   LIG    1       22.160 -12.369   6.116  0.00  0.00    +0.004 C 
ENDBRANCH  17  18
ENDBRANCH  16  17
ENDBRANCH  15  16
ENDBRANCH  14  15
ENDBRANCH  13  14
ENDBRANCH  12  13
ENDBRANCH  11  12
ENDBRANCH  10  11
ENDBRANCH   9  10
ENDBRANCH   8   9
ENDBRANCH   7   8
ENDBRANCH   6   7
ENDBRANCH   5   6
ENDBRANCH   3   5
ENDBRANCH   2   3
ENDBRANCH   1   2
BRANCH   1  20
ATOM     20  C   LIG    1       25.211 -13.366   5.051  0.00  0.00    +0.279 C 
BRANCH  20  21
ATOM     21  O   LIG    1       25.267 -12.217   4.022  0.00  0.00    -0.461 OA
BRANCH  21  22
ATOM     22  C   LIG    1       25.263 -12.305   2.626  0.00  0.00    +0.307 C 
ATOM     23  O   LIG    1       25.815 -11.458   1.924  0.00  0.00    -0.251 OA
BRANCH  22  24
ATOM     24  C   LIG    1       24.691 -13.671   2.006  0.00  0.00    +0.120 C 
BRANCH  24  25
ATOM     25  C   LIG    1       25.504 -15.051   1.974  0.00  0.00    +0.011 C 
BRANCH  25  26
ATOM     26  C   LIG    1       24.945 -16.250   2.802  0.00  0.00    +0.000 C 
BRANCH  26  27
ATOM     27  C   LIG    1       25.726 -17.635   2.794  0.00  0.00    +0.000 C 
BRANCH  27  28
ATOM     28  C   LIG    1       27.267 -17.431   3.058  0.00  0.00    -0.000 C 
BRANCH  28  29
ATOM     29  C   LIG    1       27.750 -16.236   3.954  0.00  0.00    -0.000 C 
BRANCH  29  30
ATOM     30  C   LIG    1       28.849 -15.335   3.254  0.00  0.00    -0.000 C 
BRANCH  30  31
ATOM     31  C   LIG    1       28.309 -14.346   2.178  0.00  0.00    -0.000 C 
BRANCH  31  32
ATOM     32  C   LIG    1       27.947 -12.874   2.612  0.00  0.00    -0.000 C 
BRANCH  32  33
ATOM     33  C   LIG    1       29.044 -12.088   3.359  0.00  0.00    -0.000 C 
BRANCH  33  34
ATOM     34  C   LIG    1       28.709 -11.492   4.768  0.00  0.00    -0.000 C 
BRANCH  34  35
ATOM     35  C   LIG    1       28.980 -12.398   5.983  0.00  0.00    -0.000 C 
BRANCH  35  36
ATOM     36  C   LIG    1       27.766 -12.684   6.910  0.00  0.00    -0.000 C 
BRANCH  36  38
ATOM     37  C   LIG    1       27.818 -14.939   5.724  0.00  0.00    +0.004 C 
ATOM     38  C   LIG    1       27.080 -14.046   6.726  0.00  0.00    -0.003 C 
ENDBRANCH  36  38
ENDBRANCH  35  36
ENDBRANCH  34  35
ENDBRANCH  33  34
ENDBRANCH  32  33
ENDBRANCH  31  32
ENDBRANCH  30  31
ENDBRANCH  29  30
ENDBRANCH  28  29
ENDBRANCH  27  28
ENDBRANCH  26  27
ENDBRANCH  25  26
ENDBRANCH  24  25
ENDBRANCH  22  24
ENDBRANCH  21  22
ENDBRANCH  20  21
ENDBRANCH   1  20
BRANCH   1  39
ATOM     39  C   LIG    1       25.296 -16.359   5.771  0.00  0.00    +0.220 C 
BRANCH  39  40
ATOM     40  O   LIG    1       26.637 -17.294   5.134  0.00  0.00    -0.283 OA
BRANCH  40  41
ATOM     41  P   LIG    1       27.969 -18.294   5.645  0.00  0.00    +0.475 P 
ATOM     42  O   LIG    1       29.002 -18.953   4.829  0.00  0.00    -0.227 OA
BRANCH  41  43
ATOM     43  O   LIG    1       28.653 -17.153   6.582  0.00  0.00    -0.302 OA
ATOM     44  H   LIG    1       29.577 -17.206   6.893  0.00  0.00    +0.222 HD
ENDBRANCH  41  43
BRANCH  41  45
ATOM     45  O   LIG    1       27.660 -19.341   6.799  0.00  0.00    -0.281 OA
BRANCH  45  46
ATOM     46  C   LIG    1       26.998 -20.589   6.535  0.00  0.00    +0.223 C 
BRANCH  46  47
ATOM     47  C   LIG    1       25.622 -20.909   5.735  0.00  0.00    +0.161 C 
BRANCH  47  48
ATOM     48  N   LIG    1       25.450 -20.461   4.231  0.00  0.00    +0.238 N 
ATOM     49  C   LIG    1       24.464 -19.320   3.916  0.00  0.00    +0.192 C 
ATOM     50  C   LIG    1       24.951 -21.571   3.298  0.00  0.00    +0.192 C 
ATOM     51  C   LIG    1       26.735 -19.817   3.863  0.00  0.00    +0.192 C 
ENDBRANCH  47  48
ENDBRANCH  46  47
ENDBRANCH  45  46
ENDBRANCH  41  45
ENDBRANCH  40  41
ENDBRANCH  39  40
ENDBRANCH   1  39
TORSDOF 41
ENDMDL
MODEL 3
REMARK VINA RESULT:      22.3      2.564      6.075
REMARK  Name = *****
REMARK                            x       y       z     vdW  Elec       q    Type
REMARK                         _______ _______ _______ _____ _____    ______ ____
ROOT
ATOM      1  C   LIG    1       25.753 -15.584   4.824  0.00  0.00    +0.240 C 
ENDROOT
BRANCH   1   2
ATOM      2  O   LIG    1       24.355 -15.962   3.852  0.00  0.00    -0.456 OA
BRANCH   2   3
ATOM      3  C   LIG    1       23.242 -15.487   3.066  0.00  0.00    +0.307 C 
ATOM      4  O   LIG    1       22.632 -16.169   2.236  0.00  0.00    -0.251 OA
BRANCH   3   5
ATOM      5  C   LIG    1       22.436 -14.026   3.454  0.00  0.00    +0.120 C 
BRANCH   5   6
ATOM      6  C   LIG    1       22.939 -12.802   4.347  0.00  0.00    +0.011 C 
BRANCH   6   7
ATOM      7  C   LIG    1       23.722 -11.742   3.544  0.00  0.00    +0.000 C 
BRANCH   7   8
ATOM      8  C   LIG    1       24.745 -11.506   4.564  0.00  0.00    +0.000 C 
BRANCH   8   9
ATOM      9  C   LIG    1       24.660 -11.693   5.969  0.00  0.00    -0.000 C 
BRANCH   9  10
ATOM     10  C   LIG    1       22.999 -11.461   6.734  0.00  0.00    -0.000 C 
BRANCH  10  11
ATOM     11  C   LIG    1       21.472 -11.533   6.693  0.00  0.00    -0.000 C 
BRANCH  11  12
ATOM     12  C   LIG    1       20.702 -12.773   7.060  0.00  0.00    -0.000 C 
BRANCH  12  13
ATOM     13  C   LIG    1       21.440 -14.066   6.923  0.00  0.00    -0.000 C 
BRANCH  13  14
ATOM     14  C   LIG    1       20.839 -15.328   6.416  0.00  0.00    -0.000 C 
BRANCH  14  15
ATOM     15  C   LIG    1       21.956 -16.318   6.331  0.00  0.00    -0.000 C 
BRANCH  15  16
ATOM     16  C   LIG    1       22.375 -16.548   4.906  0.00  0.00    -0.000 C 
BRANCH  16  17
ATOM     17  C   LIG    1       22.400 -18.046   4.643  0.00  0.00    -0.000 C 
BRANCH  17  18
ATOM     18  C   LIG    1       21.669 -18.396   3.343  0.00  0.00    -0.003 C 
ATOM     19  C   LIG    1       20.184 -18.160   3.452  0.00  0.00    +0.004 C 
ENDBRANCH  17  18
ENDBRANCH  16  17
ENDBRANCH  15  16
ENDBRANCH  14  15
ENDBRANCH  13  14
ENDBRANCH  12  13
ENDBRANCH  11  12
ENDBRANCH  10  11
ENDBRANCH   9  10
ENDBRANCH   8   9
ENDBRANCH   7   8
ENDBRANCH   6   7
ENDBRANCH   5   6
ENDBRANCH   3   5
ENDBRANCH   2   3
ENDBRANCH   1   2
BRANCH   1  20
ATOM     20  C   LIG    1       26.320 -13.958   4.831  0.00  0.00    +0.279 C 
BRANCH  20  21
ATOM     21  O   LIG    1       26.113 -12.747   3.898  0.00  0.00    -0.461 OA
BRANCH  21  22
ATOM     22  C   LIG    1       26.887 -12.358   2.800  0.00  0.00    +0.307 C 
ATOM     23  O   LIG    1       26.385 -11.823   1.812  0.00  0.00    -0.251 OA
BRANCH  22  24
ATOM     24  C   LIG    1       28.480 -12.452   2.990  0.00  0.00    +0.120 C 
BRANCH  24  25
ATOM     25  C   LIG    1       29.320 -11.519   3.984  0.00  0.00    +0.011 C 
BRANCH  25  26
ATOM     26  C   LIG    1       29.462 -11.974   5.470  0.00  0.00    +0.000 C 
BRANCH  26  27
ATOM     27  C   LIG    1       28.169 -12.046   6.392  0.00  0.00    +0.000 C 
BRANCH  27  28
ATOM     28  C   LIG    1       27.530 -13.488   6.380  0.00  0.00    -0.000 C 
BRANCH  28  29
ATOM     29  C   LIG    1       28.453 -14.747   6.546  0.00  0.00    -0.000 C 
BRANCH  29  30
ATOM     30  C   LIG    1       29.094 -15.236   5.183  0.00  0.00    -0.000 C 
BRANCH  30  31
ATOM     31  C   LIG    1       28.113 -15.955   4.209  0.00  0.00    -0.000 C 
BRANCH  31  32
ATOM     32  C   LIG    1       28.250 -15.692   2.660  0.00  0.00    -0.000 C 
BRANCH  32  33
ATOM     33  C   LIG    1       27.344 -14.593   2.066  0.00  0.00    -0.000 C 
BRANCH  33  34
ATOM     34  C   LIG    1       25.792 -14.769   2.170  0.00  0.00    -0.000 C 
BRANCH  34  35
ATOM     35  C   LIG    1       25.267 -16.210   2.301  0.00  0.00    -0.000 C 
BRANCH  35  36
ATOM     36  C   LIG    1       26.256 -17.340   1.899  0.00  0.00    -0.000 C 
BRANCH  36  38
ATOM     37  C   LIG    1       27.247 -19.111   3.439  0.00  0.00    +0.004 C 
ATOM     38  C   LIG    1       26.046 -18.699   2.584  0.00  0.00    -0.003 C 
ENDBRANCH  36  38
ENDBRANCH  35  36
ENDBRANCH  34  35
ENDBRANCH  33  34
ENDBRANCH  32  33
ENDBRANCH  31  32
ENDBRANCH  30  31
ENDBRANCH  29  30
ENDBRANCH  28  29
ENDBRANCH  27  28
ENDBRANCH  26  27
ENDBRANCH  25  26
ENDBRANCH  24  25
ENDBRANCH  22  24
ENDBRANCH  21  22
ENDBRANCH  20  21
ENDBRANCH   1  20
BRANCH   1  39
ATOM     39  C   LIG    1       27.068 -16.904   5.328  0.00  0.00    +0.220 C 
BRANCH  39  40
ATOM     40  O   LIG    1       27.253 -18.631   5.076  0.00  0.00    -0.283 OA
BRANCH  40  41
ATOM     41  P   LIG    1       27.400 -20.131   5.951  0.00  0.00    +0.475 P 
ATOM     42  O   LIG    1       27.748 -21.469   5.446  0.00  0.00    -0.227 OA
BRANCH  41  43
ATOM     43  O   LIG    1       28.569 -19.598   6.950  0.00  0.00    -0.302 OA
ATOM     44  H   LIG    1       28.806 -18.655   7.032  0.00  0.00    +0.222 HD
ENDBRANCH  41  43
BRANCH  41  45
ATOM     45  O   LIG    1       26.299 -20.407   7.061  0.00  0.00    -0.281 OA
BRANCH  45  46
ATOM     46  C   LIG    1       25.368 -21.497   6.954  0.00  0.00    +0.223 C 
BRANCH  46  47
ATOM     47  C   LIG    1       23.879 -21.555   6.310  0.00  0.00    +0.161 C 
BRANCH  47  48
ATOM     48  N   LIG    1       23.608 -20.976   4.867  0.00  0.00    +0.238 N 
ATOM     49  C   LIG    1       23.839 -19.472   4.627  0.00  0.00    +0.192 C 
ATOM     50  C   LIG    1       22.165 -21.152   4.380  0.00  0.00    +0.192 C 
ATOM     51  C   LIG    1       24.670 -21.553   4.006  0.00  0.00    +0.192 C 
ENDBRANCH  47  48
ENDBRANCH  46  47
ENDBRANCH  45  46
ENDBRANCH  41  45
ENDBRANCH  40  41
ENDBRANCH  39  40
ENDBRANCH   1  39
TORSDOF 41
ENDMDL
MODEL 4
REMARK VINA RESULT:      23.3      2.590      5.963
REMARK  Name = *****
REMARK                            x       y       z     vdW  Elec       q    Type
REMARK                         _______ _______ _______ _____ _____    ______ ____
ROOT
ATOM      1  C   LIG    1       25.566 -15.539   5.008  0.00  0.00    +0.240 C 
ENDROOT
BRANCH   1   2
ATOM      2  O   LIG    1       24.268 -16.224   4.066  0.00  0.00    -0.456 OA
BRANCH   2   3
ATOM      3  C   LIG    1       23.025 -16.023   3.362  0.00  0.00    +0.307 C 
ATOM      4  O   LIG    1       22.643 -16.712   2.410  0.00  0.00    -0.251 OA
BRANCH   3   5
ATOM      5  C   LIG    1       21.793 -15.016   3.997  0.00  0.00    +0.120 C 
BRANCH   5   6
ATOM      6  C   LIG    1       21.926 -13.649   4.809  0.00  0.00    +0.011 C 
BRANCH   6   7
ATOM      7  C   LIG    1       22.169 -12.422   3.905  0.00  0.00    +0.000 C 
BRANCH   7   8
ATOM      8  C   LIG    1       23.038 -11.713   4.846  0.00  0.00    +0.000 C 
BRANCH   8   9
ATOM      9  C   LIG    1       23.121 -11.849   6.257  0.00  0.00    -0.000 C 
BRANCH   9  10
ATOM     10  C   LIG    1       21.836 -12.897   7.062  0.00  0.00    -0.000 C 
BRANCH  10  11
ATOM     11  C   LIG    1       20.698 -13.918   7.009  0.00  0.00    -0.000 C 
BRANCH  11  12
ATOM     12  C   LIG    1       20.934 -15.403   6.996  0.00  0.00    -0.000 C 
BRANCH  12  13
ATOM     13  C   LIG    1       21.132 -16.023   5.651  0.00  0.00    -0.000 C 
BRANCH  13  14
ATOM     14  C   LIG    1       21.870 -17.291   5.409  0.00  0.00    -0.000 C 
BRANCH  14  15
ATOM     15  C   LIG    1       20.924 -18.195   4.686  0.00  0.00    -0.000 C 
BRANCH  15  16
ATOM     16  C   LIG    1       21.505 -18.664   3.382  0.00  0.00    -0.000 C 
BRANCH  16  17
ATOM     17  C   LIG    1       20.807 -19.954   2.976  0.00  0.00    -0.000 C 
BRANCH  17  18
ATOM     18  C   LIG    1       19.492 -20.139   3.739  0.00  0.00    -0.003 C 
ATOM     19  C   LIG    1       19.723 -20.402   5.205  0.00  0.00    +0.004 C 
ENDBRANCH  17  18
ENDBRANCH  16  17
ENDBRANCH  15  16
ENDBRANCH  14  15
ENDBRANCH  13  14
ENDBRANCH  12  13
ENDBRANCH  11  12
ENDBRANCH  10  11
ENDBRANCH   9  10
ENDBRANCH   8   9
ENDBRANCH   7   8
ENDBRANCH   6   7
ENDBRANCH   5   6
ENDBRANCH   3   5
ENDBRANCH   2   3
ENDBRANCH   1   2
BRANCH   1  20
ATOM     20  C   LIG    1       25.708 -13.824   5.068  0.00  0.00    +0.279 C 
BRANCH  20  21
ATOM     21  O   LIG    1       25.010 -12.665   4.326  0.00  0.00    -0.461 OA
BRANCH  21  22
ATOM     22  C   LIG    1       24.929 -12.444   2.947  0.00  0.00    +0.307 C 
ATOM     23  O   LIG    1       24.368 -11.452   2.484  0.00  0.00    -0.251 OA
BRANCH  22  24
ATOM     24  C   LIG    1       25.788 -13.437   2.022  0.00  0.00    +0.120 C 
BRANCH  24  25
ATOM     25  C   LIG    1       27.371 -13.321   1.812  0.00  0.00    +0.011 C 
BRANCH  25  26
ATOM     26  C   LIG    1       28.291 -13.517   3.057  0.00  0.00    +0.000 C 
BRANCH  26  27
ATOM     27  C   LIG    1       29.475 -12.490   3.323  0.00  0.00    +0.000 C 
BRANCH  27  28
ATOM     28  C   LIG    1       29.105 -11.465   4.464  0.00  0.00    -0.000 C 
BRANCH  28  29
ATOM     29  C   LIG    1       29.237 -11.897   5.968  0.00  0.00    -0.000 C 
BRANCH  29  30
ATOM     30  C   LIG    1       28.157 -12.968   6.407  0.00  0.00    -0.000 C 
BRANCH  30  31
ATOM     31  C   LIG    1       27.394 -13.659   5.237  0.00  0.00    -0.000 C 
BRANCH  31  32
ATOM     32  C   LIG    1       27.778 -15.138   4.849  0.00  0.00    -0.000 C 
BRANCH  32  33
ATOM     33  C   LIG    1       27.490 -15.564   3.394  0.00  0.00    -0.000 C 
BRANCH  33  34
ATOM     34  C   LIG    1       27.789 -17.043   2.977  0.00  0.00    -0.000 C 
BRANCH  34  35
ATOM     35  C   LIG    1       26.641 -17.817   2.303  0.00  0.00    -0.000 C 
BRANCH  35  36
ATOM     36  C   LIG    1       25.872 -18.824   3.202  0.00  0.00    -0.000 C 
BRANCH  36  38
ATOM     37  C   LIG    1       23.528 -19.815   3.064  0.00  0.00    +0.004 C 
ATOM     38  C   LIG    1       24.943 -19.808   2.476  0.00  0.00    -0.003 C 
ENDBRANCH  36  38
ENDBRANCH  35  36
ENDBRANCH  34  35
ENDBRANCH  33  34
ENDBRANCH  32  33
ENDBRANCH  31  32
ENDBRANCH  30  31
ENDBRANCH  29  30
ENDBRANCH  28  29
ENDBRANCH  27  28
ENDBRANCH  26  27
ENDBRANCH  25  26
ENDBRANCH  24  25
ENDBRANCH  22  24
ENDBRANCH  21  22
ENDBRANCH  20  21
ENDBRANCH   1  20
BRANCH   1  39
ATOM     39  C   LIG    1       27.191 -16.501   5.411  0.00  0.00    +0.220 C 
BRANCH  39  40
ATOM     40  O   LIG    1       27.814 -18.097   5.032  0.00  0.00    -0.283 OA
BRANCH  40  41
ATOM     41  P   LIG    1       28.225 -19.616   5.782  0.00  0.00    +0.475 P 
ATOM     42  O   LIG    1       28.620 -20.886   5.150  0.00  0.00    -0.227 OA
BRANCH  41  43
ATOM     43  O   LIG    1       29.469 -19.018   6.642  0.00  0.00    -0.302 OA
ATOM     44  H   LIG    1       29.366 -18.296   7.291  0.00  0.00    +0.222 HD
ENDBRANCH  41  43
BRANCH  41  45
ATOM     45  O   LIG    1       27.325 -20.058   7.013  0.00  0.00    -0.281 OA
BRANCH  45  46
ATOM     46  C   LIG    1       26.586 -21.291   7.011  0.00  0.00    +0.223 C 
BRANCH  46  47
ATOM     47  C   LIG    1       24.986 -21.565   7.052  0.00  0.00    +0.161 C 
BRANCH  47  48
ATOM     48  N   LIG    1       24.019 -20.803   6.065  0.00  0.00    +0.238 N 
ATOM     49  C   LIG    1       22.607 -20.436   6.561  0.00  0.00    +0.192 C 
ATOM     50  C   LIG    1       23.706 -21.572   4.775  0.00  0.00    +0.192 C 
ATOM     51  C   LIG    1       24.607 -19.451   5.901  0.00  0.00    +0.192 C 
ENDBRANCH  47  48
ENDBRANCH  46  47
ENDBRANCH  45  46
ENDBRANCH  41  45
ENDBRANCH  40  41
ENDBRANCH  39  40
ENDBRANCH   1  39
TORSDOF 41
ENDMDL
MODEL 5
REMARK VINA RESULT:      23.5      2.057      6.045
REMARK  Name = *****
REMARK                            x       y       z     vdW  Elec       q    Type
REMARK                         _______ _______ _______ _____ _____    ______ ____
ROOT
ATOM      1  C   LIG    1       24.627 -16.776   3.186  0.00  0.00    +0.240 C 
ENDROOT
BRANCH   1   2
ATOM      2  O   LIG    1       23.001 -16.154   3.300  0.00  0.00    -0.456 OA
BRANCH   2   3
ATOM      3  C   LIG    1       21.598 -16.419   3.504  0.00  0.00    +0.307 C 
ATOM      4  O   LIG    1       20.844 -16.889   2.645  0.00  0.00    -0.251 OA
BRANCH   3   5
ATOM      5  C   LIG    1       20.911 -16.424   5.073  0.00  0.00    +0.120 C 
BRANCH   5   6
ATOM      6  C   LIG    1       21.011 -17.534   6.215  0.00  0.00    +0.011 C 
BRANCH   6   7
ATOM      7  C   LIG    1       22.365 -17.529   6.956  0.00  0.00    +0.000 C 
BRANCH   7   8
ATOM      8  C   LIG    1       22.553 -16.077   6.915  0.00  0.00    +0.000 C 
BRANCH   8   9
ATOM      9  C   LIG    1       21.782 -15.099   6.234  0.00  0.00    -0.000 C 
BRANCH   9  10
ATOM     10  C   LIG    1       22.705 -13.676   5.513  0.00  0.00    -0.000 C 
BRANCH  10  11
ATOM     11  C   LIG    1       23.172 -12.220   5.534  0.00  0.00    -0.000 C 
BRANCH  11  12
ATOM     12  C   LIG    1       23.517 -11.454   4.286  0.00  0.00    -0.000 C 
BRANCH  12  13
ATOM     13  C   LIG    1       22.826 -11.895   3.036  0.00  0.00    -0.000 C 
BRANCH  13  14
ATOM     14  C   LIG    1       23.524 -12.389   1.818  0.00  0.00    -0.000 C 
BRANCH  14  15
ATOM     15  C   LIG    1       24.633 -13.267   2.299  0.00  0.00    -0.000 C 
BRANCH  15  16
ATOM     16  C   LIG    1       24.838 -13.128   3.782  0.00  0.00    -0.000 C 
BRANCH  16  17
ATOM     17  C   LIG    1       25.149 -14.500   4.360  0.00  0.00    -0.000 C 
BRANCH  17  18
ATOM     18  C   LIG    1       26.543 -14.534   4.995  0.00  0.00    -0.003 C 
ATOM     19  C   LIG    1       26.786 -15.815   5.752  0.00  0.00    +0.004 C 
ENDBRANCH  17  18
ENDBRANCH  16  17
ENDBRANCH  15  16
ENDBRANCH  14  15
ENDBRANCH  13  14
ENDBRANCH  12  13
ENDBRANCH  11  12
ENDBRANCH  10  11
ENDBRANCH   9  10
ENDBRANCH   8   9
ENDBRANCH   7   8
ENDBRANCH   6   7
ENDBRANCH   5   6
ENDBRANCH   3   5
ENDBRANCH   2   3
ENDBRANCH   1   2
BRANCH   1  20
ATOM     20  C   LIG    1       25.172 -17.853   4.415  0.00  0.00    +0.279 C 
BRANCH  20  21
ATOM     21  O   LIG    1       24.816 -19.303   4.803  0.00  0.00    -0.461 OA
BRANCH  21  22
ATOM     22  C   LIG    1       24.459 -19.798   6.062  0.00  0.00    +0.307 C 
ATOM     23  O   LIG    1       23.282 -19.948   6.387  0.00  0.00    -0.251 OA
BRANCH  22  24
ATOM     24  C   LIG    1       25.663 -20.358   6.967  0.00  0.00    +0.120 C 
BRANCH  24  25
ATOM     25  C   LIG    1       26.620 -21.567   6.537  0.00  0.00    +0.011 C 
BRANCH  25  26
ATOM     26  C   LIG    1       28.128 -21.482   6.929  0.00  0.00    +0.000 C 
BRANCH  26  27
ATOM     27  C   LIG    1       29.078 -20.464   6.162  0.00  0.00    +0.000 C 
BRANCH  27  28
ATOM     28  C   LIG    1       28.349 -19.094   5.880  0.00  0.00    -0.000 C 
BRANCH  28  29
ATOM     29  C   LIG    1       28.469 -18.428   4.464  0.00  0.00    -0.000 C 
BRANCH  29  30
ATOM     30  C   LIG    1       27.095 -17.854   3.925  0.00  0.00    -0.000 C 
BRANCH  30  31
ATOM     31  C   LIG    1       26.547 -18.544   2.640  0.00  0.00    -0.000 C 
BRANCH  31  32
ATOM     32  C   LIG    1       26.881 -20.064   2.392  0.00  0.00    -0.000 C 
BRANCH  32  33
ATOM     33  C   LIG    1       25.734 -21.068   2.625  0.00  0.00    -0.000 C 
BRANCH  33  34
ATOM     34  C   LIG    1       24.261 -20.584   2.404  0.00  0.00    -0.000 C 
BRANCH  34  35
ATOM     35  C   LIG    1       23.186 -21.202   3.317  0.00  0.00    -0.000 C 
BRANCH  35  36
ATOM     36  C   LIG    1       21.849 -20.419   3.430  0.00  0.00    -0.000 C 
BRANCH  36  38
ATOM     37  C   LIG    1       21.507 -21.562   5.681  0.00  0.00    +0.004 C 
ATOM     38  C   LIG    1       20.831 -20.958   4.446  0.00  0.00    -0.003 C 
ENDBRANCH  36  38
ENDBRANCH  35  36
ENDBRANCH  34  35
ENDBRANCH  33  34
ENDBRANCH  32  33
ENDBRANCH  31  32
ENDBRANCH  30  31
ENDBRANCH  29  30
ENDBRANCH  28  29
ENDBRANCH  27  28
ENDBRANCH  26  27
ENDBRANCH  25  26
ENDBRANCH  24  25
ENDBRANCH  22  24
ENDBRANCH  21  22
ENDBRANCH  20  21
ENDBRANCH   1  20
BRANCH   1  39
ATOM     39  C   LIG    1       26.032 -15.868   2.222  0.00  0.00    +0.220 C 
BRANCH  39  40
ATOM     40  O   LIG    1       27.077 -14.498   2.552  0.00  0.00    -0.283 OA
BRANCH  40  41
ATOM     41  P   LIG    1       28.682 -14.108   3.110  0.00  0.00    +0.475 P 
ATOM     42  O   LIG    1       29.351 -14.502   4.361  0.00  0.00    -0.227 OA
BRANCH  41  43
ATOM     43  O   LIG    1       29.442 -14.785   1.842  0.00  0.00    -0.302 OA
ATOM     44  H   LIG    1       30.393 -15.008   1.851  0.00  0.00    +0.222 HD
ENDBRANCH  41  43
BRANCH  41  45
ATOM     45  O   LIG    1       29.169 -12.617   2.862  0.00  0.00    -0.281 OA
BRANCH  45  46
ATOM     46  C   LIG    1       28.747 -11.530   3.703  0.00  0.00    +0.223 C 
BRANCH  46  47
ATOM     47  C   LIG    1       28.525 -11.460   5.309  0.00  0.00    +0.161 C 
BRANCH  47  48
ATOM     48  N   LIG    1       27.376 -12.298   5.994  0.00  0.00    +0.238 N 
ATOM     49  C   LIG    1       26.456 -13.148   5.097  0.00  0.00    +0.192 C 
ATOM     50  C   LIG    1       26.359 -11.452   6.771  0.00  0.00    +0.192 C 
ATOM     51  C   LIG    1       28.068 -13.364   6.759  0.00  0.00    +0.192 C 
ENDBRANCH  47  48
ENDBRANCH  46  47
ENDBRANCH  45  46
ENDBRANCH  41  45
ENDBRANCH  40  41
ENDBRANCH  39  40
ENDBRANCH   1  39
TORSDOF 41
ENDMDL
MODEL 6
REMARK VINA RESULT:      23.5      2.533      6.820
REMARK  Name = *****
REMARK                            x       y       z     vdW  Elec       q    Type
REMARK                         _______ _______ _______ _____ _____    ______ ____
ROOT
ATOM      1  C   LIG    1       23.874 -16.623   3.094  0.00  0.00    +0.240 C 
ENDROOT
BRANCH   1   2
ATOM      2  O   LIG    1       24.397 -15.344   2.029  0.00  0.00    -0.456 OA
BRANCH   2   3
ATOM      3  C   LIG    1       24.619 -13.934   1.822  0.00  0.00    +0.307 C 
ATOM      4  O   LIG    1       23.732 -13.074   1.856  0.00  0.00    -0.251 OA
BRANCH   3   5
ATOM      5  C   LIG    1       26.198 -13.268   1.846  0.00  0.00    +0.120 C 
BRANCH   5   6
ATOM      6  C   LIG    1       26.696 -11.872   2.439  0.00  0.00    +0.011 C 
BRANCH   6   7
ATOM      7  C   LIG    1       28.227 -11.693   2.374  0.00  0.00    +0.000 C 
BRANCH   7   8
ATOM      8  C   LIG    1       28.514 -12.398   3.624  0.00  0.00    +0.000 C 
BRANCH   8   9
ATOM      9  C   LIG    1       27.900 -12.243   4.895  0.00  0.00    -0.000 C 
BRANCH   9  10
ATOM     10  C   LIG    1       26.129 -11.730   4.899  0.00  0.00    -0.000 C 
BRANCH  10  11
ATOM     11  C   LIG    1       24.732 -11.708   5.519  0.00  0.00    -0.000 C 
BRANCH  11  12
ATOM     12  C   LIG    1       23.604 -12.570   5.023  0.00  0.00    -0.000 C 
BRANCH  12  13
ATOM     13  C   LIG    1       23.463 -13.906   5.680  0.00  0.00    -0.000 C 
BRANCH  13  14
ATOM     14  C   LIG    1       22.928 -14.117   7.051  0.00  0.00    -0.000 C 
BRANCH  14  15
ATOM     15  C   LIG    1       22.136 -15.384   7.000  0.00  0.00    -0.000 C 
BRANCH  15  16
ATOM     16  C   LIG    1       21.673 -15.684   5.601  0.00  0.00    -0.000 C 
BRANCH  16  17
ATOM     17  C   LIG    1       21.998 -14.489   4.717  0.00  0.00    -0.000 C 
BRANCH  17  18
ATOM     18  C   LIG    1       22.489 -14.935   3.336  0.00  0.00    -0.003 C 
ATOM     19  C   LIG    1       21.403 -14.837   2.294  0.00  0.00    +0.004 C 
ENDBRANCH  17  18
ENDBRANCH  16  17
ENDBRANCH  15  16
ENDBRANCH  14  15
ENDBRANCH  13  14
ENDBRANCH  12  13
ENDBRANCH  11  12
ENDBRANCH  10  11
ENDBRANCH   9  10
ENDBRANCH   8   9
ENDBRANCH   7   8
ENDBRANCH   6   7
ENDBRANCH   5   6
ENDBRANCH   3   5
ENDBRANCH   2   3
ENDBRANCH   1   2
BRANCH   1  20
ATOM     20  C   LIG    1       25.047 -17.351   4.124  0.00  0.00    +0.279 C 
BRANCH  20  21
ATOM     21  O   LIG    1       24.993 -17.977   5.532  0.00  0.00    -0.461 OA
BRANCH  21  22
ATOM     22  C   LIG    1       24.479 -19.223   5.907  0.00  0.00    +0.307 C 
ATOM     23  O   LIG    1       23.270 -19.411   6.034  0.00  0.00    -0.251 OA
BRANCH  22  24
ATOM     24  C   LIG    1       25.531 -20.437   5.949  0.00  0.00    +0.120 C 
BRANCH  24  25
ATOM     25  C   LIG    1       26.677 -20.591   7.058  0.00  0.00    +0.011 C 
BRANCH  25  26
ATOM     26  C   LIG    1       27.923 -21.463   6.706  0.00  0.00    +0.000 C 
BRANCH  26  27
ATOM     27  C   LIG    1       28.744 -21.152   5.382  0.00  0.00    +0.000 C 
BRANCH  27  28
ATOM     28  C   LIG    1       29.226 -19.651   5.339  0.00  0.00    -0.000 C 
BRANCH  28  29
ATOM     29  C   LIG    1       28.846 -18.680   6.512  0.00  0.00    -0.000 C 
BRANCH  29  30
ATOM     30  C   LIG    1       29.227 -17.171   6.224  0.00  0.00    -0.000 C 
BRANCH  30  31
ATOM     31  C   LIG    1       28.320 -16.444   5.187  0.00  0.00    -0.000 C 
BRANCH  31  32
ATOM     32  C   LIG    1       28.360 -16.912   3.682  0.00  0.00    -0.000 C 
BRANCH  32  33
ATOM     33  C   LIG    1       27.582 -16.045   2.670  0.00  0.00    -0.000 C 
BRANCH  33  34
ATOM     34  C   LIG    1       26.390 -15.175   3.194  0.00  0.00    -0.000 C 
BRANCH  34  35
ATOM     35  C   LIG    1       26.598 -14.457   4.540  0.00  0.00    -0.000 C 
BRANCH  35  36
ATOM     36  C   LIG    1       26.790 -15.370   5.783  0.00  0.00    -0.000 C 
BRANCH  36  38
ATOM     37  C   LIG    1       28.092 -13.398   6.734  0.00  0.00    +0.004 C 
ATOM     38  C   LIG    1       27.328 -14.687   7.048  0.00  0.00    -0.003 C 
ENDBRANCH  36  38
ENDBRANCH  35  36
ENDBRANCH  34  35
ENDBRANCH  33  34
ENDBRANCH  32  33
ENDBRANCH  31  32
ENDBRANCH  30  31
ENDBRANCH  29  30
ENDBRANCH  28  29
ENDBRANCH  27  28
ENDBRANCH  26  27
ENDBRANCH  25  26
ENDBRANCH  24  25
ENDBRANCH  22  24
ENDBRANCH  21  22
ENDBRANCH  20  21
ENDBRANCH   1  20
BRANCH   1  39
ATOM     39  C   LIG    1       22.316 -17.709   2.743  0.00  0.00    +0.220 C 
BRANCH  39  40
ATOM     40  O   LIG    1       21.298 -18.764   3.706  0.00  0.00    -0.283 OA
BRANCH  40  41
ATOM     41  P   LIG    1       21.235 -20.380   4.356  0.00  0.00    +0.475 P 
ATOM     42  O   LIG    1       21.790 -20.895   5.618  0.00  0.00    -0.227 OA
BRANCH  41  43
ATOM     43  O   LIG    1       19.610 -20.453   4.399  0.00  0.00    -0.302 OA
ATOM     44  H   LIG    1       19.102 -21.179   3.992  0.00  0.00    +0.222 HD
ENDBRANCH  41  43
BRANCH  41  45
ATOM     45  O   LIG    1       21.461 -21.563   3.321  0.00  0.00    -0.281 OA
BRANCH  45  46
ATOM     46  C   LIG    1       22.258 -21.395   2.137  0.00  0.00    +0.223 C 
BRANCH  46  47
ATOM     47  C   LIG    1       23.471 -20.366   1.816  0.00  0.00    +0.161 C 
BRANCH  47  48
ATOM     48  N   LIG    1       24.813 -20.429   2.645  0.00  0.00    +0.238 N 
ATOM     49  C   LIG    1       26.136 -20.636   1.882  0.00  0.00    +0.192 C 
ATOM     50  C   LIG    1       24.864 -21.568   3.671  0.00  0.00    +0.192 C 
ATOM     51  C   LIG    1       25.016 -19.057   3.171  0.00  0.00    +0.192 C 
ENDBRANCH  47  48
ENDBRANCH  46  47
ENDBRANCH  45  46
ENDBRANCH  41  45
ENDBRANCH  40  41
ENDBRANCH  39  40
ENDBRANCH   1  39
TORSDOF 41
ENDMDL
