MODEL 1
REMARK VINA RESULT:      -3.8      0.000      0.000
REMARK  Name = *****
REMARK                            x       y       z     vdW  Elec       q    Type
REMARK                         _______ _______ _______ _____ _____    ______ ____
ROOT
ATOM      1  C   LIG    1       26.691 -19.752   5.145  0.00  0.00    +0.156 A 
ATOM      2  C   LIG    1       25.442 -19.404   4.608  0.00  0.00    +0.115 A 
ATOM      3  C   LIG    1       24.281 -19.956   5.195  0.00  0.00    +0.022 A 
ATOM      4  C   LIG    1       23.036 -19.574   4.644  0.00  0.00    +0.013 A 
ATOM      5  C   LIG    1       22.971 -18.687   3.576  0.00  0.00    +0.020 A 
ATOM      6  C   LIG    1       24.157 -18.207   3.073  0.00  0.00    +0.111 A 
ATOM      7  C   LIG    1       24.418 -20.842   6.293  0.00  0.00    +0.051 A 
ATOM      8 CL   LIG    1       23.045 -21.572   7.062  0.00  0.00    -0.083 Cl
ATOM      9  C   LIG    1       25.671 -21.165   6.815  0.00  0.00    +0.038 A 
ATOM     10  N   LIG    1       25.366 -18.550   3.560  0.00  0.00    -0.251 NA
ATOM     11  C   LIG    1       26.808 -20.616   6.241  0.00  0.00    +0.058 A 
ATOM     12  I   LIG    1       28.669 -21.097   7.061  0.00  0.00    -0.040 I 
ENDROOT
BRANCH   1  13
ATOM     13  O   LIG    1       27.820 -19.212   4.566  0.00  0.00    -0.504 OA
ATOM     14  H   LIG    1       28.557 -19.290   5.194  0.00  0.00    +0.292 HD
ENDBRANCH   1  13
TORSDOF 1
ENDMDL
MODEL 2
REMARK VINA RESULT:      -3.2      3.545      4.832
REMARK  Name = *****
REMARK                            x       y       z     vdW  Elec       q    Type
REMARK                         _______ _______ _______ _____ _____    ______ ____
ROOT
ATOM      1  C   LIG    1       23.905 -20.691   5.473  0.00  0.00    +0.156 A 
ATOM      2  C   LIG    1       25.276 -20.672   5.777  0.00  0.00    +0.115 A 
ATOM      3  C   LIG    1       26.109 -19.774   5.072  0.00  0.00    +0.022 A 
ATOM      4  C   LIG    1       27.481 -19.765   5.412  0.00  0.00    +0.013 A 
ATOM      5  C   LIG    1       27.975 -20.603   6.403  0.00  0.00    +0.020 A 
ATOM      6  C   LIG    1       27.085 -21.444   7.030  0.00  0.00    +0.111 A 
ATOM      7  C   LIG    1       25.536 -18.934   4.083  0.00  0.00    +0.051 A 
ATOM      8 CL   LIG    1       26.489 -17.814   3.165  0.00  0.00    -0.083 Cl
ATOM      9  C   LIG    1       24.169 -18.965   3.806  0.00  0.00    +0.038 A 
ATOM     10  N   LIG    1       25.771 -21.492   6.733  0.00  0.00    -0.251 NA
ATOM     11  C   LIG    1       23.353 -19.843   4.505  0.00  0.00    +0.058 A 
ATOM     12  I   LIG    1       21.305 -19.847   4.087  0.00  0.00    -0.040 I 
ENDROOT
BRANCH   1  13
ATOM     13  O   LIG    1       23.100 -21.572   6.162  0.00  0.00    -0.504 OA
ATOM     14  H   LIG    1       23.562 -21.846   6.971  0.00  0.00    +0.292 HD
ENDBRANCH   1  13
TORSDOF 1
ENDMDL
MODEL 3
REMARK VINA RESULT:      -2.0      3.507      4.309
REMARK  Name = *****
REMARK                            x       y       z     vdW  Elec       q    Type
REMARK                         _______ _______ _______ _____ _____    ______ ____
ROOT
ATOM      1  C   LIG    1       25.631 -17.130   3.357  0.00  0.00    +0.156 A 
ATOM      2  C   LIG    1       24.735 -18.155   3.701  0.00  0.00    +0.115 A 
ATOM      3  C   LIG    1       23.494 -17.799   4.275  0.00  0.00    +0.022 A 
ATOM      4  C   LIG    1       22.606 -18.851   4.595  0.00  0.00    +0.013 A 
ATOM      5  C   LIG    1       22.949 -20.174   4.344  0.00  0.00    +0.020 A 
ATOM      6  C   LIG    1       24.181 -20.418   3.786  0.00  0.00    +0.111 A 
ATOM      7  C   LIG    1       23.201 -16.428   4.489  0.00  0.00    +0.051 A 
ATOM      8 CL   LIG    1       21.707 -15.908   5.198  0.00  0.00    -0.083 Cl
ATOM      9  C   LIG    1       24.104 -15.426   4.130  0.00  0.00    +0.038 A 
ATOM     10  N   LIG    1       25.062 -19.448   3.472  0.00  0.00    -0.251 NA
ATOM     11  C   LIG    1       25.319 -15.780   3.560  0.00  0.00    +0.058 A 
ATOM     12  I   LIG    1       26.639 -14.257   3.007  0.00  0.00    -0.040 I 
ENDROOT
BRANCH   1  13
ATOM     13  O   LIG    1       26.841 -17.484   2.801  0.00  0.00    -0.504 OA
ATOM     14  H   LIG    1       26.879 -18.453   2.735  0.00  0.00    +0.292 HD
ENDBRANCH   1  13
TORSDOF 1
ENDMDL
MODEL 4
REMARK VINA RESULT:      -1.9      3.690      4.662
REMARK  Name = *****
REMARK                            x       y       z     vdW  Elec       q    Type
REMARK                         _______ _______ _______ _____ _____    ______ ____
ROOT
ATOM      1  C   LIG    1       25.270 -17.560   3.358  0.00  0.00    +0.156 A 
ATOM      2  C   LIG    1       25.272 -16.162   3.487  0.00  0.00    +0.115 A 
ATOM      3  C   LIG    1       24.172 -15.545   4.125  0.00  0.00    +0.022 A 
ATOM      4  C   LIG    1       24.209 -14.137   4.254  0.00  0.00    +0.013 A 
ATOM      5  C   LIG    1       25.290 -13.406   3.778  0.00  0.00    +0.020 A 
ATOM      6  C   LIG    1       26.309 -14.098   3.168  0.00  0.00    +0.111 A 
ATOM      7  C   LIG    1       23.110 -16.353   4.603  0.00  0.00    +0.051 A 
ATOM      8 CL   LIG    1       21.719 -15.673   5.386  0.00  0.00    -0.083 Cl
ATOM      9  C   LIG    1       23.136 -17.742   4.472  0.00  0.00    +0.038 A 
ATOM     10  N   LIG    1       26.313 -15.437   3.015  0.00  0.00    -0.251 NA
ATOM     11  C   LIG    1       24.220 -18.345   3.851  0.00  0.00    +0.058 A 
ATOM     12  I   LIG    1       24.245 -20.429   3.694  0.00  0.00    -0.040 I 
ENDROOT
BRANCH   1  13
ATOM     13  O   LIG    1       26.344 -18.156   2.732  0.00  0.00    -0.504 OA
ATOM     14  H   LIG    1       26.114 -19.079   2.535  0.00  0.00    +0.292 HD
ENDBRANCH   1  13
TORSDOF 1
ENDMDL
MODEL 5
REMARK VINA RESULT:      -1.8      5.226      6.362
REMARK  Name = *****
REMARK                            x       y       z     vdW  Elec       q    Type
REMARK                         _______ _______ _______ _____ _____    ______ ____
ROOT
ATOM      1  C   LIG    1       25.067 -16.292   3.675  0.00  0.00    +0.156 A 
ATOM      2  C   LIG    1       25.945 -15.198   3.625  0.00  0.00    +0.115 A 
ATOM      3  C   LIG    1       25.457 -13.927   4.003  0.00  0.00    +0.022 A 
ATOM      4  C   LIG    1       26.368 -12.847   3.958  0.00  0.00    +0.013 A 
ATOM      5  C   LIG    1       27.685 -13.042   3.564  0.00  0.00    +0.020 A 
ATOM      6  C   LIG    1       28.064 -14.316   3.211  0.00  0.00    +0.111 A 
ATOM      7  C   LIG    1       24.105 -13.801   4.411  0.00  0.00    +0.051 A 
ATOM      8 CL   LIG    1       23.425 -12.276   4.879  0.00  0.00    -0.083 Cl
ATOM      9  C   LIG    1       23.254 -14.906   4.462  0.00  0.00    +0.038 A 
ATOM     10  N   LIG    1       27.228 -15.373   3.231  0.00  0.00    -0.251 NA
ATOM     11  C   LIG    1       23.739 -16.154   4.097  0.00  0.00    +0.058 A 
ATOM     12  I   LIG    1       22.450 -17.795   4.210  0.00  0.00    -0.040 I 
ENDROOT
BRANCH   1  13
ATOM     13  O   LIG    1       25.549 -17.529   3.302  0.00  0.00    -0.504 OA
ATOM     14  H   LIG    1       25.160 -18.201   3.885  0.00  0.00    +0.292 HD
ENDBRANCH   1  13
TORSDOF 1
ENDMDL
MODEL 6
REMARK VINA RESULT:      -1.3      5.716      6.812
REMARK  Name = *****
REMARK                            x       y       z     vdW  Elec       q    Type
REMARK                         _______ _______ _______ _____ _____    ______ ____
ROOT
ATOM      1  C   LIG    1       24.243 -14.386   4.093  0.00  0.00    +0.156 A 
ATOM      2  C   LIG    1       25.045 -15.509   3.835  0.00  0.00    +0.115 A 
ATOM      3  C   LIG    1       26.441 -15.324   3.717  0.00  0.00    +0.022 A 
ATOM      4  C   LIG    1       27.226 -16.474   3.473  0.00  0.00    +0.013 A 
ATOM      5  C   LIG    1       26.638 -17.727   3.364  0.00  0.00    +0.020 A 
ATOM      6  C   LIG    1       25.271 -17.804   3.489  0.00  0.00    +0.111 A 
ATOM      7  C   LIG    1       26.978 -14.018   3.856  0.00  0.00    +0.051 A 
ATOM      8 CL   LIG    1       28.678 -13.704   3.714  0.00  0.00    -0.083 Cl
ATOM      9  C   LIG    1       26.160 -12.920   4.123  0.00  0.00    +0.038 A 
ATOM     10  N   LIG    1       24.483 -16.734   3.714  0.00  0.00    -0.251 NA
ATOM     11  C   LIG    1       24.791 -13.107   4.245  0.00  0.00    +0.058 A 
ATOM     12  I   LIG    1       23.594 -11.447   4.672  0.00  0.00    -0.040 I 
ENDROOT
BRANCH   1  13
ATOM     13  O   LIG    1       22.881 -14.574   4.204  0.00  0.00    -0.504 OA
ATOM     14  H   LIG    1       22.697 -15.527   4.174  0.00  0.00    +0.292 HD
ENDBRANCH   1  13
TORSDOF 1
ENDMDL
MODEL 7
REMARK VINA RESULT:      -1.2      2.850      3.692
REMARK  Name = *****
REMARK                            x       y       z     vdW  Elec       q    Type
REMARK                         _______ _______ _______ _____ _____    ______ ____
ROOT
ATOM      1  C   LIG    1       24.410 -19.561   4.351  0.00  0.00    +0.156 A 
ATOM      2  C   LIG    1       25.702 -19.014   4.403  0.00  0.00    +0.115 A 
ATOM      3  C   LIG    1       26.659 -19.629   5.241  0.00  0.00    +0.022 A 
ATOM      4  C   LIG    1       27.956 -19.067   5.260  0.00  0.00    +0.013 A 
ATOM      5  C   LIG    1       28.265 -17.962   4.478  0.00  0.00    +0.020 A 
ATOM      6  C   LIG    1       27.264 -17.432   3.698  0.00  0.00    +0.111 A 
ATOM      7  C   LIG    1       26.281 -20.766   6.001  0.00  0.00    +0.051 A 
ATOM      8 CL   LIG    1       27.391 -21.572   7.062  0.00  0.00    -0.083 Cl
ATOM      9  C   LIG    1       24.993 -21.296   5.925  0.00  0.00    +0.038 A 
ATOM     10  N   LIG    1       26.012 -17.930   3.655  0.00  0.00    -0.251 NA
ATOM     11  C   LIG    1       24.058 -20.693   5.096  0.00  0.00    +0.058 A 
ATOM     12  I   LIG    1       22.145 -21.527   4.981  0.00  0.00    -0.040 I 
ENDROOT
BRANCH   1  13
ATOM     13  O   LIG    1       23.481 -18.953   3.534  0.00  0.00    -0.504 OA
ATOM     14  H   LIG    1       22.628 -19.404   3.648  0.00  0.00    +0.292 HD
ENDBRANCH   1  13
TORSDOF 1
ENDMDL
MODEL 8
REMARK VINA RESULT:      -1.1      4.285      4.983
REMARK  Name = *****
REMARK                            x       y       z     vdW  Elec       q    Type
REMARK                         _______ _______ _______ _____ _____    ______ ____
ROOT
ATOM      1  C   LIG    1       24.831 -14.919   4.004  0.00  0.00    +0.156 A 
ATOM      2  C   LIG    1       23.895 -15.952   4.171  0.00  0.00    +0.115 A 
ATOM      3  C   LIG    1       24.293 -17.275   3.873  0.00  0.00    +0.022 A 
ATOM      4  C   LIG    1       23.334 -18.296   4.067  0.00  0.00    +0.013 A 
ATOM      5  C   LIG    1       22.062 -17.998   4.538  0.00  0.00    +0.020 A 
ATOM      6  C   LIG    1       21.770 -16.680   4.797  0.00  0.00    +0.111 A 
ATOM      7  C   LIG    1       25.613 -17.510   3.411  0.00  0.00    +0.051 A 
ATOM      8 CL   LIG    1       26.176 -19.101   3.011  0.00  0.00    -0.083 Cl
ATOM      9  C   LIG    1       26.528 -16.468   3.262  0.00  0.00    +0.038 A 
ATOM     10  N   LIG    1       22.648 -15.674   4.619  0.00  0.00    -0.251 NA
ATOM     11  C   LIG    1       26.136 -15.171   3.562  0.00  0.00    +0.058 A 
ATOM     12  I   LIG    1       27.537 -13.634   3.356  0.00  0.00    -0.040 I 
ENDROOT
BRANCH   1  13
ATOM     13  O   LIG    1       24.435 -13.631   4.294  0.00  0.00    -0.504 OA
ATOM     14  H   LIG    1       23.898 -13.648   5.103  0.00  0.00    +0.292 HD
ENDBRANCH   1  13
TORSDOF 1
ENDMDL
MODEL 9
REMARK VINA RESULT:      -0.8      3.815      5.094
REMARK  Name = *****
REMARK                            x       y       z     vdW  Elec       q    Type
REMARK                         _______ _______ _______ _____ _____    ______ ____
ROOT
ATOM      1  C   LIG    1       27.567 -16.087   4.076  0.00  0.00    +0.156 A 
ATOM      2  C   LIG    1       27.896 -17.352   4.590  0.00  0.00    +0.115 A 
ATOM      3  C   LIG    1       26.982 -18.413   4.401  0.00  0.00    +0.022 A 
ATOM      4  C   LIG    1       27.347 -19.678   4.915  0.00  0.00    +0.013 A 
ATOM      5  C   LIG    1       28.558 -19.859   5.569  0.00  0.00    +0.020 A 
ATOM      6  C   LIG    1       29.379 -18.764   5.707  0.00  0.00    +0.111 A 
ATOM      7  C   LIG    1       25.769 -18.163   3.709  0.00  0.00    +0.051 A 
ATOM      8 CL   LIG    1       24.590 -19.406   3.444  0.00  0.00    -0.083 Cl
ATOM      9  C   LIG    1       25.470 -16.899   3.198  0.00  0.00    +0.038 A 
ATOM     10  N   LIG    1       29.068 -17.538   5.241  0.00  0.00    -0.251 NA
ATOM     11  C   LIG    1       26.373 -15.862   3.381  0.00  0.00    +0.058 A 
ATOM     12  I   LIG    1       25.910 -13.987   2.581  0.00  0.00    -0.040 I 
ENDROOT
BRANCH   1  13
ATOM     13  O   LIG    1       28.462 -15.057   4.268  0.00  0.00    -0.504 OA
ATOM     14  H   LIG    1       29.021 -15.270   5.033  0.00  0.00    +0.292 HD
ENDBRANCH   1  13
TORSDOF 1
ENDMDL
