MODEL 1
REMARK VINA RESULT:       0.3      0.000      0.000
REMARK  Name = *****
REMARK                            x       y       z     vdW  Elec       q    Type
REMARK                         _______ _______ _______ _____ _____    ______ ____
ROOT
ATOM      1  C   LIG    1       22.516 -16.261   4.750  0.00  0.00    +0.138 A 
ATOM      2  C   LIG    1       23.776 -15.788   4.407  0.00  0.00    +0.107 A 
ATOM      3  C   LIG    1       24.363 -14.473   4.511  0.00  0.00    +0.221 C 
ATOM      4  C   LIG    1       25.799 -14.578   3.991  0.00  0.00    +0.231 C 
ATOM      5  C   LIG    1       26.842 -14.308   5.102  0.00  0.00    +0.053 C 
ATOM      6  C   LIG    1       26.621 -13.002   5.880  0.00  0.00    +0.013 C 
ATOM      7  C   LIG    1       28.252 -14.319   4.494  0.00  0.00    +0.087 C 
ATOM      8  C   LIG    1       28.367 -13.345   3.344  0.00  0.00    +0.160 C 
ATOM      9  O   LIG    1       29.425 -12.788   3.064  0.00  0.00    -0.293 OA
ATOM     10  C   LIG    1       27.181 -13.120   2.481  0.00  0.00    +0.091 C 
ATOM     11  C   LIG    1       26.004 -13.714   2.747  0.00  0.00    +0.152 C 
ATOM     12  O   LIG    1       25.943 -15.969   3.576  0.00  0.00    -0.467 OA
ATOM     13  O   LIG    1       23.793 -13.479   4.931  0.00  0.00    -0.287 OA
ATOM     14  C   LIG    1       24.753 -16.597   3.857  0.00  0.00    +0.159 A 
ATOM     15  C   LIG    1       24.504 -17.941   3.625  0.00  0.00    +0.125 A 
ATOM     16 CL   LIG    1       25.740 -18.937   2.945  0.00  0.00    -0.076 Cl
ATOM     17  C   LIG    1       23.240 -18.465   3.958  0.00  0.00    +0.145 A 
ATOM     18  C   LIG    1       22.260 -17.616   4.512  0.00  0.00    +0.093 A 
ENDROOT
BRANCH   1  20
ATOM     19  C   LIG    1       21.646 -15.231   6.712  0.00  0.00    +0.277 C 
ATOM     20  O   LIG    1       21.636 -15.378   5.297  0.00  0.00    -0.494 OA
ENDBRANCH   1  20
BRANCH  11  21
ATOM     21  O   LIG    1       24.885 -13.627   1.936  0.00  0.00    -0.495 OA
ATOM     22  C   LIG    1       24.259 -12.354   1.815  0.00  0.00    +0.277 C 
ENDBRANCH  11  21
BRANCH  17  23
ATOM     23  O   LIG    1       23.042 -19.803   3.721  0.00  0.00    -0.493 OA
ATOM     24  C   LIG    1       22.726 -20.634   4.832  0.00  0.00    +0.277 C 
ENDBRANCH  17  23
TORSDOF 3
ENDMDL
MODEL 2
REMARK VINA RESULT:       1.0      2.177      4.156
REMARK  Name = *****
REMARK                            x       y       z     vdW  Elec       q    Type
REMARK                         _______ _______ _______ _____ _____    ______ ____
ROOT
ATOM      1  C   LIG    1       27.642 -18.127   4.416  0.00  0.00    +0.138 A 
ATOM      2  C   LIG    1       26.842 -17.042   4.082  0.00  0.00    +0.107 A 
ATOM      3  C   LIG    1       27.145 -15.635   3.958  0.00  0.00    +0.221 C 
ATOM      4  C   LIG    1       25.852 -14.931   3.539  0.00  0.00    +0.231 C 
ATOM      5  C   LIG    1       25.960 -14.308   2.125  0.00  0.00    +0.053 C 
ATOM      6  C   LIG    1       27.184 -13.404   1.919  0.00  0.00    +0.013 C 
ATOM      7  C   LIG    1       24.676 -13.526   1.813  0.00  0.00    +0.087 C 
ATOM      8  C   LIG    1       24.382 -12.495   2.877  0.00  0.00    +0.160 C 
ATOM      9  O   LIG    1       23.791 -11.447   2.626  0.00  0.00    -0.293 OA
ATOM     10  C   LIG    1       24.750 -12.799   4.283  0.00  0.00    +0.091 C 
ATOM     11  C   LIG    1       25.391 -13.936   4.603  0.00  0.00    +0.152 C 
ATOM     12  O   LIG    1       24.853 -15.992   3.482  0.00  0.00    -0.467 OA
ATOM     13  O   LIG    1       28.237 -15.130   4.164  0.00  0.00    -0.287 OA
ATOM     14  C   LIG    1       25.496 -17.166   3.791  0.00  0.00    +0.159 A 
ATOM     15  C   LIG    1       24.884 -18.410   3.820  0.00  0.00    +0.125 A 
ATOM     16 CL   LIG    1       23.203 -18.546   3.444  0.00  0.00    -0.076 Cl
ATOM     17  C   LIG    1       25.655 -19.539   4.152  0.00  0.00    +0.145 A 
ATOM     18  C   LIG    1       27.024 -19.383   4.451  0.00  0.00    +0.093 A 
ENDROOT
BRANCH   1  20
ATOM     19  C   LIG    1       29.473 -18.329   5.923  0.00  0.00    +0.277 C 
ATOM     20  O   LIG    1       28.957 -17.890   4.672  0.00  0.00    -0.494 OA
ENDBRANCH   1  20
BRANCH  11  21
ATOM     21  O   LIG    1       25.680 -14.329   5.899  0.00  0.00    -0.495 OA
ATOM     22  C   LIG    1       26.572 -13.511   6.651  0.00  0.00    +0.277 C 
ENDBRANCH  11  21
BRANCH  17  23
ATOM     23  O   LIG    1       25.009 -20.751   4.158  0.00  0.00    -0.493 OA
ATOM     24  C   LIG    1       24.746 -21.358   5.417  0.00  0.00    +0.277 C 
ENDBRANCH  17  23
TORSDOF 3
ENDMDL
