MODEL 1
REMARK VINA RESULT:      -6.9      0.000      0.000
REMARK  Name = *****
REMARK                            x       y       z     vdW  Elec       q    Type
REMARK                         _______ _______ _______ _____ _____    ______ ____
ROOT
ATOM      1  C   LIG    1       23.919 -22.086   6.452  0.00  0.00    +0.162 A 
ATOM      2  C   LIG    1       23.616 -21.006   5.595  0.00  0.00    +0.028 A 
ATOM      3  C   LIG    1       24.689 -20.233   5.088  0.00  0.00    +0.028 A 
ATOM      4  C   LIG    1       24.389 -19.117   4.265  0.00  0.00    +0.012 A 
ATOM      5  C   LIG    1       23.077 -18.790   3.919  0.00  0.00    +0.001 A 
ATOM      6  C   LIG    1       22.030 -19.568   4.385  0.00  0.00    +0.001 A 
ATOM      7  C   LIG    1       26.004 -20.612   5.434  0.00  0.00    +0.162 A 
ATOM      8  N   LIG    1       26.236 -21.659   6.257  0.00  0.00    -0.131 NA
ATOM      9  C   LIG    1       22.295 -20.661   5.212  0.00  0.00    +0.012 A 
ATOM     10  N   LIG    1       25.200 -22.400   6.753  0.00  0.00    -0.131 NA
ENDROOT
BRANCH   1  11
ATOM     11  N   LIG    1       22.863 -22.882   6.998  0.00  0.00    -0.266 N 
ATOM     12  H   LIG    1       22.825 -22.718   8.007  0.00  0.00    +0.168 HD
BRANCH  11  13
ATOM     13  N   LIG    1       22.848 -24.262   6.652  0.00  0.00    -0.255 NA
ATOM     14  H   LIG    1       22.362 -24.779   7.393  0.00  0.00    +0.140 HD
ATOM     15  H   LIG    1       22.247 -24.401   5.832  0.00  0.00    +0.140 HD
ENDBRANCH  11  13
ENDBRANCH   1  11
BRANCH   7  16
ATOM     16  N   LIG    1       27.118 -19.871   4.924  0.00  0.00    -0.266 N 
ATOM     17  H   LIG    1       27.096 -19.924   3.902  0.00  0.00    +0.168 HD
BRANCH  16  18
ATOM     18  N   LIG    1       28.396 -20.166   5.475  0.00  0.00    -0.255 NA
ATOM     19  H   LIG    1       28.277 -20.402   6.466  0.00  0.00    +0.140 HD
ATOM     20  H   LIG    1       28.750 -21.038   5.063  0.00  0.00    +0.140 HD
ENDBRANCH  16  18
ENDBRANCH   7  16
TORSDOF 4
ENDMDL
MODEL 2
REMARK VINA RESULT:      -6.8      0.069      3.810
REMARK  Name = *****
REMARK                            x       y       z     vdW  Elec       q    Type
REMARK                         _______ _______ _______ _____ _____    ______ ____
ROOT
ATOM      1  C   LIG    1       26.002 -20.574   5.374  0.00  0.00    +0.162 A 
ATOM      2  C   LIG    1       24.674 -20.216   5.055  0.00  0.00    +0.028 A 
ATOM      3  C   LIG    1       23.623 -21.001   5.587  0.00  0.00    +0.028 A 
ATOM      4  C   LIG    1       22.288 -20.676   5.233  0.00  0.00    +0.012 A 
ATOM      5  C   LIG    1       21.991 -19.590   4.408  0.00  0.00    +0.001 A 
ATOM      6  C   LIG    1       23.017 -18.799   3.916  0.00  0.00    +0.001 A 
ATOM      7  C   LIG    1       23.960 -22.074   6.443  0.00  0.00    +0.162 A 
ATOM      8  N   LIG    1       25.250 -22.369   6.716  0.00  0.00    -0.131 NA
ATOM      9  C   LIG    1       24.341 -19.108   4.235  0.00  0.00    +0.012 A 
ATOM     10  N   LIG    1       26.266 -21.616   6.196  0.00  0.00    -0.131 NA
ENDROOT
BRANCH   1  11
ATOM     11  N   LIG    1       27.093 -19.817   4.843  0.00  0.00    -0.266 N 
ATOM     12  H   LIG    1       27.043 -19.852   3.822  0.00  0.00    +0.168 HD
BRANCH  11  13
ATOM     13  N   LIG    1       28.389 -20.106   5.352  0.00  0.00    -0.255 NA
ATOM     14  H   LIG    1       28.639 -19.385   6.038  0.00  0.00    +0.140 HD
ATOM     15  H   LIG    1       28.350 -20.965   5.915  0.00  0.00    +0.140 HD
ENDBRANCH  11  13
ENDBRANCH   1  11
BRANCH   7  16
ATOM     16  N   LIG    1       22.926 -22.877   7.020  0.00  0.00    -0.266 N 
ATOM     17  H   LIG    1       22.971 -22.773   8.038  0.00  0.00    +0.168 HD
BRANCH  16  18
ATOM     18  N   LIG    1       22.851 -24.234   6.598  0.00  0.00    -0.255 NA
ATOM     19  H   LIG    1       22.507 -24.255   5.632  0.00  0.00    +0.140 HD
ATOM     20  H   LIG    1       23.801 -24.618   6.521  0.00  0.00    +0.140 HD
ENDBRANCH  16  18
ENDBRANCH   7  16
TORSDOF 4
ENDMDL
MODEL 3
REMARK VINA RESULT:      -6.8      1.945      4.911
REMARK  Name = *****
REMARK                            x       y       z     vdW  Elec       q    Type
REMARK                         _______ _______ _______ _____ _____    ______ ____
ROOT
ATOM      1  C   LIG    1       25.369 -20.190   4.718  0.00  0.00    +0.162 A 
ATOM      2  C   LIG    1       25.629 -20.635   6.033  0.00  0.00    +0.028 A 
ATOM      3  C   LIG    1       24.688 -21.499   6.644  0.00  0.00    +0.028 A 
ATOM      4  C   LIG    1       24.918 -21.912   7.982  0.00  0.00    +0.012 A 
ATOM      5  C   LIG    1       26.056 -21.519   8.687  0.00  0.00    +0.001 A 
ATOM      6  C   LIG    1       26.995 -20.703   8.076  0.00  0.00    +0.001 A 
ATOM      7  C   LIG    1       23.564 -21.901   5.890  0.00  0.00    +0.162 A 
ATOM      8  N   LIG    1       23.368 -21.445   4.632  0.00  0.00    -0.131 NA
ATOM      9  C   LIG    1       26.785 -20.266   6.767  0.00  0.00    +0.012 A 
ATOM     10  N   LIG    1       24.272 -20.604   4.044  0.00  0.00    -0.131 NA
ENDROOT
BRANCH   1  11
ATOM     11  N   LIG    1       26.287 -19.304   4.071  0.00  0.00    -0.266 N 
ATOM     12  H   LIG    1       26.959 -18.971   4.766  0.00  0.00    +0.168 HD
BRANCH  11  13
ATOM     13  N   LIG    1       25.729 -18.258   3.284  0.00  0.00    -0.255 NA
ATOM     14  H   LIG    1       26.074 -18.353   2.322  0.00  0.00    +0.140 HD
ATOM     15  H   LIG    1       24.717 -18.406   3.188  0.00  0.00    +0.140 HD
ENDBRANCH  11  13
ENDBRANCH   1  11
BRANCH   7  16
ATOM     16  N   LIG    1       22.602 -22.792   6.462  0.00  0.00    -0.266 N 
ATOM     17  H   LIG    1       22.358 -22.445   7.393  0.00  0.00    +0.168 HD
BRANCH  16  18
ATOM     18  N   LIG    1       22.915 -24.180   6.444  0.00  0.00    -0.255 NA
ATOM     19  H   LIG    1       22.714 -24.572   7.370  0.00  0.00    +0.140 HD
ATOM     20  H   LIG    1       22.253 -24.669   5.829  0.00  0.00    +0.140 HD
ENDBRANCH  16  18
ENDBRANCH   7  16
TORSDOF 4
ENDMDL
MODEL 4
REMARK VINA RESULT:      -6.8      1.945      3.248
REMARK  Name = *****
REMARK                            x       y       z     vdW  Elec       q    Type
REMARK                         _______ _______ _______ _____ _____    ______ ____
ROOT
ATOM      1  C   LIG    1       23.573 -21.917   5.903  0.00  0.00    +0.162 A 
ATOM      2  C   LIG    1       24.708 -21.523   6.644  0.00  0.00    +0.028 A 
ATOM      3  C   LIG    1       25.643 -20.658   6.026  0.00  0.00    +0.028 A 
ATOM      4  C   LIG    1       26.810 -20.297   6.748  0.00  0.00    +0.012 A 
ATOM      5  C   LIG    1       27.036 -20.743   8.051  0.00  0.00    +0.001 A 
ATOM      6  C   LIG    1       26.103 -21.560   8.669  0.00  0.00    +0.001 A 
ATOM      7  C   LIG    1       25.367 -20.202   4.719  0.00  0.00    +0.162 A 
ATOM      8  N   LIG    1       24.260 -20.609   4.057  0.00  0.00    -0.131 NA
ATOM      9  C   LIG    1       24.955 -21.946   7.975  0.00  0.00    +0.012 A 
ATOM     10  N   LIG    1       23.361 -21.452   4.650  0.00  0.00    -0.131 NA
ENDROOT
BRANCH   1  11
ATOM     11  N   LIG    1       22.612 -22.803   6.484  0.00  0.00    -0.266 N 
ATOM     12  H   LIG    1       22.376 -22.455   7.417  0.00  0.00    +0.168 HD
BRANCH  11  13
ATOM     13  N   LIG    1       22.918 -24.192   6.464  0.00  0.00    -0.255 NA
ATOM     14  H   LIG    1       22.418 -24.625   5.680  0.00  0.00    +0.140 HD
ATOM     15  H   LIG    1       23.906 -24.319   6.215  0.00  0.00    +0.140 HD
ENDBRANCH  11  13
ENDBRANCH   1  11
BRANCH   7  16
ATOM     16  N   LIG    1       26.274 -19.308   4.068  0.00  0.00    -0.266 N 
ATOM     17  H   LIG    1       26.930 -18.951   4.768  0.00  0.00    +0.168 HD
BRANCH  16  18
ATOM     18  N   LIG    1       25.704 -18.285   3.259  0.00  0.00    -0.255 NA
ATOM     19  H   LIG    1       26.117 -18.342   2.322  0.00  0.00    +0.140 HD
ATOM     20  H   LIG    1       24.712 -18.496   3.095  0.00  0.00    +0.140 HD
ENDBRANCH  16  18
ENDBRANCH   7  16
TORSDOF 4
ENDMDL
MODEL 5
REMARK VINA RESULT:      -6.8      4.623      6.053
REMARK  Name = *****
REMARK                            x       y       z     vdW  Elec       q    Type
REMARK                         _______ _______ _______ _____ _____    ______ ____
ROOT
ATOM      1  C   LIG    1       30.478 -19.904   7.216  0.00  0.00    +0.162 A 
ATOM      2  C   LIG    1       29.157 -20.372   7.048  0.00  0.00    +0.028 A 
ATOM      3  C   LIG    1       28.326 -19.709   6.113  0.00  0.00    +0.028 A 
ATOM      4  C   LIG    1       26.983 -20.144   5.974  0.00  0.00    +0.012 A 
ATOM      5  C   LIG    1       26.480 -21.221   6.704  0.00  0.00    +0.001 A 
ATOM      6  C   LIG    1       27.304 -21.894   7.593  0.00  0.00    +0.001 A 
ATOM      7  C   LIG    1       28.878 -18.643   5.369  0.00  0.00    +0.162 A 
ATOM      8  N   LIG    1       30.153 -18.239   5.569  0.00  0.00    -0.131 NA
ATOM      9  C   LIG    1       28.625 -21.475   7.763  0.00  0.00    +0.012 A 
ATOM     10  N   LIG    1       30.953 -18.873   6.478  0.00  0.00    -0.131 NA
ENDROOT
BRANCH   1  11
ATOM     11  N   LIG    1       31.345 -20.535   8.162  0.00  0.00    -0.266 N 
ATOM     12  H   LIG    1       30.928 -21.428   8.436  0.00  0.00    +0.168 HD
BRANCH  11  13
ATOM     13  N   LIG    1       31.773 -19.753   9.270  0.00  0.00    -0.255 NA
ATOM     14  H   LIG    1       31.953 -18.796   8.944  0.00  0.00    +0.140 HD
ATOM     15  H   LIG    1       30.993 -19.636   9.927  0.00  0.00    +0.140 HD
ENDBRANCH  11  13
ENDBRANCH   1  11
BRANCH   7  16
ATOM     16  N   LIG    1       28.079 -17.962   4.397  0.00  0.00    -0.266 N 
ATOM     17  H   LIG    1       28.320 -18.327   3.472  0.00  0.00    +0.168 HD
BRANCH  16  18
ATOM     18  N   LIG    1       28.066 -16.540   4.454  0.00  0.00    -0.255 NA
ATOM     19  H   LIG    1       29.007 -16.196   4.237  0.00  0.00    +0.140 HD
ATOM     20  H   LIG    1       27.494 -16.175   3.682  0.00  0.00    +0.140 HD
ENDBRANCH  16  18
ENDBRANCH   7  16
TORSDOF 4
ENDMDL
MODEL 6
REMARK VINA RESULT:      -6.7      4.865      6.316
REMARK  Name = *****
REMARK                            x       y       z     vdW  Elec       q    Type
REMARK                         _______ _______ _______ _____ _____    ______ ____
ROOT
ATOM      1  C   LIG    1       29.575 -19.006   5.789  0.00  0.00    +0.162 A 
ATOM      2  C   LIG    1       28.749 -19.891   6.515  0.00  0.00    +0.028 A 
ATOM      3  C   LIG    1       29.317 -20.592   7.606  0.00  0.00    +0.028 A 
ATOM      4  C   LIG    1       28.505 -21.518   8.311  0.00  0.00    +0.012 A 
ATOM      5  C   LIG    1       27.166 -21.725   7.977  0.00  0.00    +0.001 A 
ATOM      6  C   LIG    1       26.600 -21.011   6.933  0.00  0.00    +0.001 A 
ATOM      7  C   LIG    1       30.666 -20.335   7.934  0.00  0.00    +0.162 A 
ATOM      8  N   LIG    1       31.409 -19.474   7.205  0.00  0.00    -0.131 NA
ATOM      9  C   LIG    1       27.381 -20.107   6.211  0.00  0.00    +0.012 A 
ATOM     10  N   LIG    1       30.864 -18.803   6.146  0.00  0.00    -0.131 NA
ENDROOT
BRANCH   1  11
ATOM     11  N   LIG    1       29.045 -18.290   4.670  0.00  0.00    -0.266 N 
ATOM     12  H   LIG    1       29.727 -18.331   3.909  0.00  0.00    +0.168 HD
BRANCH  11  13
ATOM     13  N   LIG    1       28.556 -16.977   4.915  0.00  0.00    -0.255 NA
ATOM     14  H   LIG    1       28.653 -16.774   5.916  0.00  0.00    +0.140 HD
ATOM     15  H   LIG    1       29.180 -16.293   4.473  0.00  0.00    +0.140 HD
ENDBRANCH  11  13
ENDBRANCH   1  11
BRANCH   7  16
ATOM     16  N   LIG    1       31.271 -21.006   9.044  0.00  0.00    -0.266 N 
ATOM     17  H   LIG    1       31.795 -20.315   9.588  0.00  0.00    +0.168 HD
BRANCH  16  18
ATOM     18  N   LIG    1       32.019 -22.181   8.759  0.00  0.00    -0.255 NA
ATOM     19  H   LIG    1       31.397 -22.863   8.312  0.00  0.00    +0.140 HD
ATOM     20  H   LIG    1       32.711 -21.974   8.027  0.00  0.00    +0.140 HD
ENDBRANCH  16  18
ENDBRANCH   7  16
TORSDOF 4
ENDMDL
MODEL 7
REMARK VINA RESULT:      -6.6      2.513      3.510
REMARK  Name = *****
REMARK                            x       y       z     vdW  Elec       q    Type
REMARK                         _______ _______ _______ _____ _____    ______ ____
ROOT
ATOM      1  C   LIG    1       26.990 -20.883   7.019  0.00  0.00    +0.162 A 
ATOM      2  C   LIG    1       25.613 -21.005   6.730  0.00  0.00    +0.028 A 
ATOM      3  C   LIG    1       25.125 -20.415   5.539  0.00  0.00    +0.028 A 
ATOM      4  C   LIG    1       23.735 -20.492   5.266  0.00  0.00    +0.012 A 
ATOM      5  C   LIG    1       22.855 -21.161   6.118  0.00  0.00    +0.001 A 
ATOM      6  C   LIG    1       23.338 -21.770   7.265  0.00  0.00    +0.001 A 
ATOM      7  C   LIG    1       26.049 -19.773   4.685  0.00  0.00    +0.162 A 
ATOM      8  N   LIG    1       27.359 -19.690   5.012  0.00  0.00    -0.131 NA
ATOM      9  C   LIG    1       24.699 -21.693   7.567  0.00  0.00    +0.012 A 
ATOM     10  N   LIG    1       27.829 -20.252   6.166  0.00  0.00    -0.131 NA
ENDROOT
BRANCH   1  11
ATOM     11  N   LIG    1       27.520 -21.451   8.219  0.00  0.00    -0.266 N 
ATOM     12  H   LIG    1       26.976 -21.099   9.011  0.00  0.00    +0.168 HD
BRANCH  11  13
ATOM     13  N   LIG    1       28.926 -21.352   8.416  0.00  0.00    -0.255 NA
ATOM     14  H   LIG    1       29.149 -20.389   8.692  0.00  0.00    +0.140 HD
ATOM     15  H   LIG    1       29.195 -21.903   9.239  0.00  0.00    +0.140 HD
ENDBRANCH  11  13
ENDBRANCH   1  11
BRANCH   7  16
ATOM     16  N   LIG    1       25.601 -19.184   3.461  0.00  0.00    -0.266 N 
ATOM     17  H   LIG    1       25.773 -19.850   2.703  0.00  0.00    +0.168 HD
BRANCH  16  18
ATOM     18  N   LIG    1       26.062 -17.870   3.170  0.00  0.00    -0.255 NA
ATOM     19  H   LIG    1       27.082 -17.899   3.064  0.00  0.00    +0.140 HD
ATOM     20  H   LIG    1       25.733 -17.594   2.236  0.00  0.00    +0.140 HD
ENDBRANCH  16  18
ENDBRANCH   7  16
TORSDOF 4
ENDMDL
MODEL 8
REMARK VINA RESULT:      -6.6      2.517      3.874
REMARK  Name = *****
REMARK                            x       y       z     vdW  Elec       q    Type
REMARK                         _______ _______ _______ _____ _____    ______ ____
ROOT
ATOM      1  C   LIG    1       26.050 -19.781   4.693  0.00  0.00    +0.162 A 
ATOM      2  C   LIG    1       25.128 -20.425   5.547  0.00  0.00    +0.028 A 
ATOM      3  C   LIG    1       25.619 -21.019   6.734  0.00  0.00    +0.028 A 
ATOM      4  C   LIG    1       24.707 -21.710   7.573  0.00  0.00    +0.012 A 
ATOM      5  C   LIG    1       23.346 -21.785   7.273  0.00  0.00    +0.001 A 
ATOM      6  C   LIG    1       22.859 -21.173   6.129  0.00  0.00    +0.001 A 
ATOM      7  C   LIG    1       26.996 -20.896   7.021  0.00  0.00    +0.162 A 
ATOM      8  N   LIG    1       27.833 -20.264   6.168  0.00  0.00    -0.131 NA
ATOM      9  C   LIG    1       23.738 -20.502   5.277  0.00  0.00    +0.012 A 
ATOM     10  N   LIG    1       27.361 -19.698   5.016  0.00  0.00    -0.131 NA
ENDROOT
BRANCH   1  11
ATOM     11  N   LIG    1       25.597 -19.182   3.475  0.00  0.00    -0.266 N 
ATOM     12  H   LIG    1       25.742 -19.850   2.715  0.00  0.00    +0.168 HD
BRANCH  11  13
ATOM     13  N   LIG    1       26.081 -17.878   3.177  0.00  0.00    -0.255 NA
ATOM     14  H   LIG    1       26.540 -17.501   4.014  0.00  0.00    +0.140 HD
ATOM     15  H   LIG    1       26.847 -17.946   2.497  0.00  0.00    +0.140 HD
ENDBRANCH  11  13
ENDBRANCH   1  11
BRANCH   7  16
ATOM     16  N   LIG    1       27.529 -21.462   8.223  0.00  0.00    -0.266 N 
ATOM     17  H   LIG    1       26.977 -21.115   9.012  0.00  0.00    +0.168 HD
BRANCH  16  18
ATOM     18  N   LIG    1       28.932 -21.344   8.424  0.00  0.00    -0.255 NA
ATOM     19  H   LIG    1       29.408 -21.568   7.544  0.00  0.00    +0.140 HD
ATOM     20  H   LIG    1       29.172 -20.357   8.581  0.00  0.00    +0.140 HD
ENDBRANCH  16  18
ENDBRANCH   7  16
TORSDOF 4
ENDMDL
MODEL 9
REMARK VINA RESULT:      -6.6      1.049      1.343
REMARK  Name = *****
REMARK                            x       y       z     vdW  Elec       q    Type
REMARK                         _______ _______ _______ _____ _____    ______ ____
ROOT
ATOM      1  C   LIG    1       24.298 -22.137   6.896  0.00  0.00    +0.162 A 
ATOM      2  C   LIG    1       24.468 -21.219   5.838  0.00  0.00    +0.028 A 
ATOM      3  C   LIG    1       25.760 -20.686   5.615  0.00  0.00    +0.028 A 
ATOM      4  C   LIG    1       25.928 -19.726   4.584  0.00  0.00    +0.012 A 
ATOM      5  C   LIG    1       24.866 -19.327   3.772  0.00  0.00    +0.001 A 
ATOM      6  C   LIG    1       23.608 -19.875   3.966  0.00  0.00    +0.001 A 
ATOM      7  C   LIG    1       26.818 -21.136   6.436  0.00  0.00    +0.162 A 
ATOM      8  N   LIG    1       26.598 -22.022   7.433  0.00  0.00    -0.131 NA
ATOM      9  C   LIG    1       23.411 -20.808   4.986  0.00  0.00    +0.012 A 
ATOM     10  N   LIG    1       25.348 -22.530   7.655  0.00  0.00    -0.131 NA
ENDROOT
BRANCH   1  11
ATOM     11  N   LIG    1       23.005 -22.686   7.165  0.00  0.00    -0.266 N 
ATOM     12  H   LIG    1       22.830 -22.619   8.171  0.00  0.00    +0.168 HD
BRANCH  11  13
ATOM     13  N   LIG    1       22.726 -23.975   6.631  0.00  0.00    -0.255 NA
ATOM     14  H   LIG    1       23.602 -24.380   6.281  0.00  0.00    +0.140 HD
ATOM     15  H   LIG    1       22.460 -24.609   7.393  0.00  0.00    +0.140 HD
ENDBRANCH  11  13
ENDBRANCH   1  11
BRANCH   7  16
ATOM     16  N   LIG    1       28.144 -20.641   6.228  0.00  0.00    -0.266 N 
ATOM     17  H   LIG    1       28.321 -20.612   5.221  0.00  0.00    +0.168 HD
BRANCH  16  18
ATOM     18  N   LIG    1       29.189 -21.265   6.965  0.00  0.00    -0.255 NA
ATOM     19  H   LIG    1       29.493 -22.102   6.455  0.00  0.00    +0.140 HD
ATOM     20  H   LIG    1       30.021 -20.663   6.951  0.00  0.00    +0.140 HD
ENDBRANCH  16  18
ENDBRANCH   7  16
TORSDOF 4
ENDMDL
