MODEL 1
REMARK VINA RESULT:      -4.8      0.000      0.000
REMARK  Name = *****
REMARK                            x       y       z     vdW  Elec       q    Type
REMARK                         _______ _______ _______ _____ _____    ______ ____
ROOT
ATOM      1  C   LIG    1       26.212 -18.004   3.311  0.00  0.00    +0.075 C 
ENDROOT
BRANCH   1   6
ATOM      2  C   LIG    1       26.535 -14.187   3.272  0.00  0.00    +0.165 A 
ATOM      3  C   LIG    1       25.259 -13.800   3.758  0.00  0.00    +0.203 A 
ATOM      4  C   LIG    1       24.323 -14.791   4.114  0.00  0.00    +0.165 A 
ATOM      5  C   LIG    1       24.672 -16.137   3.961  0.00  0.00    +0.053 A 
ATOM      6  C   LIG    1       25.915 -16.526   3.447  0.00  0.00    -0.036 A 
ATOM      7  C   LIG    1       26.849 -15.544   3.106  0.00  0.00    +0.053 A 
BRANCH   2   9
ATOM      8  C   LIG    1       28.604 -13.073   3.714  0.00  0.00    +0.277 C 
ATOM      9  O   LIG    1       27.408 -13.175   2.947  0.00  0.00    -0.491 OA
ENDBRANCH   2   9
BRANCH   3  10
ATOM     10  O   LIG    1       25.031 -12.442   3.758  0.00  0.00    -0.488 OA
ATOM     11  C   LIG    1       24.228 -11.891   2.723  0.00  0.00    +0.277 C 
ENDBRANCH   3  10
BRANCH   4  12
ATOM     12  O   LIG    1       23.086 -14.417   4.570  0.00  0.00    -0.491 OA
ATOM     13  C   LIG    1       22.320 -15.379   5.290  0.00  0.00    +0.277 C 
ENDBRANCH   4  12
ENDBRANCH   1   6
BRANCH   1  14
ATOM     14  C   LIG    1       25.186 -18.925   3.913  0.00  0.00    +0.015 A 
ATOM     15  C   LIG    1       25.534 -20.034   4.657  0.00  0.00    +0.125 A 
ATOM     16  N   LIG    1       24.639 -20.915   5.136  0.00  0.00    -0.200 NA
ATOM     17  C   LIG    1       23.359 -20.692   4.843  0.00  0.00    +0.214 A 
ATOM     18  N   LIG    1       22.900 -19.663   4.143  0.00  0.00    -0.223 NA
ATOM     19  C   LIG    1       23.831 -18.806   3.674  0.00  0.00    +0.121 A 
BRANCH  15  20
ATOM     20  N   LIG    1       26.865 -20.337   4.951  0.00  0.00    -0.343 N 
ATOM     21  H   LIG    1       26.998 -20.516   5.939  0.00  0.00    +0.144 HD
ATOM     22  H   LIG    1       27.103 -21.159   4.401  0.00  0.00    +0.144 HD
ENDBRANCH  15  20
BRANCH  17  23
ATOM     23  N   LIG    1       22.421 -21.571   5.359  0.00  0.00    -0.327 N 
ATOM     24  H   LIG    1       22.012 -22.109   4.610  0.00  0.00    +0.145 HD
ATOM     25  H   LIG    1       22.833 -22.080   6.128  0.00  0.00    +0.145 HD
ENDBRANCH  17  23
ENDBRANCH   1  14
TORSDOF 7
ENDMDL
MODEL 2
REMARK VINA RESULT:      -4.8      4.162      6.749
REMARK  Name = *****
REMARK                            x       y       z     vdW  Elec       q    Type
REMARK                         _______ _______ _______ _____ _____    ______ ____
ROOT
ATOM      1  C   LIG    1       26.501 -16.784   2.949  0.00  0.00    +0.075 C 
ENDROOT
BRANCH   1   6
ATOM      2  C   LIG    1       24.517 -19.747   4.346  0.00  0.00    +0.165 A 
ATOM      3  C   LIG    1       25.502 -20.381   5.148  0.00  0.00    +0.203 A 
ATOM      4  C   LIG    1       26.790 -19.818   5.239  0.00  0.00    +0.165 A 
ATOM      5  C   LIG    1       27.071 -18.652   4.519  0.00  0.00    +0.053 A 
ATOM      6  C   LIG    1       26.116 -18.042   3.697  0.00  0.00    -0.036 A 
ATOM      7  C   LIG    1       24.834 -18.593   3.616  0.00  0.00    +0.053 A 
BRANCH   2   9
ATOM      8  C   LIG    1       22.170 -19.576   4.772  0.00  0.00    +0.277 C 
ATOM      9  O   LIG    1       23.276 -20.341   4.303  0.00  0.00    -0.491 OA
ENDBRANCH   2   9
BRANCH   3  10
ATOM     10  O   LIG    1       25.103 -21.572   5.715  0.00  0.00    -0.488 OA
ATOM     11  C   LIG    1       24.630 -21.558   7.055  0.00  0.00    +0.277 C 
ENDBRANCH   3  10
BRANCH   4  12
ATOM     12  O   LIG    1       27.744 -20.438   6.002  0.00  0.00    -0.491 OA
ATOM     13  C   LIG    1       28.878 -19.675   6.405  0.00  0.00    +0.277 C 
ENDBRANCH   4  12
ENDBRANCH   1   6
BRANCH   1  14
ATOM     14  C   LIG    1       25.864 -15.516   3.450  0.00  0.00    +0.015 A 
ATOM     15  C   LIG    1       26.607 -14.419   3.838  0.00  0.00    +0.125 A 
ATOM     16  N   LIG    1       26.064 -13.307   4.363  0.00  0.00    -0.200 NA
ATOM     17  C   LIG    1       24.742 -13.300   4.526  0.00  0.00    +0.214 A 
ATOM     18  N   LIG    1       23.923 -14.287   4.190  0.00  0.00    -0.223 NA
ATOM     19  C   LIG    1       24.507 -15.389   3.674  0.00  0.00    +0.121 A 
BRANCH  15  20
ATOM     20  N   LIG    1       27.998 -14.394   3.729  0.00  0.00    -0.343 N 
ATOM     21  H   LIG    1       28.312 -13.653   3.114  0.00  0.00    +0.144 HD
ATOM     22  H   LIG    1       28.359 -14.258   4.671  0.00  0.00    +0.144 HD
ENDBRANCH  15  20
BRANCH  17  23
ATOM     23  N   LIG    1       24.166 -12.148   5.034  0.00  0.00    -0.327 N 
ATOM     24  H   LIG    1       24.835 -11.658   5.607  0.00  0.00    +0.145 HD
ATOM     25  H   LIG    1       23.731 -11.635   4.281  0.00  0.00    +0.145 HD
ENDBRANCH  17  23
ENDBRANCH   1  14
TORSDOF 7
ENDMDL
MODEL 3
REMARK VINA RESULT:      -4.8      4.135      6.273
REMARK  Name = *****
REMARK                            x       y       z     vdW  Elec       q    Type
REMARK                         _______ _______ _______ _____ _____    ______ ____
ROOT
ATOM      1  C   LIG    1       26.476 -16.836   2.942  0.00  0.00    +0.075 C 
ENDROOT
BRANCH   1   6
ATOM      2  C   LIG    1       26.630 -19.934   5.189  0.00  0.00    +0.165 A 
ATOM      3  C   LIG    1       25.308 -20.433   5.057  0.00  0.00    +0.203 A 
ATOM      4  C   LIG    1       24.395 -19.765   4.218  0.00  0.00    +0.165 A 
ATOM      5  C   LIG    1       24.813 -18.611   3.547  0.00  0.00    +0.053 A 
ATOM      6  C   LIG    1       26.105 -18.092   3.702  0.00  0.00    -0.036 A 
ATOM      7  C   LIG    1       27.015 -18.762   4.524  0.00  0.00    +0.053 A 
BRANCH   2   9
ATOM      8  C   LIG    1       28.742 -20.045   6.307  0.00  0.00    +0.277 C 
ATOM      9  O   LIG    1       27.478 -20.635   6.017  0.00  0.00    -0.491 OA
ENDBRANCH   2   9
BRANCH   3  10
ATOM     10  O   LIG    1       25.021 -21.518   5.856  0.00  0.00    -0.488 OA
ATOM     11  C   LIG    1       24.302 -21.299   7.062  0.00  0.00    +0.277 C 
ENDBRANCH   3  10
BRANCH   4  12
ATOM     12  O   LIG    1       23.115 -20.239   4.102  0.00  0.00    -0.491 OA
ATOM     13  C   LIG    1       22.066 -19.488   4.707  0.00  0.00    +0.277 C 
ENDBRANCH   4  12
ENDBRANCH   1   6
BRANCH   1  14
ATOM     14  C   LIG    1       25.847 -15.567   3.449  0.00  0.00    +0.015 A 
ATOM     15  C   LIG    1       26.596 -14.469   3.823  0.00  0.00    +0.125 A 
ATOM     16  N   LIG    1       26.062 -13.355   4.353  0.00  0.00    -0.200 NA
ATOM     17  C   LIG    1       24.743 -13.347   4.535  0.00  0.00    +0.214 A 
ATOM     18  N   LIG    1       23.918 -14.335   4.214  0.00  0.00    -0.223 NA
ATOM     19  C   LIG    1       24.494 -15.438   3.692  0.00  0.00    +0.121 A 
BRANCH  15  20
ATOM     20  N   LIG    1       27.986 -14.446   3.694  0.00  0.00    -0.343 N 
ATOM     21  H   LIG    1       28.340 -15.308   3.298  0.00  0.00    +0.144 HD
ATOM     22  H   LIG    1       28.207 -13.655   3.092  0.00  0.00    +0.144 HD
ENDBRANCH  15  20
BRANCH  17  23
ATOM     23  N   LIG    1       24.174 -12.193   5.048  0.00  0.00    -0.327 N 
ATOM     24  H   LIG    1       23.273 -12.041   4.623  0.00  0.00    +0.145 HD
ATOM     25  H   LIG    1       24.215 -12.224   6.057  0.00  0.00    +0.145 HD
ENDBRANCH  17  23
ENDBRANCH   1  14
TORSDOF 7
ENDMDL
MODEL 4
REMARK VINA RESULT:      -4.7      4.236      6.591
REMARK  Name = *****
REMARK                            x       y       z     vdW  Elec       q    Type
REMARK                         _______ _______ _______ _____ _____    ______ ____
ROOT
ATOM      1  C   LIG    1       25.621 -16.600   2.931  0.00  0.00    +0.075 C 
ENDROOT
BRANCH   1   6
ATOM      2  C   LIG    1       26.863 -19.628   4.919  0.00  0.00    +0.165 A 
ATOM      3  C   LIG    1       25.692 -20.428   4.960  0.00  0.00    +0.203 A 
ATOM      4  C   LIG    1       24.522 -19.978   4.316  0.00  0.00    +0.165 A 
ATOM      5  C   LIG    1       24.542 -18.739   3.667  0.00  0.00    +0.053 A 
ATOM      6  C   LIG    1       25.683 -17.928   3.655  0.00  0.00    -0.036 A 
ATOM      7  C   LIG    1       26.848 -18.380   4.282  0.00  0.00    +0.053 A 
BRANCH   2   9
ATOM      8  C   LIG    1       28.954 -19.185   5.993  0.00  0.00    +0.277 C 
ATOM      9  O   LIG    1       27.976 -20.125   5.560  0.00  0.00    -0.491 OA
ENDBRANCH   2   9
BRANCH   3  10
ATOM     10  O   LIG    1       25.802 -21.572   5.720  0.00  0.00    -0.488 OA
ATOM     11  C   LIG    1       25.335 -21.539   7.062  0.00  0.00    +0.277 C 
ENDBRANCH   3  10
BRANCH   4  12
ATOM     12  O   LIG    1       23.387 -20.743   4.368  0.00  0.00    -0.491 OA
ATOM     13  C   LIG    1       22.278 -20.247   5.111  0.00  0.00    +0.277 C 
ENDBRANCH   4  12
ENDBRANCH   1   6
BRANCH   1  14
ATOM     14  C   LIG    1       26.268 -15.445   3.646  0.00  0.00    +0.015 A 
ATOM     15  C   LIG    1       25.533 -14.433   4.230  0.00  0.00    +0.125 A 
ATOM     16  N   LIG    1       26.089 -13.352   4.804  0.00  0.00    -0.200 NA
ATOM     17  C   LIG    1       27.418 -13.270   4.774  0.00  0.00    +0.214 A 
ATOM     18  N   LIG    1       28.230 -14.177   4.249  0.00  0.00    -0.223 NA
ATOM     19  C   LIG    1       27.633 -15.243   3.675  0.00  0.00    +0.121 A 
BRANCH  15  20
ATOM     20  N   LIG    1       24.137 -14.449   4.247  0.00  0.00    -0.343 N 
ATOM     21  H   LIG    1       23.763 -15.146   3.614  0.00  0.00    +0.144 HD
ATOM     22  H   LIG    1       23.862 -14.649   5.206  0.00  0.00    +0.144 HD
ENDBRANCH  15  20
BRANCH  17  23
ATOM     23  N   LIG    1       28.006 -12.179   5.392  0.00  0.00    -0.327 N 
ATOM     24  H   LIG    1       29.001 -12.325   5.463  0.00  0.00    +0.145 HD
ATOM     25  H   LIG    1       27.690 -11.333   4.941  0.00  0.00    +0.145 HD
ENDBRANCH  17  23
ENDBRANCH   1  14
TORSDOF 7
ENDMDL
MODEL 5
REMARK VINA RESULT:      -4.1      0.301      2.760
REMARK  Name = *****
REMARK                            x       y       z     vdW  Elec       q    Type
REMARK                         _______ _______ _______ _____ _____    ______ ____
ROOT
ATOM      1  C   LIG    1       26.283 -18.019   3.276  0.00  0.00    +0.075 C 
ENDROOT
BRANCH   1   6
ATOM      2  C   LIG    1       24.484 -14.686   3.844  0.00  0.00    +0.165 A 
ATOM      3  C   LIG    1       25.517 -13.762   3.537  0.00  0.00    +0.203 A 
ATOM      4  C   LIG    1       26.777 -14.242   3.126  0.00  0.00    +0.165 A 
ATOM      5  C   LIG    1       26.981 -15.623   3.048  0.00  0.00    +0.053 A 
ATOM      6  C   LIG    1       25.979 -16.541   3.385  0.00  0.00    -0.036 A 
ATOM      7  C   LIG    1       24.725 -16.065   3.781  0.00  0.00    +0.053 A 
BRANCH   2   9
ATOM      8  C   LIG    1       22.639 -14.743   5.365  0.00  0.00    +0.277 C 
ATOM      9  O   LIG    1       23.275 -14.157   4.233  0.00  0.00    -0.491 OA
ENDBRANCH   2   9
BRANCH   3  10
ATOM     10  O   LIG    1       25.192 -12.442   3.757  0.00  0.00    -0.488 OA
ATOM     11  C   LIG    1       24.623 -11.699   2.688  0.00  0.00    +0.277 C 
ENDBRANCH   3  10
BRANCH   4  12
ATOM     12  O   LIG    1       27.778 -13.350   2.844  0.00  0.00    -0.491 OA
ATOM     13  C   LIG    1       28.747 -13.090   3.855  0.00  0.00    +0.277 C 
ENDBRANCH   4  12
ENDBRANCH   1   6
BRANCH   1  14
ATOM     14  C   LIG    1       25.287 -18.932   3.938  0.00  0.00    +0.015 A 
ATOM     15  C   LIG    1       25.671 -19.964   4.771  0.00  0.00    +0.125 A 
ATOM     16  N   LIG    1       24.806 -20.841   5.309  0.00  0.00    -0.200 NA
ATOM     17  C   LIG    1       23.522 -20.695   4.988  0.00  0.00    +0.214 A 
ATOM     18  N   LIG    1       23.031 -19.745   4.204  0.00  0.00    -0.223 NA
ATOM     19  C   LIG    1       23.932 -18.889   3.677  0.00  0.00    +0.121 A 
BRANCH  15  20
ATOM     20  N   LIG    1       27.009 -20.187   5.102  0.00  0.00    -0.343 N 
ATOM     21  H   LIG    1       27.140 -20.259   6.103  0.00  0.00    +0.144 HD
ATOM     22  H   LIG    1       27.281 -21.052   4.639  0.00  0.00    +0.144 HD
ENDBRANCH  15  20
BRANCH  17  23
ATOM     23  N   LIG    1       22.615 -21.570   5.562  0.00  0.00    -0.327 N 
ATOM     24  H   LIG    1       23.099 -22.206   6.176  0.00  0.00    +0.145 HD
ATOM     25  H   LIG    1       21.845 -21.043   5.948  0.00  0.00    +0.145 HD
ENDBRANCH  17  23
ENDBRANCH   1  14
TORSDOF 7
ENDMDL
MODEL 6
REMARK VINA RESULT:      -3.7      1.276      3.364
REMARK  Name = *****
REMARK                            x       y       z     vdW  Elec       q    Type
REMARK                         _______ _______ _______ _____ _____    ______ ____
ROOT
ATOM      1  C   LIG    1       26.494 -17.717   3.008  0.00  0.00    +0.075 C 
ENDROOT
BRANCH   1   6
ATOM      2  C   LIG    1       24.232 -14.839   4.137  0.00  0.00    +0.165 A 
ATOM      3  C   LIG    1       25.093 -13.727   3.953  0.00  0.00    +0.203 A 
ATOM      4  C   LIG    1       26.390 -13.930   3.441  0.00  0.00    +0.165 A 
ATOM      5  C   LIG    1       26.802 -15.234   3.142  0.00  0.00    +0.053 A 
ATOM      6  C   LIG    1       25.971 -16.340   3.356  0.00  0.00    -0.036 A 
ATOM      7  C   LIG    1       24.680 -16.137   3.852  0.00  0.00    +0.053 A 
BRANCH   2   9
ATOM      8  C   LIG    1       22.301 -15.639   5.301  0.00  0.00    +0.277 C 
ATOM      9  O   LIG    1       22.976 -14.576   4.635  0.00  0.00    -0.491 OA
ENDBRANCH   2   9
BRANCH   3  10
ATOM     10  O   LIG    1       24.580 -12.524   4.385  0.00  0.00    -0.488 OA
ATOM     11  C   LIG    1       23.862 -11.723   3.457  0.00  0.00    +0.277 C 
ENDBRANCH   3  10
BRANCH   4  12
ATOM     12  O   LIG    1       27.226 -12.858   3.276  0.00  0.00    -0.491 OA
ATOM     13  C   LIG    1       28.568 -12.979   3.739  0.00  0.00    +0.277 C 
ENDBRANCH   4  12
ENDBRANCH   1   6
BRANCH   1  14
ATOM     14  C   LIG    1       26.491 -18.711   4.137  0.00  0.00    +0.015 A 
ATOM     15  C   LIG    1       27.595 -18.923   4.938  0.00  0.00    +0.125 A 
ATOM     16  N   LIG    1       27.642 -19.861   5.900  0.00  0.00    -0.200 NA
ATOM     17  C   LIG    1       26.561 -20.624   6.051  0.00  0.00    +0.214 A 
ATOM     18  N   LIG    1       25.441 -20.515   5.349  0.00  0.00    -0.223 NA
ATOM     19  C   LIG    1       25.436 -19.567   4.388  0.00  0.00    +0.121 A 
BRANCH  15  20
ATOM     20  N   LIG    1       28.768 -18.181   4.789  0.00  0.00    -0.343 N 
ATOM     21  H   LIG    1       29.179 -17.946   5.685  0.00  0.00    +0.144 HD
ATOM     22  H   LIG    1       29.405 -18.754   4.240  0.00  0.00    +0.144 HD
ENDBRANCH  15  20
BRANCH  17  23
ATOM     23  N   LIG    1       26.582 -21.571   7.061  0.00  0.00    -0.327 N 
ATOM     24  H   LIG    1       25.868 -21.359   7.741  0.00  0.00    +0.145 HD
ATOM     25  H   LIG    1       26.576 -22.494   6.650  0.00  0.00    +0.145 HD
ENDBRANCH  17  23
ENDBRANCH   1  14
TORSDOF 7
ENDMDL
MODEL 7
REMARK VINA RESULT:      -3.6      0.860      1.591
REMARK  Name = *****
REMARK                            x       y       z     vdW  Elec       q    Type
REMARK                         _______ _______ _______ _____ _____    ______ ____
ROOT
ATOM      1  C   LIG    1       25.854 -18.317   3.009  0.00  0.00    +0.075 C 
ENDROOT
BRANCH   1   6
ATOM      2  C   LIG    1       26.454 -14.543   3.276  0.00  0.00    +0.165 A 
ATOM      3  C   LIG    1       25.241 -14.116   3.876  0.00  0.00    +0.203 A 
ATOM      4  C   LIG    1       24.257 -15.068   4.206  0.00  0.00    +0.165 A 
ATOM      5  C   LIG    1       24.496 -16.416   3.916  0.00  0.00    +0.053 A 
ATOM      6  C   LIG    1       25.675 -16.840   3.290  0.00  0.00    -0.036 A 
ATOM      7  C   LIG    1       26.657 -15.897   2.974  0.00  0.00    +0.053 A 
BRANCH   2   9
ATOM      8  C   LIG    1       28.424 -13.353   3.928  0.00  0.00    +0.277 C 
ATOM      9  O   LIG    1       27.379 -13.567   2.983  0.00  0.00    -0.491 OA
ENDBRANCH   2   9
BRANCH   3  10
ATOM     10  O   LIG    1       25.114 -12.750   4.007  0.00  0.00    -0.488 OA
ATOM     11  C   LIG    1       24.139 -12.083   3.217  0.00  0.00    +0.277 C 
ENDBRANCH   3  10
BRANCH   4  12
ATOM     12  O   LIG    1       23.080 -14.654   4.772  0.00  0.00    -0.491 OA
ATOM     13  C   LIG    1       22.237 -15.640   5.359  0.00  0.00    +0.277 C 
ENDBRANCH   4  12
ENDBRANCH   1   6
BRANCH   1  14
ATOM     14  C   LIG    1       25.312 -19.243   4.064  0.00  0.00    +0.015 A 
ATOM     15  C   LIG    1       23.967 -19.536   4.168  0.00  0.00    +0.125 A 
ATOM     16  N   LIG    1       23.449 -20.296   5.149  0.00  0.00    -0.200 NA
ATOM     17  C   LIG    1       24.299 -20.758   6.064  0.00  0.00    +0.214 A 
ATOM     18  N   LIG    1       25.608 -20.550   6.070  0.00  0.00    -0.223 NA
ATOM     19  C   LIG    1       26.087 -19.776   5.074  0.00  0.00    +0.121 A 
BRANCH  15  20
ATOM     20  N   LIG    1       23.030 -19.039   3.259  0.00  0.00    -0.343 N 
ATOM     21  H   LIG    1       23.445 -18.868   2.351  0.00  0.00    +0.144 HD
ATOM     22  H   LIG    1       22.293 -19.737   3.193  0.00  0.00    +0.144 HD
ENDBRANCH  15  20
BRANCH  17  23
ATOM     23  N   LIG    1       23.785 -21.571   7.062  0.00  0.00    -0.327 N 
ATOM     24  H   LIG    1       24.506 -21.779   7.735  0.00  0.00    +0.145 HD
ATOM     25  H   LIG    1       22.926 -21.169   7.407  0.00  0.00    +0.145 HD
ENDBRANCH  17  23
ENDBRANCH   1  14
TORSDOF 7
ENDMDL
MODEL 8
REMARK VINA RESULT:      -3.4      4.177      6.466
REMARK  Name = *****
REMARK                            x       y       z     vdW  Elec       q    Type
REMARK                         _______ _______ _______ _____ _____    ______ ____
ROOT
ATOM      1  C   LIG    1       23.770 -14.689   4.178  0.00  0.00    +0.075 C 
ENDROOT
BRANCH   1   6
ATOM      2  C   LIG    1       24.599 -18.405   3.763  0.00  0.00    +0.165 A 
ATOM      3  C   LIG    1       23.316 -18.990   3.920  0.00  0.00    +0.203 A 
ATOM      4  C   LIG    1       22.197 -18.161   4.135  0.00  0.00    +0.165 A 
ATOM      5  C   LIG    1       22.385 -16.777   4.205  0.00  0.00    +0.053 A 
ATOM      6  C   LIG    1       23.653 -16.195   4.088  0.00  0.00    -0.036 A 
ATOM      7  C   LIG    1       24.762 -17.016   3.862  0.00  0.00    +0.053 A 
BRANCH   2   9
ATOM      8  C   LIG    1       26.391 -19.690   4.690  0.00  0.00    +0.277 C 
ATOM      9  O   LIG    1       25.652 -19.265   3.549  0.00  0.00    -0.491 OA
ENDBRANCH   2   9
BRANCH   3  10
ATOM     10  O   LIG    1       23.309 -20.368   3.924  0.00  0.00    -0.488 OA
ATOM     11  C   LIG    1       23.002 -21.039   5.139  0.00  0.00    +0.277 C 
ENDBRANCH   3  10
BRANCH   4  12
ATOM     12  O   LIG    1       20.961 -18.728   4.300  0.00  0.00    -0.491 OA
ATOM     13  C   LIG    1       20.002 -18.555   3.261  0.00  0.00    +0.277 C 
ENDBRANCH   4  12
ENDBRANCH   1   6
BRANCH   1  14
ATOM     14  C   LIG    1       25.165 -14.142   4.043  0.00  0.00    +0.015 A 
ATOM     15  C   LIG    1       25.600 -13.501   2.900  0.00  0.00    +0.125 A 
ATOM     16  N   LIG    1       26.864 -13.076   2.726  0.00  0.00    -0.200 NA
ATOM     17  C   LIG    1       27.722 -13.318   3.715  0.00  0.00    +0.214 A 
ATOM     18  N   LIG    1       27.425 -13.918   4.859  0.00  0.00    -0.223 NA
ATOM     19  C   LIG    1       26.149 -14.338   4.992  0.00  0.00    +0.121 A 
BRANCH  15  20
ATOM     20  N   LIG    1       24.751 -13.265   1.818  0.00  0.00    -0.343 N 
ATOM     21  H   LIG    1       24.996 -12.412   1.329  0.00  0.00    +0.144 HD
ATOM     22  H   LIG    1       24.836 -14.071   1.202  0.00  0.00    +0.144 HD
ENDBRANCH  15  20
BRANCH  17  23
ATOM     23  N   LIG    1       29.019 -12.855   3.564  0.00  0.00    -0.327 N 
ATOM     24  H   LIG    1       29.044 -11.859   3.718  0.00  0.00    +0.145 HD
ATOM     25  H   LIG    1       29.642 -13.429   4.115  0.00  0.00    +0.145 HD
ENDBRANCH  17  23
ENDBRANCH   1  14
TORSDOF 7
ENDMDL
MODEL 9
REMARK VINA RESULT:      -3.3      1.119      3.453
REMARK  Name = *****
REMARK                            x       y       z     vdW  Elec       q    Type
REMARK                         _______ _______ _______ _____ _____    ______ ____
ROOT
ATOM      1  C   LIG    1       26.151 -17.855   2.896  0.00  0.00    +0.075 C 
ENDROOT
BRANCH   1   6
ATOM      2  C   LIG    1       24.139 -14.927   4.328  0.00  0.00    +0.165 A 
ATOM      3  C   LIG    1       25.071 -13.866   4.198  0.00  0.00    +0.203 A 
ATOM      4  C   LIG    1       26.333 -14.117   3.623  0.00  0.00    +0.165 A 
ATOM      5  C   LIG    1       26.640 -15.417   3.209  0.00  0.00    +0.053 A 
ATOM      6  C   LIG    1       25.739 -16.477   3.368  0.00  0.00    -0.036 A 
ATOM      7  C   LIG    1       24.483 -16.226   3.927  0.00  0.00    +0.053 A 
BRANCH   2   9
ATOM      8  C   LIG    1       22.224 -15.669   5.554  0.00  0.00    +0.277 C 
ATOM      9  O   LIG    1       22.922 -14.619   4.891  0.00  0.00    -0.491 OA
ENDBRANCH   2   9
BRANCH   3  10
ATOM     10  O   LIG    1       24.659 -12.669   4.741  0.00  0.00    -0.488 OA
ATOM     11  C   LIG    1       23.729 -11.880   4.012  0.00  0.00    +0.277 C 
ENDBRANCH   3  10
BRANCH   4  12
ATOM     12  O   LIG    1       27.238 -13.094   3.511  0.00  0.00    -0.491 OA
ATOM     13  C   LIG    1       28.601 -13.371   3.818  0.00  0.00    +0.277 C 
ENDBRANCH   4  12
ENDBRANCH   1   6
BRANCH   1  14
ATOM     14  C   LIG    1       26.277 -18.895   3.975  0.00  0.00    +0.015 A 
ATOM     15  C   LIG    1       25.242 -19.748   4.304  0.00  0.00    +0.125 A 
ATOM     16  N   LIG    1       25.303 -20.629   5.317  0.00  0.00    -0.200 NA
ATOM     17  C   LIG    1       26.423 -20.644   6.036  0.00  0.00    +0.214 A 
ATOM     18  N   LIG    1       27.485 -19.880   5.818  0.00  0.00    -0.223 NA
ATOM     19  C   LIG    1       27.381 -19.002   4.797  0.00  0.00    +0.121 A 
BRANCH  15  20
ATOM     20  N   LIG    1       24.030 -19.740   3.609  0.00  0.00    -0.343 N 
ATOM     21  H   LIG    1       23.241 -19.850   4.234  0.00  0.00    +0.144 HD
ATOM     22  H   LIG    1       23.983 -18.848   3.121  0.00  0.00    +0.144 HD
ENDBRANCH  15  20
BRANCH  17  23
ATOM     23  N   LIG    1       26.514 -21.571   7.061  0.00  0.00    -0.327 N 
ATOM     24  H   LIG    1       25.638 -22.059   7.156  0.00  0.00    +0.145 HD
ATOM     25  H   LIG    1       27.347 -22.127   6.932  0.00  0.00    +0.145 HD
ENDBRANCH  17  23
ENDBRANCH   1  14
TORSDOF 7
ENDMDL
