MODEL 1
REMARK VINA RESULT:      -7.2      0.000      0.000
REMARK  Name = *****
REMARK                            x       y       z     vdW  Elec       q    Type
REMARK                         _______ _______ _______ _____ _____    ______ ____
ROOT
ATOM      1  C   LIG    1       24.311 -21.114   6.276  0.00  0.00    +0.127 C 
ATOM      2  C   LIG    1       24.783 -21.567   4.905  0.00  0.00    +0.234 C 
ATOM      3  O   LIG    1       25.143 -20.790   4.022  0.00  0.00    -0.274 OA
ATOM      4  N   LIG    1       24.851 -22.906   4.692  0.00  0.00    -0.266 N 
ATOM      5  H   LIG    1       25.218 -23.220   3.803  0.00  0.00    +0.157 HD
ATOM      6  C   LIG    1       24.639 -23.807   5.675  0.00  0.00    +0.150 C 
ATOM      7  N   LIG    1       24.174 -23.552   6.834  0.00  0.00    -0.158 NA
ATOM      8  C   LIG    1       23.770 -22.270   7.119  0.00  0.00    +0.254 C 
ATOM      9  O   LIG    1       23.021 -22.056   8.066  0.00  0.00    -0.273 OA
ENDROOT
BRANCH   1  10
ATOM     10  C   LIG    1       25.527 -20.425   7.024  0.00  0.00    +0.010 C 
ATOM     11  C   LIG    1       25.569 -20.751   8.528  0.00  0.00    +0.009 C 
BRANCH  10  12
ATOM     12  C   LIG    1       26.908 -20.735   6.374  0.00  0.00    +0.004 C 
BRANCH  12  14
ATOM     13  C   LIG    1       29.225 -20.756   7.409  0.00  0.00    +0.004 C 
ATOM     14  C   LIG    1       27.883 -21.466   7.310  0.00  0.00    -0.003 C 
ENDBRANCH  12  14
ENDBRANCH  10  12
ENDBRANCH   1  10
BRANCH   1  15
ATOM     15  C   LIG    1       23.157 -20.091   6.028  0.00  0.00    +0.022 C 
ATOM     16  C   LIG    1       22.107 -20.534   5.007  0.00  0.00    +0.005 C 
ENDBRANCH   1  15
BRANCH   6  17
ATOM     17  S   LIG    1       25.077 -25.420   5.229  0.00  0.00    -0.110 S 
ATOM     18  H   LIG    1       23.836 -25.788   4.875  0.00  0.00    +0.110 HD
ENDBRANCH   6  17
TORSDOF 5
ENDMDL
MODEL 2
REMARK VINA RESULT:      -6.9      2.624      4.083
REMARK  Name = *****
REMARK                            x       y       z     vdW  Elec       q    Type
REMARK                         _______ _______ _______ _____ _____    ______ ____
ROOT
ATOM      1  C   LIG    1       24.951 -21.347   7.149  0.00  0.00    +0.127 C 
ATOM      2  C   LIG    1       25.855 -20.809   8.245  0.00  0.00    +0.234 C 
ATOM      3  O   LIG    1       25.575 -20.864   9.441  0.00  0.00    -0.274 OA
ATOM      4  N   LIG    1       27.051 -20.296   7.856  0.00  0.00    -0.266 N 
ATOM      5  H   LIG    1       27.684 -19.988   8.581  0.00  0.00    +0.157 HD
ATOM      6  C   LIG    1       27.489 -20.367   6.581  0.00  0.00    +0.150 C 
ATOM      7  N   LIG    1       26.797 -20.729   5.574  0.00  0.00    -0.158 NA
ATOM      8  C   LIG    1       25.463 -21.004   5.748  0.00  0.00    +0.254 C 
ATOM      9  O   LIG    1       24.704 -21.018   4.786  0.00  0.00    -0.273 OA
ENDROOT
BRANCH   1  10
ATOM     10  C   LIG    1       24.843 -22.920   7.313  0.00  0.00    +0.010 C 
ATOM     11  C   LIG    1       23.497 -23.483   6.822  0.00  0.00    +0.009 C 
BRANCH  10  12
ATOM     12  C   LIG    1       26.019 -23.693   6.645  0.00  0.00    +0.004 C 
BRANCH  12  14
ATOM     13  C   LIG    1       26.175 -26.204   6.318  0.00  0.00    +0.004 C 
ATOM     14  C   LIG    1       25.569 -24.903   5.812  0.00  0.00    -0.003 C 
ENDBRANCH  12  14
ENDBRANCH  10  12
ENDBRANCH   1  10
BRANCH   1  15
ATOM     15  C   LIG    1       23.559 -20.668   7.354  0.00  0.00    +0.022 C 
ATOM     16  C   LIG    1       22.945 -20.054   6.094  0.00  0.00    +0.005 C 
ENDBRANCH   1  15
BRANCH   6  17
ATOM     17  S   LIG    1       29.150 -19.920   6.404  0.00  0.00    -0.110 S 
ATOM     18  H   LIG    1       29.032 -18.755   7.060  0.00  0.00    +0.110 HD
ENDBRANCH   6  17
TORSDOF 5
ENDMDL
MODEL 3
REMARK VINA RESULT:      -6.9      1.506      1.895
REMARK  Name = *****
REMARK                            x       y       z     vdW  Elec       q    Type
REMARK                         _______ _______ _______ _____ _____    ______ ____
ROOT
ATOM      1  C   LIG    1       25.499 -21.700   6.506  0.00  0.00    +0.127 C 
ATOM      2  C   LIG    1       24.881 -22.291   5.250  0.00  0.00    +0.234 C 
ATOM      3  O   LIG    1       24.429 -21.609   4.332  0.00  0.00    -0.274 OA
ATOM      4  N   LIG    1       24.893 -23.645   5.141  0.00  0.00    -0.266 N 
ATOM      5  H   LIG    1       24.537 -24.047   4.284  0.00  0.00    +0.157 HD
ATOM      6  C   LIG    1       25.530 -24.437   6.029  0.00  0.00    +0.150 C 
ATOM      7  N   LIG    1       26.017 -24.064   7.147  0.00  0.00    -0.158 NA
ATOM      8  C   LIG    1       25.831 -22.765   7.552  0.00  0.00    +0.254 C 
ATOM      9  O   LIG    1       25.973 -22.460   8.730  0.00  0.00    -0.273 OA
ENDROOT
BRANCH   1  10
ATOM     10  C   LIG    1       26.816 -20.917   6.098  0.00  0.00    +0.010 C 
ATOM     11  C   LIG    1       26.559 -19.810   5.060  0.00  0.00    +0.009 C 
BRANCH  10  12
ATOM     12  C   LIG    1       27.591 -20.334   7.317  0.00  0.00    +0.004 C 
BRANCH  12  14
ATOM     13  C   LIG    1       29.929 -19.516   6.767  0.00  0.00    +0.004 C 
ATOM     14  C   LIG    1       29.091 -20.665   7.311  0.00  0.00    -0.003 C 
ENDBRANCH  12  14
ENDBRANCH  10  12
ENDBRANCH   1  10
BRANCH   1  15
ATOM     15  C   LIG    1       24.433 -20.725   7.103  0.00  0.00    +0.022 C 
ATOM     16  C   LIG    1       23.061 -21.349   7.367  0.00  0.00    +0.005 C 
ENDBRANCH   1  15
BRANCH   6  17
ATOM     17  S   LIG    1       25.654 -26.082   5.511  0.00  0.00    -0.110 S 
ATOM     18  H   LIG    1       26.879 -26.277   6.023  0.00  0.00    +0.110 HD
ENDBRANCH   6  17
TORSDOF 5
ENDMDL
MODEL 4
REMARK VINA RESULT:      -6.8      2.512      3.596
REMARK  Name = *****
REMARK                            x       y       z     vdW  Elec       q    Type
REMARK                         _______ _______ _______ _____ _____    ______ ____
ROOT
ATOM      1  C   LIG    1       23.945 -21.750   6.076  0.00  0.00    +0.127 C 
ATOM      2  C   LIG    1       25.064 -22.706   5.699  0.00  0.00    +0.234 C 
ATOM      3  O   LIG    1       24.956 -23.562   4.823  0.00  0.00    -0.274 OA
ATOM      4  N   LIG    1       26.249 -22.545   6.341  0.00  0.00    -0.266 N 
ATOM      5  H   LIG    1       27.018 -23.138   6.057  0.00  0.00    +0.157 HD
ATOM      6  C   LIG    1       26.483 -21.516   7.182  0.00  0.00    +0.150 C 
ATOM      7  N   LIG    1       25.609 -20.701   7.625  0.00  0.00    -0.158 NA
ATOM      8  C   LIG    1       24.289 -20.901   7.301  0.00  0.00    +0.254 C 
ATOM      9  O   LIG    1       23.404 -20.370   7.961  0.00  0.00    -0.273 OA
ENDROOT
BRANCH   1  10
ATOM     10  C   LIG    1       23.647 -20.809   4.836  0.00  0.00    +0.010 C 
ATOM     11  C   LIG    1       22.472 -19.846   5.081  0.00  0.00    +0.009 C 
BRANCH  10  12
ATOM     12  C   LIG    1       24.895 -20.013   4.350  0.00  0.00    +0.004 C 
BRANCH  12  14
ATOM     13  C   LIG    1       25.776 -17.879   3.297  0.00  0.00    +0.004 C 
ATOM     14  C   LIG    1       24.549 -18.738   3.567  0.00  0.00    -0.003 C 
ENDBRANCH  12  14
ENDBRANCH  10  12
ENDBRANCH   1  10
BRANCH   1  15
ATOM     15  C   LIG    1       22.704 -22.638   6.413  0.00  0.00    +0.022 C 
ATOM     16  C   LIG    1       23.028 -24.074   6.829  0.00  0.00    +0.005 C 
ENDBRANCH   1  15
BRANCH   6  17
ATOM     17  S   LIG    1       28.146 -21.366   7.632  0.00  0.00    -0.110 S 
ATOM     18  H   LIG    1       28.105 -20.035   7.802  0.00  0.00    +0.110 HD
ENDBRANCH   6  17
TORSDOF 5
ENDMDL
MODEL 5
REMARK VINA RESULT:      -6.7      1.923      3.889
REMARK  Name = *****
REMARK                            x       y       z     vdW  Elec       q    Type
REMARK                         _______ _______ _______ _____ _____    ______ ____
ROOT
ATOM      1  C   LIG    1       24.623 -22.356   6.936  0.00  0.00    +0.127 C 
ATOM      2  C   LIG    1       23.360 -23.200   6.910  0.00  0.00    +0.234 C 
ATOM      3  O   LIG    1       22.241 -22.751   7.154  0.00  0.00    -0.274 OA
ATOM      4  N   LIG    1       23.499 -24.499   6.542  0.00  0.00    -0.266 N 
ATOM      5  H   LIG    1       22.658 -25.055   6.466  0.00  0.00    +0.157 HD
ATOM      6  C   LIG    1       24.668 -25.004   6.095  0.00  0.00    +0.150 C 
ATOM      7  N   LIG    1       25.799 -24.418   6.138  0.00  0.00    -0.158 NA
ATOM      8  C   LIG    1       25.890 -23.195   6.756  0.00  0.00    +0.254 C 
ATOM      9  O   LIG    1       26.979 -22.765   7.117  0.00  0.00    -0.273 OA
ENDROOT
BRANCH   1  10
ATOM     10  C   LIG    1       24.527 -21.272   5.783  0.00  0.00    +0.010 C 
ATOM     11  C   LIG    1       24.368 -21.895   4.385  0.00  0.00    +0.009 C 
BRANCH  10  12
ATOM     12  C   LIG    1       23.412 -20.211   6.024  0.00  0.00    +0.004 C 
BRANCH  12  14
ATOM     13  C   LIG    1       22.216 -18.584   4.486  0.00  0.00    +0.004 C 
ATOM     14  C   LIG    1       22.449 -20.047   4.838  0.00  0.00    -0.003 C 
ENDBRANCH  12  14
ENDBRANCH  10  12
ENDBRANCH   1  10
BRANCH   1  15
ATOM     15  C   LIG    1       24.668 -21.674   8.341  0.00  0.00    +0.022 C 
ATOM     16  C   LIG    1       25.755 -20.612   8.512  0.00  0.00    +0.005 C 
ENDBRANCH   1  15
BRANCH   6  17
ATOM     17  S   LIG    1       24.513 -26.585   5.412  0.00  0.00    -0.110 S 
ATOM     18  H   LIG    1       25.832 -26.826   5.365  0.00  0.00    +0.110 HD
ENDBRANCH   6  17
TORSDOF 5
ENDMDL
MODEL 6
REMARK VINA RESULT:      -6.4      2.554      3.537
REMARK  Name = *****
REMARK                            x       y       z     vdW  Elec       q    Type
REMARK                         _______ _______ _______ _____ _____    ______ ____
ROOT
ATOM      1  C   LIG    1       24.442 -21.669   6.445  0.00  0.00    +0.127 C 
ATOM      2  C   LIG    1       23.431 -20.720   7.066  0.00  0.00    +0.234 C 
ATOM      3  O   LIG    1       23.231 -20.641   8.277  0.00  0.00    -0.274 OA
ATOM      4  N   LIG    1       22.769 -19.890   6.219  0.00  0.00    -0.266 N 
ATOM      5  H   LIG    1       22.136 -19.215   6.626  0.00  0.00    +0.157 HD
ATOM      6  C   LIG    1       23.069 -19.806   4.906  0.00  0.00    +0.150 C 
ATOM      7  N   LIG    1       23.841 -20.593   4.265  0.00  0.00    -0.158 NA
ATOM      8  C   LIG    1       24.372 -21.679   4.916  0.00  0.00    +0.254 C 
ATOM      9  O   LIG    1       24.823 -22.622   4.278  0.00  0.00    -0.273 OA
ENDROOT
BRANCH   1  10
ATOM     10  C   LIG    1       25.893 -21.235   6.914  0.00  0.00    +0.010 C 
ATOM     11  C   LIG    1       26.781 -22.432   7.302  0.00  0.00    +0.009 C 
BRANCH  10  12
ATOM     12  C   LIG    1       26.633 -20.335   5.882  0.00  0.00    +0.004 C 
BRANCH  12  14
ATOM     13  C   LIG    1       28.750 -18.965   5.598  0.00  0.00    +0.004 C 
ATOM     14  C   LIG    1       28.154 -20.275   6.092  0.00  0.00    -0.003 C 
ENDBRANCH  12  14
ENDBRANCH  10  12
ENDBRANCH   1  10
BRANCH   1  15
ATOM     15  C   LIG    1       24.087 -23.096   6.973  0.00  0.00    +0.022 C 
ATOM     16  C   LIG    1       22.650 -23.546   6.708  0.00  0.00    +0.005 C 
ENDBRANCH   1  15
BRANCH   6  17
ATOM     17  S   LIG    1       22.300 -18.475   4.112  0.00  0.00    -0.110 S 
ATOM     18  H   LIG    1       22.032 -17.801   5.241  0.00  0.00    +0.110 HD
ENDBRANCH   6  17
TORSDOF 5
ENDMDL
MODEL 7
REMARK VINA RESULT:      -6.3      1.506      3.790
REMARK  Name = *****
REMARK                            x       y       z     vdW  Elec       q    Type
REMARK                         _______ _______ _______ _____ _____    ______ ____
ROOT
ATOM      1  C   LIG    1       24.960 -21.793   6.502  0.00  0.00    +0.127 C 
ATOM      2  C   LIG    1       25.600 -22.547   7.656  0.00  0.00    +0.234 C 
ATOM      3  O   LIG    1       25.817 -22.041   8.755  0.00  0.00    -0.274 OA
ATOM      4  N   LIG    1       25.885 -23.858   7.448  0.00  0.00    -0.266 N 
ATOM      5  H   LIG    1       26.259 -24.383   8.227  0.00  0.00    +0.157 HD
ATOM      6  C   LIG    1       25.511 -24.511   6.328  0.00  0.00    +0.150 C 
ATOM      7  N   LIG    1       25.037 -23.975   5.274  0.00  0.00    -0.158 NA
ATOM      8  C   LIG    1       24.955 -22.605   5.205  0.00  0.00    +0.254 C 
ATOM      9  O   LIG    1       24.835 -22.048   4.120  0.00  0.00    -0.273 OA
ENDROOT
BRANCH   1  10
ATOM     10  C   LIG    1       23.474 -21.419   6.908  0.00  0.00    +0.010 C 
ATOM     11  C   LIG    1       23.404 -20.305   7.968  0.00  0.00    +0.009 C 
BRANCH  10  12
ATOM     12  C   LIG    1       22.573 -21.054   5.691  0.00  0.00    +0.004 C 
BRANCH  12  14
ATOM     13  C   LIG    1       23.082 -19.138   4.106  0.00  0.00    +0.004 C 
ATOM     14  C   LIG    1       22.461 -19.543   5.436  0.00  0.00    -0.003 C 
ENDBRANCH  12  14
ENDBRANCH  10  12
ENDBRANCH   1  10
BRANCH   1  15
ATOM     15  C   LIG    1       25.819 -20.507   6.285  0.00  0.00    +0.022 C 
ATOM     16  C   LIG    1       27.333 -20.725   6.323  0.00  0.00    +0.005 C 
ENDBRANCH   1  15
BRANCH   6  17
ATOM     17  S   LIG    1       25.723 -26.225   6.434  0.00  0.00    -0.110 S 
ATOM     18  H   LIG    1       24.680 -26.424   7.255  0.00  0.00    +0.110 HD
ENDBRANCH   6  17
TORSDOF 5
ENDMDL
MODEL 8
REMARK VINA RESULT:      -6.2      2.569      3.961
REMARK  Name = *****
REMARK                            x       y       z     vdW  Elec       q    Type
REMARK                         _______ _______ _______ _____ _____    ______ ____
ROOT
ATOM      1  C   LIG    1       25.024 -21.981   7.150  0.00  0.00    +0.127 C 
ATOM      2  C   LIG    1       26.319 -21.679   6.415  0.00  0.00    +0.234 C 
ATOM      3  O   LIG    1       27.380 -22.254   6.651  0.00  0.00    -0.274 OA
ATOM      4  N   LIG    1       26.257 -20.761   5.416  0.00  0.00    -0.266 N 
ATOM      5  H   LIG    1       27.099 -20.594   4.883  0.00  0.00    +0.157 HD
ATOM      6  C   LIG    1       25.090 -20.227   4.996  0.00  0.00    +0.150 C 
ATOM      7  N   LIG    1       23.962 -20.349   5.575  0.00  0.00    -0.158 NA
ATOM      8  C   LIG    1       23.900 -21.012   6.776  0.00  0.00    +0.254 C 
ATOM      9  O   LIG    1       22.935 -20.861   7.516  0.00  0.00    -0.273 OA
ENDROOT
BRANCH   1  10
ATOM     10  C   LIG    1       24.588 -23.467   6.812  0.00  0.00    +0.010 C 
ATOM     11  C   LIG    1       23.065 -23.678   6.887  0.00  0.00    +0.009 C 
BRANCH  10  12
ATOM     12  C   LIG    1       25.128 -23.973   5.442  0.00  0.00    +0.004 C 
BRANCH  12  14
ATOM     13  C   LIG    1       25.966 -26.047   6.639  0.00  0.00    +0.004 C 
ATOM     14  C   LIG    1       25.320 -25.496   5.376  0.00  0.00    -0.003 C 
ENDBRANCH  12  14
ENDBRANCH  10  12
ENDBRANCH   1  10
BRANCH   1  15
ATOM     15  C   LIG    1       25.335 -21.824   8.673  0.00  0.00    +0.022 C 
ATOM     16  C   LIG    1       25.985 -20.496   9.068  0.00  0.00    +0.005 C 
ENDBRANCH   1  15
BRANCH   6  17
ATOM     17  S   LIG    1       25.243 -19.324   3.528  0.00  0.00    -0.110 S 
ATOM     18  H   LIG    1       25.521 -18.159   4.133  0.00  0.00    +0.110 HD
ENDBRANCH   6  17
TORSDOF 5
ENDMDL
MODEL 9
REMARK VINA RESULT:      -6.1      2.527      4.073
REMARK  Name = *****
REMARK                            x       y       z     vdW  Elec       q    Type
REMARK                         _______ _______ _______ _____ _____    ______ ____
ROOT
ATOM      1  C   LIG    1       24.807 -22.139   6.055  0.00  0.00    +0.127 C 
ATOM      2  C   LIG    1       25.141 -21.436   4.750  0.00  0.00    +0.234 C 
ATOM      3  O   LIG    1       24.428 -21.492   3.750  0.00  0.00    -0.274 OA
ATOM      4  N   LIG    1       26.263 -20.672   4.736  0.00  0.00    -0.266 N 
ATOM      5  H   LIG    1       26.464 -20.154   3.891  0.00  0.00    +0.157 HD
ATOM      6  C   LIG    1       26.989 -20.431   5.848  0.00  0.00    +0.150 C 
ATOM      7  N   LIG    1       26.848 -21.015   6.972  0.00  0.00    -0.158 NA
ATOM      8  C   LIG    1       25.939 -22.039   7.079  0.00  0.00    +0.254 C 
ATOM      9  O   LIG    1       26.011 -22.833   8.009  0.00  0.00    -0.273 OA
ENDROOT
BRANCH   1  10
ATOM     10  C   LIG    1       23.485 -21.495   6.649  0.00  0.00    +0.010 C 
ATOM     11  C   LIG    1       23.765 -20.478   7.770  0.00  0.00    +0.009 C 
BRANCH  10  12
ATOM     12  C   LIG    1       22.569 -20.854   5.565  0.00  0.00    +0.004 C 
BRANCH  12  14
ATOM     13  C   LIG    1       22.173 -18.715   4.258  0.00  0.00    +0.004 C 
ATOM     14  C   LIG    1       22.544 -19.318   5.605  0.00  0.00    -0.003 C 
ENDBRANCH  12  14
ENDBRANCH  10  12
ENDBRANCH   1  10
BRANCH   1  15
ATOM     15  C   LIG    1       24.583 -23.644   5.700  0.00  0.00    +0.022 C 
ATOM     16  C   LIG    1       23.525 -24.358   6.543  0.00  0.00    +0.005 C 
ENDBRANCH   1  15
BRANCH   6  17
ATOM     17  S   LIG    1       28.183 -19.198   5.631  0.00  0.00    -0.110 S 
ATOM     18  H   LIG    1       28.999 -19.952   4.880  0.00  0.00    +0.110 HD
ENDBRANCH   6  17
TORSDOF 5
ENDMDL
