MODEL 1
REMARK VINA RESULT:      -5.5      0.000      0.000
REMARK  Name = *****
REMARK                            x       y       z     vdW  Elec       q    Type
REMARK                         _______ _______ _______ _____ _____    ______ ____
ROOT
ATOM      1  C   LIG    1       24.900 -22.008   7.526  0.00  0.00    -0.022 A 
ATOM      2  C   LIG    1       23.519 -22.098   7.300  0.00  0.00    +0.006 A 
ATOM      3  C   LIG    1       22.951 -23.285   6.836  0.00  0.00    +0.000 A 
ATOM      4  C   LIG    1       23.759 -24.393   6.584  0.00  0.00    +0.000 A 
ATOM      5  C   LIG    1       25.135 -24.312   6.788  0.00  0.00    +0.000 A 
ATOM      6  C   LIG    1       25.704 -23.124   7.253  0.00  0.00    +0.006 A 
ENDROOT
BRANCH   1   7
ATOM      7  C   LIG    1       25.512 -20.728   8.017  0.00  0.00    +0.191 C 
BRANCH   7   8
ATOM      8  O   LIG    1       25.833 -20.865   9.392  0.00  0.00    -0.390 OA
ATOM      9  H   LIG    1       26.496 -20.184   9.594  0.00  0.00    +0.210 HD
ENDBRANCH   7   8
ENDBRANCH   1   7
TORSDOF 2
ENDMDL
MODEL 2
REMARK VINA RESULT:      -5.5      0.012      1.707
REMARK  Name = *****
REMARK                            x       y       z     vdW  Elec       q    Type
REMARK                         _______ _______ _______ _____ _____    ______ ____
ROOT
ATOM      1  C   LIG    1       24.903 -22.004   7.506  0.00  0.00    -0.022 A 
ATOM      2  C   LIG    1       25.706 -23.126   7.257  0.00  0.00    +0.006 A 
ATOM      3  C   LIG    1       25.140 -24.314   6.791  0.00  0.00    +0.000 A 
ATOM      4  C   LIG    1       23.765 -24.395   6.577  0.00  0.00    +0.000 A 
ATOM      5  C   LIG    1       22.954 -23.292   6.837  0.00  0.00    +0.000 A 
ATOM      6  C   LIG    1       23.520 -22.103   7.303  0.00  0.00    +0.006 A 
ENDROOT
BRANCH   1   7
ATOM      7  C   LIG    1       25.510 -20.728   8.015  0.00  0.00    +0.191 C 
BRANCH   7   8
ATOM      8  O   LIG    1       25.837 -20.884   9.387  0.00  0.00    -0.390 OA
ATOM      9  H   LIG    1       25.011 -21.103   9.848  0.00  0.00    +0.210 HD
ENDBRANCH   7   8
ENDBRANCH   1   7
TORSDOF 2
ENDMDL
MODEL 3
REMARK VINA RESULT:      -5.4      2.177      3.135
REMARK  Name = *****
REMARK                            x       y       z     vdW  Elec       q    Type
REMARK                         _______ _______ _______ _____ _____    ______ ____
ROOT
ATOM      1  C   LIG    1       25.067 -21.035   7.212  0.00  0.00    -0.022 A 
ATOM      2  C   LIG    1       25.778 -20.766   6.035  0.00  0.00    +0.006 A 
ATOM      3  C   LIG    1       25.116 -20.303   4.896  0.00  0.00    +0.000 A 
ATOM      4  C   LIG    1       23.735 -20.113   4.921  0.00  0.00    +0.000 A 
ATOM      5  C   LIG    1       23.015 -20.392   6.080  0.00  0.00    +0.000 A 
ATOM      6  C   LIG    1       23.677 -20.856   7.219  0.00  0.00    +0.006 A 
ENDROOT
BRANCH   1   7
ATOM      7  C   LIG    1       25.778 -21.541   8.435  0.00  0.00    +0.191 C 
BRANCH   7   8
ATOM      8  O   LIG    1       25.897 -20.485   9.374  0.00  0.00    -0.390 OA
ATOM      9  H   LIG    1       25.800 -19.656   8.877  0.00  0.00    +0.210 HD
ENDBRANCH   7   8
ENDBRANCH   1   7
TORSDOF 2
ENDMDL
MODEL 4
REMARK VINA RESULT:      -5.3      3.756      4.667
REMARK  Name = *****
REMARK                            x       y       z     vdW  Elec       q    Type
REMARK                         _______ _______ _______ _____ _____    ______ ____
ROOT
ATOM      1  C   LIG    1       24.174 -21.107   5.212  0.00  0.00    -0.022 A 
ATOM      2  C   LIG    1       24.810 -20.451   4.149  0.00  0.00    +0.006 A 
ATOM      3  C   LIG    1       24.263 -19.287   3.605  0.00  0.00    +0.000 A 
ATOM      4  C   LIG    1       23.071 -18.773   4.111  0.00  0.00    +0.000 A 
ATOM      5  C   LIG    1       22.420 -19.425   5.157  0.00  0.00    +0.000 A 
ATOM      6  C   LIG    1       22.966 -20.589   5.702  0.00  0.00    +0.006 A 
ENDROOT
BRANCH   1   7
ATOM      7  C   LIG    1       24.757 -22.363   5.793  0.00  0.00    +0.191 C 
BRANCH   7   8
ATOM      8  O   LIG    1       24.824 -23.355   4.781  0.00  0.00    -0.390 OA
ATOM      9  H   LIG    1       25.614 -23.161   4.251  0.00  0.00    +0.210 HD
ENDBRANCH   7   8
ENDBRANCH   1   7
TORSDOF 2
ENDMDL
MODEL 5
REMARK VINA RESULT:      -5.2      3.440      4.190
REMARK  Name = *****
REMARK                            x       y       z     vdW  Elec       q    Type
REMARK                         _______ _______ _______ _____ _____    ______ ____
ROOT
ATOM      1  C   LIG    1       23.485 -20.686   5.642  0.00  0.00    -0.022 A 
ATOM      2  C   LIG    1       22.526 -19.724   5.298  0.00  0.00    +0.006 A 
ATOM      3  C   LIG    1       22.776 -18.807   4.275  0.00  0.00    +0.000 A 
ATOM      4  C   LIG    1       23.991 -18.837   3.593  0.00  0.00    +0.000 A 
ATOM      5  C   LIG    1       24.959 -19.778   3.937  0.00  0.00    +0.000 A 
ATOM      6  C   LIG    1       24.710 -20.695   4.960  0.00  0.00    +0.006 A 
ENDROOT
BRANCH   1   7
ATOM      7  C   LIG    1       23.220 -21.667   6.748  0.00  0.00    +0.191 C 
BRANCH   7   8
ATOM      8  O   LIG    1       23.505 -21.052   7.994  0.00  0.00    -0.390 OA
ATOM      9  H   LIG    1       23.205 -20.131   7.927  0.00  0.00    +0.210 HD
ENDBRANCH   7   8
ENDBRANCH   1   7
TORSDOF 2
ENDMDL
MODEL 6
REMARK VINA RESULT:      -5.2      2.086      3.276
REMARK  Name = *****
REMARK                            x       y       z     vdW  Elec       q    Type
REMARK                         _______ _______ _______ _____ _____    ______ ____
ROOT
ATOM      1  C   LIG    1       24.385 -23.081   7.061  0.00  0.00    -0.022 A 
ATOM      2  C   LIG    1       23.818 -21.811   7.238  0.00  0.00    +0.006 A 
ATOM      3  C   LIG    1       24.608 -20.732   7.638  0.00  0.00    +0.000 A 
ATOM      4  C   LIG    1       25.969 -20.913   7.876  0.00  0.00    +0.000 A 
ATOM      5  C   LIG    1       26.541 -22.174   7.720  0.00  0.00    +0.000 A 
ATOM      6  C   LIG    1       25.752 -23.254   7.319  0.00  0.00    +0.006 A 
ENDROOT
BRANCH   1   7
ATOM      7  C   LIG    1       23.535 -24.245   6.638  0.00  0.00    +0.191 C 
BRANCH   7   8
ATOM      8  O   LIG    1       22.172 -23.852   6.646  0.00  0.00    -0.390 OA
ATOM      9  H   LIG    1       21.671 -24.587   7.036  0.00  0.00    +0.210 HD
ENDBRANCH   7   8
ENDBRANCH   1   7
TORSDOF 2
ENDMDL
MODEL 7
REMARK VINA RESULT:      -5.1      2.861      3.464
REMARK  Name = *****
REMARK                            x       y       z     vdW  Elec       q    Type
REMARK                         _______ _______ _______ _____ _____    ______ ____
ROOT
ATOM      1  C   LIG    1       25.679 -20.530   6.155  0.00  0.00    -0.022 A 
ATOM      2  C   LIG    1       25.110 -20.292   4.896  0.00  0.00    +0.006 A 
ATOM      3  C   LIG    1       23.724 -20.296   4.731  0.00  0.00    +0.000 A 
ATOM      4  C   LIG    1       22.892 -20.548   5.821  0.00  0.00    +0.000 A 
ATOM      5  C   LIG    1       23.446 -20.803   7.074  0.00  0.00    +0.000 A 
ATOM      6  C   LIG    1       24.832 -20.798   7.240  0.00  0.00    +0.006 A 
ENDROOT
BRANCH   1   7
ATOM      7  C   LIG    1       27.170 -20.533   6.332  0.00  0.00    +0.191 C 
BRANCH   7   8
ATOM      8  O   LIG    1       27.783 -20.129   5.118  0.00  0.00    -0.390 OA
ATOM      9  H   LIG    1       27.410 -19.261   4.892  0.00  0.00    +0.210 HD
ENDBRANCH   7   8
ENDBRANCH   1   7
TORSDOF 2
ENDMDL
MODEL 8
REMARK VINA RESULT:      -5.1      2.401      3.603
REMARK  Name = *****
REMARK                            x       y       z     vdW  Elec       q    Type
REMARK                         _______ _______ _______ _____ _____    ______ ____
ROOT
ATOM      1  C   LIG    1       25.043 -24.397   6.763  0.00  0.00    -0.022 A 
ATOM      2  C   LIG    1       25.567 -23.187   7.239  0.00  0.00    +0.006 A 
ATOM      3  C   LIG    1       24.726 -22.103   7.496  0.00  0.00    +0.000 A 
ATOM      4  C   LIG    1       23.355 -22.214   7.270  0.00  0.00    +0.000 A 
ATOM      5  C   LIG    1       22.825 -23.406   6.781  0.00  0.00    +0.000 A 
ATOM      6  C   LIG    1       23.665 -24.491   6.524  0.00  0.00    +0.006 A 
ENDROOT
BRANCH   1   7
ATOM      7  C   LIG    1       25.948 -25.562   6.479  0.00  0.00    +0.191 C 
BRANCH   7   8
ATOM      8  O   LIG    1       25.943 -25.825   5.085  0.00  0.00    -0.390 OA
ATOM      9  H   LIG    1       25.127 -25.436   4.730  0.00  0.00    +0.210 HD
ENDBRANCH   7   8
ENDBRANCH   1   7
TORSDOF 2
ENDMDL
MODEL 9
REMARK VINA RESULT:      -5.1      3.453      4.173
REMARK  Name = *****
REMARK                            x       y       z     vdW  Elec       q    Type
REMARK                         _______ _______ _______ _____ _____    ______ ____
ROOT
ATOM      1  C   LIG    1       24.063 -21.020   5.436  0.00  0.00    -0.022 A 
ATOM      2  C   LIG    1       22.861 -20.371   5.752  0.00  0.00    +0.006 A 
ATOM      3  C   LIG    1       22.436 -19.266   5.013  0.00  0.00    +0.000 A 
ATOM      4  C   LIG    1       23.212 -18.792   3.957  0.00  0.00    +0.000 A 
ATOM      5  C   LIG    1       24.417 -19.418   3.643  0.00  0.00    +0.000 A 
ATOM      6  C   LIG    1       24.843 -20.524   4.382  0.00  0.00    +0.006 A 
ENDROOT
BRANCH   1   7
ATOM      7  C   LIG    1       24.525 -22.205   6.236  0.00  0.00    +0.191 C 
BRANCH   7   8
ATOM      8  O   LIG    1       25.935 -22.312   6.135  0.00  0.00    -0.390 OA
ATOM      9  H   LIG    1       26.159 -23.239   6.312  0.00  0.00    +0.210 HD
ENDBRANCH   7   8
ENDBRANCH   1   7
TORSDOF 2
ENDMDL
