MODEL 1
REMARK VINA RESULT:      -7.5      0.000      0.000
REMARK  Name = *****
REMARK                            x       y       z     vdW  Elec       q    Type
REMARK                         _______ _______ _______ _____ _____    ______ ____
ROOT
ATOM      1  O   LIG    1       27.795 -19.866   5.716  0.00  0.00    -0.486 OA
ENDROOT
BRANCH   1   3
ATOM      2  C   LIG    1       25.496 -20.640   5.765  0.00  0.00    +0.162 A 
ATOM      3  C   LIG    1       26.715 -20.341   6.440  0.00  0.00    +0.162 A 
ATOM      4  C   LIG    1       26.733 -20.494   7.834  0.00  0.00    +0.049 A 
ATOM      5  C   LIG    1       25.591 -20.847   8.558  0.00  0.00    +0.004 A 
ATOM      6  C   LIG    1       24.400 -21.099   7.900  0.00  0.00    +0.004 A 
ATOM      7  C   LIG    1       24.358 -21.006   6.514  0.00  0.00    +0.049 A 
BRANCH   2   8
ATOM      8  O   LIG    1       25.440 -20.504   4.393  0.00  0.00    -0.484 OA
BRANCH   8   9
ATOM      9  C   LIG    1       24.155 -20.409   3.767  0.00  0.00    +0.256 C 
BRANCH   9  11
ATOM     10  C   LIG    1       22.447 -18.653   4.304  0.00  0.00    +0.007 C 
ATOM     11  C   LIG    1       23.624 -18.994   3.842  0.00  0.00    +0.006 C 
ENDBRANCH   9  11
ENDBRANCH   8   9
ENDBRANCH   2   8
ENDBRANCH   1   3
BRANCH   1  12
ATOM     12  C   LIG    1       29.147 -20.209   6.096  0.00  0.00    +0.261 C 
BRANCH  12  13
ATOM     13  C   LIG    1       30.126 -19.018   6.271  0.00  0.00    +0.166 C 
BRANCH  13  14
ATOM     14  O   LIG    1       29.677 -17.953   5.384  0.00  0.00    -0.387 OA
ATOM     15  H   LIG    1       28.979 -17.442   5.834  0.00  0.00    +0.210 HD
ENDBRANCH  13  14
BRANCH  13  16
ATOM     16  C   LIG    1       30.352 -18.388   7.681  0.00  0.00    +0.115 C 
BRANCH  16  17
ATOM     17  N   LIG    1       31.704 -17.976   8.073  0.00  0.00    -0.311 NA
ATOM     18  H   LIG    1       32.024 -17.246   7.432  0.00  0.00    +0.122 HD
BRANCH  17  19
ATOM     19  C   LIG    1       31.801 -17.478   9.464  0.00  0.00    +0.048 C 
ATOM     20  C   LIG    1       30.410 -17.356  10.107  0.00  0.00    +0.024 C 
ATOM     21  C   LIG    1       32.460 -16.098   9.575  0.00  0.00    +0.024 C 
ENDBRANCH  17  19
ENDBRANCH  16  17
ENDBRANCH  13  16
ENDBRANCH  12  13
ENDBRANCH   1  12
TORSDOF 10
ENDMDL
MODEL 2
REMARK VINA RESULT:      -7.3      1.941      2.487
REMARK  Name = *****
REMARK                            x       y       z     vdW  Elec       q    Type
REMARK                         _______ _______ _______ _____ _____    ______ ____
ROOT
ATOM      1  O   LIG    1       25.995 -20.508   6.871  0.00  0.00    -0.486 OA
ENDROOT
BRANCH   1   3
ATOM      2  C   LIG    1       24.000 -21.857   6.571  0.00  0.00    +0.162 A 
ATOM      3  C   LIG    1       25.409 -21.758   6.762  0.00  0.00    +0.162 A 
ATOM      4  C   LIG    1       26.128 -22.956   6.888  0.00  0.00    +0.049 A 
ATOM      5  C   LIG    1       25.496 -24.203   6.908  0.00  0.00    +0.004 A 
ATOM      6  C   LIG    1       24.123 -24.290   6.760  0.00  0.00    +0.004 A 
ATOM      7  C   LIG    1       23.384 -23.126   6.582  0.00  0.00    +0.049 A 
BRANCH   2   8
ATOM      8  O   LIG    1       23.260 -20.700   6.439  0.00  0.00    -0.484 OA
BRANCH   8   9
ATOM      9  C   LIG    1       22.469 -20.525   5.257  0.00  0.00    +0.256 C 
BRANCH   9  11
ATOM     10  C   LIG    1       22.163 -18.151   4.509  0.00  0.00    +0.007 C 
ATOM     11  C   LIG    1       22.863 -19.258   4.530  0.00  0.00    +0.006 C 
ENDBRANCH   9  11
ENDBRANCH   8   9
ENDBRANCH   2   8
ENDBRANCH   1   3
BRANCH   1  12
ATOM     12  C   LIG    1       27.372 -20.372   7.290  0.00  0.00    +0.261 C 
BRANCH  12  13
ATOM     13  C   LIG    1       28.403 -20.113   6.160  0.00  0.00    +0.166 C 
BRANCH  13  14
ATOM     14  O   LIG    1       27.660 -20.000   4.912  0.00  0.00    -0.387 OA
ATOM     15  H   LIG    1       27.344 -19.082   4.815  0.00  0.00    +0.210 HD
ENDBRANCH  13  14
BRANCH  13  16
ATOM     16  C   LIG    1       29.367 -18.888   6.242  0.00  0.00    +0.115 C 
BRANCH  16  17
ATOM     17  N   LIG    1       30.792 -19.115   6.505  0.00  0.00    -0.311 NA
ATOM     18  H   LIG    1       31.339 -18.464   5.937  0.00  0.00    +0.122 HD
BRANCH  17  19
ATOM     19  C   LIG    1       31.174 -18.958   7.928  0.00  0.00    +0.048 C 
ATOM     20  C   LIG    1       31.115 -20.304   8.669  0.00  0.00    +0.024 C 
ATOM     21  C   LIG    1       30.269 -17.990   8.699  0.00  0.00    +0.024 C 
ENDBRANCH  17  19
ENDBRANCH  16  17
ENDBRANCH  13  16
ENDBRANCH  12  13
ENDBRANCH   1  12
TORSDOF 10
ENDMDL
MODEL 3
REMARK VINA RESULT:      -7.3      1.808      3.474
REMARK  Name = *****
REMARK                            x       y       z     vdW  Elec       q    Type
REMARK                         _______ _______ _______ _____ _____    ______ ____
ROOT
ATOM      1  O   LIG    1       26.117 -21.145   5.780  0.00  0.00    -0.486 OA
ENDROOT
BRANCH   1   3
ATOM      2  C   LIG    1       23.769 -20.556   5.960  0.00  0.00    +0.162 A 
ATOM      3  C   LIG    1       25.033 -20.421   5.314  0.00  0.00    +0.162 A 
ATOM      4  C   LIG    1       25.093 -19.590   4.186  0.00  0.00    +0.049 A 
ATOM      5  C   LIG    1       23.956 -18.973   3.655  0.00  0.00    +0.004 A 
ATOM      6  C   LIG    1       22.726 -19.140   4.265  0.00  0.00    +0.004 A 
ATOM      7  C   LIG    1       22.637 -19.917   5.415  0.00  0.00    +0.049 A 
BRANCH   2   8
ATOM      8  O   LIG    1       23.671 -21.363   7.075  0.00  0.00    -0.484 OA
BRANCH   8   9
ATOM      9  C   LIG    1       23.055 -22.650   6.937  0.00  0.00    +0.256 C 
BRANCH   9  11
ATOM     10  C   LIG    1       23.922 -24.923   6.329  0.00  0.00    +0.007 C 
ATOM     11  C   LIG    1       24.100 -23.741   6.866  0.00  0.00    +0.006 C 
ENDBRANCH   9  11
ENDBRANCH   8   9
ENDBRANCH   2   8
ENDBRANCH   1   3
BRANCH   1  12
ATOM     12  C   LIG    1       27.039 -20.565   6.731  0.00  0.00    +0.261 C 
BRANCH  12  13
ATOM     13  C   LIG    1       28.490 -20.351   6.224  0.00  0.00    +0.166 C 
BRANCH  13  14
ATOM     14  O   LIG    1       28.466 -19.227   5.298  0.00  0.00    -0.387 OA
ATOM     15  H   LIG    1       28.120 -18.443   5.764  0.00  0.00    +0.210 HD
ENDBRANCH  13  14
BRANCH  13  16
ATOM     16  C   LIG    1       29.647 -20.095   7.240  0.00  0.00    +0.115 C 
BRANCH  16  17
ATOM     17  N   LIG    1       29.372 -19.327   8.460  0.00  0.00    -0.311 NA
ATOM     18  H   LIG    1       29.479 -19.945   9.268  0.00  0.00    +0.122 HD
BRANCH  17  19
ATOM     19  C   LIG    1       30.245 -18.144   8.634  0.00  0.00    +0.048 C 
ATOM     20  C   LIG    1       31.714 -18.490   8.338  0.00  0.00    +0.024 C 
ATOM     21  C   LIG    1       30.208 -17.560  10.052  0.00  0.00    +0.024 C 
ENDBRANCH  17  19
ENDBRANCH  16  17
ENDBRANCH  13  16
ENDBRANCH  12  13
ENDBRANCH   1  12
TORSDOF 10
ENDMDL
MODEL 4
REMARK VINA RESULT:      -7.2      2.925      3.948
REMARK  Name = *****
REMARK                            x       y       z     vdW  Elec       q    Type
REMARK                         _______ _______ _______ _____ _____    ______ ____
ROOT
ATOM      1  O   LIG    1       27.153 -21.925   7.285  0.00  0.00    -0.486 OA
ENDROOT
BRANCH   1   3
ATOM      2  C   LIG    1       25.198 -23.334   6.998  0.00  0.00    +0.162 A 
ATOM      3  C   LIG    1       25.775 -22.053   7.241  0.00  0.00    +0.162 A 
ATOM      4  C   LIG    1       24.898 -20.966   7.367  0.00  0.00    +0.049 A 
ATOM      5  C   LIG    1       23.519 -21.099   7.187  0.00  0.00    +0.004 A 
ATOM      6  C   LIG    1       22.968 -22.339   6.914  0.00  0.00    +0.004 A 
ATOM      7  C   LIG    1       23.802 -23.448   6.831  0.00  0.00    +0.049 A 
BRANCH   2   8
ATOM      8  O   LIG    1       26.028 -24.429   6.871  0.00  0.00    -0.484 OA
BRANCH   8   9
ATOM      9  C   LIG    1       25.776 -25.360   5.812  0.00  0.00    +0.256 C 
BRANCH   9  11
ATOM     10  C   LIG    1       24.490 -27.470   6.239  0.00  0.00    +0.007 C 
ATOM     11  C   LIG    1       25.582 -26.757   6.360  0.00  0.00    +0.006 C 
ENDBRANCH   9  11
ENDBRANCH   8   9
ENDBRANCH   2   8
ENDBRANCH   1   3
BRANCH   1  12
ATOM     12  C   LIG    1       27.770 -20.622   7.393  0.00  0.00    +0.261 C 
BRANCH  12  13
ATOM     13  C   LIG    1       28.636 -20.180   6.184  0.00  0.00    +0.166 C 
BRANCH  13  14
ATOM     14  O   LIG    1       27.740 -20.000   5.050  0.00  0.00    -0.387 OA
ATOM     15  H   LIG    1       27.516 -19.054   4.972  0.00  0.00    +0.210 HD
ENDBRANCH  13  14
BRANCH  13  16
ATOM     16  C   LIG    1       29.527 -18.902   6.283  0.00  0.00    +0.115 C 
BRANCH  16  17
ATOM     17  N   LIG    1       30.950 -19.045   6.609  0.00  0.00    -0.311 NA
ATOM     18  H   LIG    1       31.485 -18.377   6.048  0.00  0.00    +0.122 HD
BRANCH  17  19
ATOM     19  C   LIG    1       31.263 -18.836   8.041  0.00  0.00    +0.048 C 
ATOM     20  C   LIG    1       31.256 -20.169   8.809  0.00  0.00    +0.024 C 
ATOM     21  C   LIG    1       30.270 -17.912   8.755  0.00  0.00    +0.024 C 
ENDBRANCH  17  19
ENDBRANCH  16  17
ENDBRANCH  13  16
ENDBRANCH  12  13
ENDBRANCH   1  12
TORSDOF 10
ENDMDL
MODEL 5
REMARK VINA RESULT:      -7.1      3.810      7.269
REMARK  Name = *****
REMARK                            x       y       z     vdW  Elec       q    Type
REMARK                         _______ _______ _______ _____ _____    ______ ____
ROOT
ATOM      1  O   LIG    1       24.293 -21.184   6.920  0.00  0.00    -0.486 OA
ENDROOT
BRANCH   1   3
ATOM      2  C   LIG    1       25.031 -20.140   4.857  0.00  0.00    +0.162 A 
ATOM      3  C   LIG    1       23.998 -20.432   5.795  0.00  0.00    +0.162 A 
ATOM      4  C   LIG    1       22.731 -19.883   5.549  0.00  0.00    +0.049 A 
ATOM      5  C   LIG    1       22.491 -19.018   4.477  0.00  0.00    +0.004 A 
ATOM      6  C   LIG    1       23.508 -18.708   3.592  0.00  0.00    +0.004 A 
ATOM      7  C   LIG    1       24.765 -19.275   3.776  0.00  0.00    +0.049 A 
BRANCH   2   8
ATOM      8  O   LIG    1       26.290 -20.666   5.063  0.00  0.00    -0.484 OA
BRANCH   8   9
ATOM      9  C   LIG    1       27.336 -19.787   5.494  0.00  0.00    +0.256 C 
BRANCH   9  11
ATOM     10  C   LIG    1       27.951 -21.387   7.324  0.00  0.00    +0.007 C 
ATOM     11  C   LIG    1       28.294 -20.505   6.418  0.00  0.00    +0.006 C 
ENDBRANCH   9  11
ENDBRANCH   8   9
ENDBRANCH   2   8
ENDBRANCH   1   3
BRANCH   1  12
ATOM     12  C   LIG    1       23.441 -22.282   7.318  0.00  0.00    +0.261 C 
BRANCH  12  13
ATOM     13  C   LIG    1       23.911 -23.697   6.887  0.00  0.00    +0.166 C 
BRANCH  13  14
ATOM     14  O   LIG    1       22.727 -24.448   6.493  0.00  0.00    -0.387 OA
ATOM     15  H   LIG    1       22.191 -23.898   5.893  0.00  0.00    +0.210 HD
ENDBRANCH  13  14
BRANCH  13  16
ATOM     16  C   LIG    1       24.969 -23.860   5.751  0.00  0.00    +0.115 C 
BRANCH  16  17
ATOM     17  N   LIG    1       24.764 -24.888   4.725  0.00  0.00    -0.311 NA
ATOM     18  H   LIG    1       25.111 -24.534   3.830  0.00  0.00    +0.122 HD
BRANCH  17  19
ATOM     19  C   LIG    1       25.425 -26.179   5.026  0.00  0.00    +0.048 C 
ATOM     20  C   LIG    1       24.397 -27.245   5.438  0.00  0.00    +0.024 C 
ATOM     21  C   LIG    1       26.448 -26.090   6.164  0.00  0.00    +0.024 C 
ENDBRANCH  17  19
ENDBRANCH  16  17
ENDBRANCH  13  16
ENDBRANCH  12  13
ENDBRANCH   1  12
TORSDOF 10
ENDMDL
MODEL 6
REMARK VINA RESULT:      -7.1      3.637      5.790
REMARK  Name = *****
REMARK                            x       y       z     vdW  Elec       q    Type
REMARK                         _______ _______ _______ _____ _____    ______ ____
ROOT
ATOM      1  O   LIG    1       26.764 -22.426   6.955  0.00  0.00    -0.486 OA
ENDROOT
BRANCH   1   3
ATOM      2  C   LIG    1       25.031 -24.085   6.591  0.00  0.00    +0.162 A 
ATOM      3  C   LIG    1       25.425 -22.775   6.993  0.00  0.00    +0.162 A 
ATOM      4  C   LIG    1       24.408 -21.880   7.356  0.00  0.00    +0.049 A 
ATOM      5  C   LIG    1       23.054 -22.214   7.259  0.00  0.00    +0.004 A 
ATOM      6  C   LIG    1       22.677 -23.475   6.832  0.00  0.00    +0.004 A 
ATOM      7  C   LIG    1       23.660 -24.405   6.511  0.00  0.00    +0.049 A 
BRANCH   2   8
ATOM      8  O   LIG    1       26.003 -24.995   6.230  0.00  0.00    -0.484 OA
BRANCH   8   9
ATOM      9  C   LIG    1       25.645 -26.065   5.346  0.00  0.00    +0.256 C 
BRANCH   9  11
ATOM     10  C   LIG    1       24.508 -28.125   6.212  0.00  0.00    +0.007 C 
ATOM     11  C   LIG    1       25.578 -27.379   6.092  0.00  0.00    +0.006 C 
ENDBRANCH   9  11
ENDBRANCH   8   9
ENDBRANCH   2   8
ENDBRANCH   1   3
BRANCH   1  12
ATOM     12  C   LIG    1       27.250 -21.283   7.694  0.00  0.00    +0.261 C 
BRANCH  12  13
ATOM     13  C   LIG    1       28.132 -20.285   6.898  0.00  0.00    +0.166 C 
BRANCH  13  14
ATOM     14  O   LIG    1       29.358 -20.982   6.533  0.00  0.00    -0.387 OA
ATOM     15  H   LIG    1       29.266 -21.925   6.768  0.00  0.00    +0.210 HD
ENDBRANCH  13  14
BRANCH  13  16
ATOM     16  C   LIG    1       27.578 -19.606   5.605  0.00  0.00    +0.115 C 
BRANCH  16  17
ATOM     17  N   LIG    1       26.721 -20.381   4.701  0.00  0.00    -0.311 NA
ATOM     18  H   LIG    1       26.625 -21.329   5.071  0.00  0.00    +0.122 HD
BRANCH  17  19
ATOM     19  C   LIG    1       25.374 -19.797   4.502  0.00  0.00    +0.048 C 
ATOM     20  C   LIG    1       24.390 -20.848   3.960  0.00  0.00    +0.024 C 
ATOM     21  C   LIG    1       25.356 -18.625   3.515  0.00  0.00    +0.024 C 
ENDBRANCH  17  19
ENDBRANCH  16  17
ENDBRANCH  13  16
ENDBRANCH  12  13
ENDBRANCH   1  12
TORSDOF 10
ENDMDL
MODEL 7
REMARK VINA RESULT:      -7.1      4.436      7.224
REMARK  Name = *****
REMARK                            x       y       z     vdW  Elec       q    Type
REMARK                         _______ _______ _______ _____ _____    ______ ____
ROOT
ATOM      1  O   LIG    1       23.624 -22.899   6.405  0.00  0.00    -0.486 OA
ENDROOT
BRANCH   1   3
ATOM      2  C   LIG    1       25.282 -21.231   5.807  0.00  0.00    +0.162 A 
ATOM      3  C   LIG    1       24.647 -22.048   6.788  0.00  0.00    +0.162 A 
ATOM      4  C   LIG    1       25.143 -21.984   8.098  0.00  0.00    +0.049 A 
ATOM      5  C   LIG    1       26.262 -21.217   8.433  0.00  0.00    +0.004 A 
ATOM      6  C   LIG    1       26.897 -20.455   7.468  0.00  0.00    +0.004 A 
ATOM      7  C   LIG    1       26.403 -20.455   6.169  0.00  0.00    +0.049 A 
BRANCH   2   8
ATOM      8  O   LIG    1       24.820 -21.264   4.508  0.00  0.00    -0.484 OA
BRANCH   8   9
ATOM      9  C   LIG    1       24.241 -20.075   3.956  0.00  0.00    +0.256 C 
BRANCH   9  11
ATOM     10  C   LIG    1       22.294 -18.609   4.545  0.00  0.00    +0.007 C 
ATOM     11  C   LIG    1       22.930 -19.750   4.637  0.00  0.00    +0.006 C 
ENDBRANCH   9  11
ENDBRANCH   8   9
ENDBRANCH   2   8
ENDBRANCH   1   3
BRANCH   1  12
ATOM     12  C   LIG    1       23.676 -24.307   6.729  0.00  0.00    +0.261 C 
BRANCH  12  13
ATOM     13  C   LIG    1       24.549 -25.186   5.795  0.00  0.00    +0.166 C 
BRANCH  13  14
ATOM     14  O   LIG    1       24.686 -24.476   4.531  0.00  0.00    -0.387 OA
ATOM     15  H   LIG    1       25.629 -24.457   4.281  0.00  0.00    +0.210 HD
ENDBRANCH  13  14
BRANCH  13  16
ATOM     16  C   LIG    1       25.980 -25.625   6.242  0.00  0.00    +0.115 C 
BRANCH  16  17
ATOM     17  N   LIG    1       26.191 -26.995   6.721  0.00  0.00    -0.311 NA
ATOM     18  H   LIG    1       26.414 -26.964   7.718  0.00  0.00    +0.122 HD
BRANCH  17  19
ATOM     19  C   LIG    1       25.031 -27.892   6.509  0.00  0.00    +0.048 C 
ATOM     20  C   LIG    1       24.968 -28.981   7.594  0.00  0.00    +0.024 C 
ATOM     21  C   LIG    1       25.057 -28.617   5.159  0.00  0.00    +0.024 C 
ENDBRANCH  17  19
ENDBRANCH  16  17
ENDBRANCH  13  16
ENDBRANCH  12  13
ENDBRANCH   1  12
TORSDOF 10
ENDMDL
MODEL 8
REMARK VINA RESULT:      -7.1      3.918      6.830
REMARK  Name = *****
REMARK                            x       y       z     vdW  Elec       q    Type
REMARK                         _______ _______ _______ _____ _____    ______ ____
ROOT
ATOM      1  O   LIG    1       25.016 -21.281   7.438  0.00  0.00    -0.486 OA
ENDROOT
BRANCH   1   3
ATOM      2  C   LIG    1       26.493 -20.319   5.770  0.00  0.00    +0.162 A 
ATOM      3  C   LIG    1       26.217 -20.667   7.125  0.00  0.00    +0.162 A 
ATOM      4  C   LIG    1       27.220 -20.414   8.071  0.00  0.00    +0.049 A 
ATOM      5  C   LIG    1       28.474 -19.915   7.710  0.00  0.00    +0.004 A 
ATOM      6  C   LIG    1       28.749 -19.615   6.387  0.00  0.00    +0.004 A 
ATOM      7  C   LIG    1       27.761 -19.806   5.428  0.00  0.00    +0.049 A 
BRANCH   2   8
ATOM      8  O   LIG    1       25.529 -20.551   4.810  0.00  0.00    -0.484 OA
BRANCH   8   9
ATOM      9  C   LIG    1       25.215 -19.499   3.888  0.00  0.00    +0.256 C 
BRANCH   9  11
ATOM     10  C   LIG    1       22.876 -19.450   4.792  0.00  0.00    +0.007 C 
ATOM     11  C   LIG    1       23.719 -19.290   3.802  0.00  0.00    +0.006 C 
ENDBRANCH   9  11
ENDBRANCH   8   9
ENDBRANCH   2   8
ENDBRANCH   1   3
BRANCH   1  12
ATOM     12  C   LIG    1       24.923 -22.722   7.517  0.00  0.00    +0.261 C 
BRANCH  12  13
ATOM     13  C   LIG    1       23.818 -23.379   6.648  0.00  0.00    +0.166 C 
BRANCH  13  14
ATOM     14  O   LIG    1       23.908 -22.796   5.316  0.00  0.00    -0.387 OA
ATOM     15  H   LIG    1       23.260 -23.237   4.735  0.00  0.00    +0.210 HD
ENDBRANCH  13  14
BRANCH  13  16
ATOM     16  C   LIG    1       23.772 -24.930   6.477  0.00  0.00    +0.115 C 
BRANCH  16  17
ATOM     17  N   LIG    1       24.137 -25.519   5.184  0.00  0.00    -0.311 NA
ATOM     18  H   LIG    1       24.518 -24.783   4.584  0.00  0.00    +0.122 HD
BRANCH  17  19
ATOM     19  C   LIG    1       25.120 -26.623   5.283  0.00  0.00    +0.048 C 
ATOM     20  C   LIG    1       24.430 -27.946   5.655  0.00  0.00    +0.024 C 
ATOM     21  C   LIG    1       26.207 -26.381   6.337  0.00  0.00    +0.024 C 
ENDBRANCH  17  19
ENDBRANCH  16  17
ENDBRANCH  13  16
ENDBRANCH  12  13
ENDBRANCH   1  12
TORSDOF 10
ENDMDL
MODEL 9
REMARK VINA RESULT:      -7.0      2.903      7.294
REMARK  Name = *****
REMARK                            x       y       z     vdW  Elec       q    Type
REMARK                         _______ _______ _______ _____ _____    ______ ____
ROOT
ATOM      1  O   LIG    1       28.103 -21.360   8.379  0.00  0.00    -0.486 OA
ENDROOT
BRANCH   1   3
ATOM      2  C   LIG    1       29.649 -19.558   7.875  0.00  0.00    +0.162 A 
ATOM      3  C   LIG    1       28.601 -20.438   7.474  0.00  0.00    +0.162 A 
ATOM      4  C   LIG    1       28.085 -20.277   6.180  0.00  0.00    +0.049 A 
ATOM      5  C   LIG    1       28.513 -19.252   5.331  0.00  0.00    +0.004 A 
ATOM      6  C   LIG    1       29.504 -18.377   5.741  0.00  0.00    +0.004 A 
ATOM      7  C   LIG    1       30.073 -18.538   6.999  0.00  0.00    +0.049 A 
BRANCH   2   8
ATOM      8  O   LIG    1       30.183 -19.688   9.140  0.00  0.00    -0.484 OA
BRANCH   8   9
ATOM      9  C   LIG    1       31.098 -18.686   9.602  0.00  0.00    +0.256 C 
BRANCH   9  11
ATOM     10  C   LIG    1       30.901 -16.595  10.971  0.00  0.00    +0.007 C 
ATOM     11  C   LIG    1       30.420 -17.747  10.574  0.00  0.00    +0.006 C 
ENDBRANCH   9  11
ENDBRANCH   8   9
ENDBRANCH   2   8
ENDBRANCH   1   3
BRANCH   1  12
ATOM     12  C   LIG    1       26.912 -22.121   8.077  0.00  0.00    +0.261 C 
BRANCH  12  13
ATOM     13  C   LIG    1       25.566 -21.462   8.481  0.00  0.00    +0.166 C 
BRANCH  13  14
ATOM     14  O   LIG    1       25.850 -20.514   9.550  0.00  0.00    -0.387 OA
ATOM     15  H   LIG    1       25.535 -20.888  10.394  0.00  0.00    +0.210 HD
ENDBRANCH  13  14
BRANCH  13  16
ATOM     16  C   LIG    1       24.704 -20.718   7.413  0.00  0.00    +0.115 C 
BRANCH  16  17
ATOM     17  N   LIG    1       23.353 -21.206   7.117  0.00  0.00    -0.311 NA
ATOM     18  H   LIG    1       22.673 -20.568   7.538  0.00  0.00    +0.122 HD
BRANCH  17  19
ATOM     19  C   LIG    1       23.064 -21.337   5.670  0.00  0.00    +0.048 C 
ATOM     20  C   LIG    1       24.354 -21.581   4.869  0.00  0.00    +0.024 C 
ATOM     21  C   LIG    1       22.398 -20.096   5.065  0.00  0.00    +0.024 C 
ENDBRANCH  17  19
ENDBRANCH  16  17
ENDBRANCH  13  16
ENDBRANCH  12  13
ENDBRANCH   1  12
TORSDOF 10
ENDMDL
