MODEL 1
REMARK VINA RESULT:      -9.2      0.000      0.000
REMARK  Name = *****
REMARK                            x       y       z     vdW  Elec       q    Type
REMARK                         _______ _______ _______ _____ _____    ______ ____
ROOT
ATOM      1  C   LIG    1       28.223 -20.829   7.227  0.00  0.00    +0.182 A 
ATOM      2  N   LIG    1       27.393 -21.859   7.614  0.00  0.00    -0.207 NA
ATOM      3  C   LIG    1       26.371 -21.793   6.778  0.00  0.00    +0.157 A 
ATOM      4  N   LIG    1       26.598 -20.742   5.931  0.00  0.00    -0.258 N 
ATOM      5  H   LIG    1       26.020 -20.402   5.172  0.00  0.00    +0.191 HD
ATOM      6  N   LIG    1       27.756 -20.122   6.188  0.00  0.00    -0.152 NA
ENDROOT
BRANCH   1  11
ATOM      7  C   LIG    1       31.164 -19.017   8.645  0.00  0.00    +0.141 A 
ATOM      8  N   LIG    1       31.927 -20.011   9.164  0.00  0.00    -0.245 NA
ATOM      9  C   LIG    1       31.460 -21.270   9.037  0.00  0.00    +0.113 A 
ATOM     10  C   LIG    1       30.266 -21.584   8.415  0.00  0.00    +0.031 A 
ATOM     11  C   LIG    1       29.491 -20.546   7.886  0.00  0.00    +0.025 A 
ATOM     12  C   LIG    1       29.952 -19.234   8.006  0.00  0.00    +0.050 A 
BRANCH   7  14
ATOM     13  N   LIG    1       32.141 -16.625   8.921  0.00  0.00    -0.189 NA
ATOM     14  C   LIG    1       31.684 -17.685   8.793  0.00  0.00    +0.119 C 
ENDBRANCH   7  14
ENDBRANCH   1  11
BRANCH   3  15
ATOM     15  C   LIG    1       25.196 -22.666   6.735  0.00  0.00    +0.021 A 
ATOM     16  C   LIG    1       23.899 -22.181   6.931  0.00  0.00    +0.031 A 
ATOM     17  C   LIG    1       22.838 -23.073   6.877  0.00  0.00    +0.111 A 
ATOM     18  N   LIG    1       22.979 -24.391   6.645  0.00  0.00    -0.263 NA
ATOM     19  C   LIG    1       24.237 -24.843   6.456  0.00  0.00    +0.111 A 
ATOM     20  C   LIG    1       25.359 -24.032   6.490  0.00  0.00    +0.031 A 
ENDBRANCH   3  15
TORSDOF 3
ENDMDL
MODEL 2
REMARK VINA RESULT:      -9.0      1.434      1.866
REMARK  Name = *****
REMARK                            x       y       z     vdW  Elec       q    Type
REMARK                         _______ _______ _______ _____ _____    ______ ____
ROOT
ATOM      1  C   LIG    1       27.531 -20.626   7.864  0.00  0.00    +0.182 A 
ATOM      2  N   LIG    1       27.172 -21.699   7.077  0.00  0.00    -0.207 NA
ATOM      3  C   LIG    1       26.039 -22.131   7.603  0.00  0.00    +0.157 A 
ATOM      4  N   LIG    1       25.753 -21.334   8.678  0.00  0.00    -0.258 N 
ATOM      5  H   LIG    1       24.965 -21.382   9.313  0.00  0.00    +0.191 HD
ATOM      6  N   LIG    1       26.672 -20.378   8.862  0.00  0.00    -0.152 NA
ENDROOT
BRANCH   1  11
ATOM      7  C   LIG    1       30.674 -18.682   8.405  0.00  0.00    +0.141 A 
ATOM      8  N   LIG    1       31.045 -18.327   7.150  0.00  0.00    -0.245 NA
ATOM      9  C   LIG    1       30.250 -18.734   6.139  0.00  0.00    +0.113 A 
ATOM     10  C   LIG    1       29.100 -19.478   6.322  0.00  0.00    +0.031 A 
ATOM     11  C   LIG    1       28.732 -19.837   7.623  0.00  0.00    +0.025 A 
ATOM     12  C   LIG    1       29.539 -19.429   8.687  0.00  0.00    +0.050 A 
BRANCH   7  14
ATOM     13  N   LIG    1       32.252 -17.850  10.294  0.00  0.00    -0.189 NA
ATOM     14  C   LIG    1       31.537 -18.236   9.464  0.00  0.00    +0.119 C 
ENDBRANCH   7  14
ENDBRANCH   1  11
BRANCH   3  15
ATOM     15  C   LIG    1       25.215 -23.252   7.148  0.00  0.00    +0.021 A 
ATOM     16  C   LIG    1       23.824 -23.160   7.040  0.00  0.00    +0.031 A 
ATOM     17  C   LIG    1       23.113 -24.268   6.603  0.00  0.00    +0.111 A 
ATOM     18  N   LIG    1       23.685 -25.441   6.270  0.00  0.00    -0.263 NA
ATOM     19  C   LIG    1       25.028 -25.513   6.377  0.00  0.00    +0.111 A 
ATOM     20  C   LIG    1       25.824 -24.462   6.803  0.00  0.00    +0.031 A 
ENDBRANCH   3  15
TORSDOF 3
ENDMDL
MODEL 3
REMARK VINA RESULT:      -9.0      1.656      1.880
REMARK  Name = *****
REMARK                            x       y       z     vdW  Elec       q    Type
REMARK                         _______ _______ _______ _____ _____    ______ ____
ROOT
ATOM      1  C   LIG    1       28.619 -19.893   6.716  0.00  0.00    +0.182 A 
ATOM      2  N   LIG    1       27.380 -20.303   7.160  0.00  0.00    -0.207 NA
ATOM      3  C   LIG    1       26.630 -20.326   6.072  0.00  0.00    +0.157 A 
ATOM      4  N   LIG    1       27.413 -19.929   5.022  0.00  0.00    -0.258 N 
ATOM      5  H   LIG    1       27.162 -19.827   4.046  0.00  0.00    +0.191 HD
ATOM      6  N   LIG    1       28.667 -19.655   5.398  0.00  0.00    -0.152 NA
ENDROOT
BRANCH   1  11
ATOM      7  C   LIG    1       31.408 -18.391   8.693  0.00  0.00    +0.141 A 
ATOM      8  N   LIG    1       31.964 -19.460   9.316  0.00  0.00    -0.245 NA
ATOM      9  C   LIG    1       31.410 -20.665   9.074  0.00  0.00    +0.113 A 
ATOM     10  C   LIG    1       30.327 -20.855   8.237  0.00  0.00    +0.031 A 
ATOM     11  C   LIG    1       29.765 -19.742   7.603  0.00  0.00    +0.025 A 
ATOM     12  C   LIG    1       30.319 -18.482   7.838  0.00  0.00    +0.050 A 
BRANCH   7  14
ATOM     13  N   LIG    1       32.496 -16.077   9.153  0.00  0.00    -0.189 NA
ATOM     14  C   LIG    1       32.017 -17.118   8.967  0.00  0.00    +0.119 C 
ENDBRANCH   7  14
ENDBRANCH   1  11
BRANCH   3  15
ATOM     15  C   LIG    1       25.218 -20.702   5.970  0.00  0.00    +0.021 A 
ATOM     16  C   LIG    1       24.515 -20.644   4.762  0.00  0.00    +0.031 A 
ATOM     17  C   LIG    1       23.179 -21.015   4.749  0.00  0.00    +0.111 A 
ATOM     18  N   LIG    1       22.507 -21.433   5.838  0.00  0.00    -0.263 NA
ATOM     19  C   LIG    1       23.200 -21.486   6.995  0.00  0.00    +0.111 A 
ATOM     20  C   LIG    1       24.535 -21.137   7.109  0.00  0.00    +0.031 A 
ENDBRANCH   3  15
TORSDOF 3
ENDMDL
MODEL 4
REMARK VINA RESULT:      -8.8      0.840      7.570
REMARK  Name = *****
REMARK                            x       y       z     vdW  Elec       q    Type
REMARK                         _______ _______ _______ _____ _____    ______ ____
ROOT
ATOM      1  C   LIG    1       26.283 -21.679   6.696  0.00  0.00    +0.182 A 
ATOM      2  N   LIG    1       27.350 -21.832   7.555  0.00  0.00    -0.207 NA
ATOM      3  C   LIG    1       28.157 -20.826   7.265  0.00  0.00    +0.157 A 
ATOM      4  N   LIG    1       27.576 -20.110   6.253  0.00  0.00    -0.258 N 
ATOM      5  H   LIG    1       27.919 -19.281   5.783  0.00  0.00    +0.191 HD
ATOM      6  N   LIG    1       26.397 -20.622   5.880  0.00  0.00    -0.152 NA
ENDROOT
BRANCH   1  11
ATOM      7  C   LIG    1       24.187 -24.753   6.382  0.00  0.00    +0.141 A 
ATOM      8  N   LIG    1       22.938 -24.315   6.680  0.00  0.00    -0.245 NA
ATOM      9  C   LIG    1       22.804 -23.007   6.980  0.00  0.00    +0.113 A 
ATOM     10  C   LIG    1       23.859 -22.114   6.996  0.00  0.00    +0.031 A 
ATOM     11  C   LIG    1       25.141 -22.582   6.687  0.00  0.00    +0.025 A 
ATOM     12  C   LIG    1       25.306 -23.933   6.374  0.00  0.00    +0.050 A 
BRANCH   7  14
ATOM     13  N   LIG    1       24.369 -27.273   5.777  0.00  0.00    -0.189 NA
ATOM     14  C   LIG    1       24.302 -26.150   6.064  0.00  0.00    +0.119 C 
ENDBRANCH   7  14
ENDBRANCH   1  11
BRANCH   3  15
ATOM     15  C   LIG    1       29.442 -20.504   7.889  0.00  0.00    +0.021 A 
ATOM     16  C   LIG    1       29.940 -19.199   7.941  0.00  0.00    +0.031 A 
ATOM     17  C   LIG    1       31.167 -18.976   8.549  0.00  0.00    +0.111 A 
ATOM     18  N   LIG    1       31.917 -19.949   9.098  0.00  0.00    -0.263 NA
ATOM     19  C   LIG    1       31.422 -21.203   9.042  0.00  0.00    +0.111 A 
ATOM     20  C   LIG    1       30.208 -21.525   8.459  0.00  0.00    +0.031 A 
ENDBRANCH   3  15
TORSDOF 3
ENDMDL
MODEL 5
REMARK VINA RESULT:      -8.3      2.183      7.658
REMARK  Name = *****
REMARK                            x       y       z     vdW  Elec       q    Type
REMARK                         _______ _______ _______ _____ _____    ______ ____
ROOT
ATOM      1  C   LIG    1       28.770 -19.912   7.506  0.00  0.00    +0.182 A 
ATOM      2  N   LIG    1       28.973 -19.160   8.644  0.00  0.00    -0.207 NA
ATOM      3  C   LIG    1       30.189 -18.662   8.499  0.00  0.00    +0.157 A 
ATOM      4  N   LIG    1       30.684 -19.122   7.308  0.00  0.00    -0.258 N 
ATOM      5  H   LIG    1       31.586 -18.943   6.884  0.00  0.00    +0.191 HD
ATOM      6  N   LIG    1       29.811 -19.905   6.663  0.00  0.00    -0.152 NA
ENDROOT
BRANCH   1  11
ATOM      7  C   LIG    1       25.624 -21.112   5.890  0.00  0.00    +0.141 A 
ATOM      8  N   LIG    1       25.157 -22.042   6.761  0.00  0.00    -0.245 NA
ATOM      9  C   LIG    1       25.888 -22.259   7.873  0.00  0.00    +0.113 A 
ATOM     10  C   LIG    1       27.064 -21.592   8.158  0.00  0.00    +0.031 A 
ATOM     11  C   LIG    1       27.532 -20.637   7.250  0.00  0.00    +0.025 A 
ATOM     12  C   LIG    1       26.794 -20.394   6.089  0.00  0.00    +0.050 A 
BRANCH   7  14
ATOM     13  N   LIG    1       24.178 -20.766   3.760  0.00  0.00    -0.189 NA
ATOM     14  C   LIG    1       24.827 -20.899   4.713  0.00  0.00    +0.119 C 
ENDBRANCH   7  14
ENDBRANCH   1  11
BRANCH   3  15
ATOM     15  C   LIG    1       30.906 -17.778   9.419  0.00  0.00    +0.021 A 
ATOM     16  C   LIG    1       30.401 -17.446  10.681  0.00  0.00    +0.031 A 
ATOM     17  C   LIG    1       31.140 -16.600  11.494  0.00  0.00    +0.111 A 
ATOM     18  N   LIG    1       32.327 -16.071  11.142  0.00  0.00    -0.263 NA
ATOM     19  C   LIG    1       32.801 -16.403   9.923  0.00  0.00    +0.111 A 
ATOM     20  C   LIG    1       32.139 -17.240   9.041  0.00  0.00    +0.031 A 
ENDBRANCH   3  15
TORSDOF 3
ENDMDL
MODEL 6
REMARK VINA RESULT:      -8.1      2.108      7.953
REMARK  Name = *****
REMARK                            x       y       z     vdW  Elec       q    Type
REMARK                         _______ _______ _______ _____ _____    ______ ____
ROOT
ATOM      1  C   LIG    1       29.280 -19.736   7.993  0.00  0.00    +0.182 A 
ATOM      2  N   LIG    1       29.514 -18.516   8.590  0.00  0.00    -0.207 NA
ATOM      3  C   LIG    1       30.669 -18.668   9.215  0.00  0.00    +0.157 A 
ATOM      4  N   LIG    1       31.091 -19.952   8.994  0.00  0.00    -0.258 N 
ATOM      5  H   LIG    1       31.930 -20.410   9.327  0.00  0.00    +0.191 HD
ATOM      6  N   LIG    1       30.239 -20.642   8.227  0.00  0.00    -0.152 NA
ENDROOT
BRANCH   1  11
ATOM      7  C   LIG    1       25.833 -20.726   6.953  0.00  0.00    +0.141 A 
ATOM      8  N   LIG    1       25.834 -20.511   5.613  0.00  0.00    -0.245 NA
ATOM      9  C   LIG    1       26.976 -20.043   5.070  0.00  0.00    +0.113 A 
ATOM     10  C   LIG    1       28.119 -19.779   5.801  0.00  0.00    +0.031 A 
ATOM     11  C   LIG    1       28.100 -20.005   7.182  0.00  0.00    +0.025 A 
ATOM     12  C   LIG    1       26.929 -20.489   7.769  0.00  0.00    +0.050 A 
BRANCH   7  14
ATOM     13  N   LIG    1       23.597 -21.633   7.917  0.00  0.00    -0.189 NA
ATOM     14  C   LIG    1       24.604 -21.226   7.507  0.00  0.00    +0.119 C 
ENDBRANCH   7  14
ENDBRANCH   1  11
BRANCH   3  15
ATOM     15  C   LIG    1       31.393 -17.672  10.006  0.00  0.00    +0.021 A 
ATOM     16  C   LIG    1       31.166 -17.495  11.374  0.00  0.00    +0.031 A 
ATOM     17  C   LIG    1       31.892 -16.528  12.052  0.00  0.00    +0.111 A 
ATOM     18  N   LIG    1       32.814 -15.739  11.470  0.00  0.00    -0.263 NA
ATOM     19  C   LIG    1       33.024 -15.923  10.150  0.00  0.00    +0.111 A 
ATOM     20  C   LIG    1       32.351 -16.863   9.388  0.00  0.00    +0.031 A 
ENDBRANCH   3  15
TORSDOF 3
ENDMDL
MODEL 7
REMARK VINA RESULT:      -8.1      1.918      7.677
REMARK  Name = *****
REMARK                            x       y       z     vdW  Elec       q    Type
REMARK                         _______ _______ _______ _____ _____    ______ ____
ROOT
ATOM      1  C   LIG    1       28.351 -20.238   7.569  0.00  0.00    +0.182 A 
ATOM      2  N   LIG    1       28.658 -19.429   8.642  0.00  0.00    -0.207 NA
ATOM      3  C   LIG    1       29.838 -18.915   8.342  0.00  0.00    +0.157 A 
ATOM      4  N   LIG    1       30.212 -19.422   7.127  0.00  0.00    -0.258 N 
ATOM      5  H   LIG    1       31.058 -19.245   6.599  0.00  0.00    +0.191 HD
ATOM      6  N   LIG    1       29.295 -20.252   6.617  0.00  0.00    -0.152 NA
ENDROOT
BRANCH   1  11
ATOM      7  C   LIG    1       25.928 -23.043   7.116  0.00  0.00    +0.141 A 
ATOM      8  N   LIG    1       24.723 -22.456   7.327  0.00  0.00    -0.245 NA
ATOM      9  C   LIG    1       24.727 -21.139   7.614  0.00  0.00    +0.113 A 
ATOM     10  C   LIG    1       25.877 -20.378   7.701  0.00  0.00    +0.031 A 
ATOM     11  C   LIG    1       27.112 -20.999   7.483  0.00  0.00    +0.025 A 
ATOM     12  C   LIG    1       27.135 -22.363   7.184  0.00  0.00    +0.050 A 
BRANCH   7  14
ATOM     13  N   LIG    1       25.831 -25.582   6.572  0.00  0.00    -0.189 NA
ATOM     14  C   LIG    1       25.896 -24.448   6.811  0.00  0.00    +0.119 C 
ENDBRANCH   7  14
ENDBRANCH   1  11
BRANCH   3  15
ATOM     15  C   LIG    1       30.628 -17.973   9.137  0.00  0.00    +0.021 A 
ATOM     16  C   LIG    1       30.185 -17.480  10.368  0.00  0.00    +0.031 A 
ATOM     17  C   LIG    1       30.991 -16.589  11.060  0.00  0.00    +0.111 A 
ATOM     18  N   LIG    1       32.189 -16.164  10.617  0.00  0.00    -0.263 NA
ATOM     19  C   LIG    1       32.605 -16.651   9.429  0.00  0.00    +0.111 A 
ATOM     20  C   LIG    1       31.872 -17.544   8.665  0.00  0.00    +0.031 A 
ENDBRANCH   3  15
TORSDOF 3
ENDMDL
MODEL 8
REMARK VINA RESULT:      -8.0      1.994      7.546
REMARK  Name = *****
REMARK                            x       y       z     vdW  Elec       q    Type
REMARK                         _______ _______ _______ _____ _____    ______ ____
ROOT
ATOM      1  C   LIG    1       28.314 -20.244   7.239  0.00  0.00    +0.182 A 
ATOM      2  N   LIG    1       28.611 -19.525   8.376  0.00  0.00    -0.207 NA
ATOM      3  C   LIG    1       29.792 -18.986   8.129  0.00  0.00    +0.157 A 
ATOM      4  N   LIG    1       30.177 -19.391   6.879  0.00  0.00    -0.258 N 
ATOM      5  H   LIG    1       31.027 -19.171   6.374  0.00  0.00    +0.191 HD
ATOM      6  N   LIG    1       29.265 -20.178   6.296  0.00  0.00    -0.152 NA
ENDROOT
BRANCH   1  11
ATOM      7  C   LIG    1       24.789 -21.152   6.404  0.00  0.00    +0.141 A 
ATOM      8  N   LIG    1       24.703 -22.455   6.774  0.00  0.00    -0.245 NA
ATOM      9  C   LIG    1       25.813 -23.016   7.297  0.00  0.00    +0.113 A 
ATOM     10  C   LIG    1       27.004 -22.339   7.469  0.00  0.00    +0.031 A 
ATOM     11  C   LIG    1       27.077 -20.996   7.081  0.00  0.00    +0.025 A 
ATOM     12  C   LIG    1       25.942 -20.392   6.536  0.00  0.00    +0.050 A 
BRANCH   7  14
ATOM     13  N   LIG    1       22.624 -20.090   5.438  0.00  0.00    -0.189 NA
ATOM     14  C   LIG    1       23.593 -20.578   5.851  0.00  0.00    +0.119 C 
ENDBRANCH   7  14
ENDBRANCH   1  11
BRANCH   3  15
ATOM     15  C   LIG    1       30.575 -18.111   9.004  0.00  0.00    +0.021 A 
ATOM     16  C   LIG    1       31.877 -17.711   8.689  0.00  0.00    +0.031 A 
ATOM     17  C   LIG    1       32.553 -16.883   9.572  0.00  0.00    +0.111 A 
ATOM     18  N   LIG    1       32.029 -16.434  10.728  0.00  0.00    -0.263 NA
ATOM     19  C   LIG    1       30.771 -16.827  11.017  0.00  0.00    +0.111 A 
ATOM     20  C   LIG    1       30.015 -17.651  10.199  0.00  0.00    +0.031 A 
ENDBRANCH   3  15
TORSDOF 3
ENDMDL
MODEL 9
REMARK VINA RESULT:      -7.8      4.013      7.058
REMARK  Name = *****
REMARK                            x       y       z     vdW  Elec       q    Type
REMARK                         _______ _______ _______ _____ _____    ______ ____
ROOT
ATOM      1  C   LIG    1       25.212 -25.764   6.309  0.00  0.00    +0.182 A 
ATOM      2  N   LIG    1       24.579 -26.938   6.661  0.00  0.00    -0.207 NA
ATOM      3  C   LIG    1       25.306 -27.887   6.098  0.00  0.00    +0.157 A 
ATOM      4  N   LIG    1       26.331 -27.279   5.426  0.00  0.00    -0.258 N 
ATOM      5  H   LIG    1       27.073 -27.702   4.881  0.00  0.00    +0.191 HD
ATOM      6  N   LIG    1       26.298 -25.946   5.546  0.00  0.00    -0.152 NA
ENDROOT
BRANCH   1  11
ATOM      7  C   LIG    1       25.116 -22.308   7.720  0.00  0.00    +0.141 A 
ATOM      8  N   LIG    1       23.824 -21.933   7.548  0.00  0.00    -0.245 NA
ATOM      9  C   LIG    1       22.999 -22.828   6.968  0.00  0.00    +0.113 A 
ATOM     10  C   LIG    1       23.403 -24.083   6.552  0.00  0.00    +0.031 A 
ATOM     11  C   LIG    1       24.739 -24.454   6.736  0.00  0.00    +0.025 A 
ATOM     12  C   LIG    1       25.614 -23.544   7.334  0.00  0.00    +0.050 A 
BRANCH   7  14
ATOM     13  N   LIG    1       26.653 -20.563   8.879  0.00  0.00    -0.189 NA
ATOM     14  C   LIG    1       25.974 -21.336   8.342  0.00  0.00    +0.119 C 
ENDBRANCH   7  14
ENDBRANCH   1  11
BRANCH   3  15
ATOM     15  C   LIG    1       25.086 -29.334   6.161  0.00  0.00    +0.021 A 
ATOM     16  C   LIG    1       25.561 -30.204   5.175  0.00  0.00    +0.031 A 
ATOM     17  C   LIG    1       25.309 -31.562   5.306  0.00  0.00    +0.111 A 
ATOM     18  N   LIG    1       24.629 -32.101   6.334  0.00  0.00    -0.263 NA
ATOM     19  C   LIG    1       24.179 -31.249   7.278  0.00  0.00    +0.111 A 
ATOM     20  C   LIG    1       24.381 -29.879   7.237  0.00  0.00    +0.031 A 
ENDBRANCH   3  15
TORSDOF 3
ENDMDL
