MODEL 1
REMARK VINA RESULT:      -5.5      0.000      0.000
REMARK  Name = *****
REMARK                            x       y       z     vdW  Elec       q    Type
REMARK                         _______ _______ _______ _____ _____    ______ ____
ROOT
ATOM      1  O   LIG    1       26.598 -20.972   5.831  0.00  0.00    -0.489 OA
ENDROOT
BRANCH   1   2
ATOM      2  C   LIG    1       25.433 -20.456   5.319  0.00  0.00    +0.121 A 
ATOM      3  C   LIG    1       24.300 -20.609   6.122  0.00  0.00    +0.047 A 
ATOM      4  C   LIG    1       23.060 -20.095   5.723  0.00  0.00    +0.023 A 
ATOM      5  C   LIG    1       22.953 -19.419   4.507  0.00  0.00    +0.041 A 
ATOM      6 CL   LIG    1       21.441 -18.763   4.019  0.00  0.00    -0.084 Cl
ATOM      7  C   LIG    1       24.068 -19.273   3.693  0.00  0.00    +0.023 A 
ATOM      8  C   LIG    1       25.307 -19.793   4.092  0.00  0.00    +0.047 A 
ENDBRANCH   1   2
BRANCH   1   9
ATOM      9  C   LIG    1       27.079 -20.379   7.051  0.00  0.00    +0.262 C 
BRANCH   9  10
ATOM     10  C   LIG    1       28.618 -20.400   7.059  0.00  0.00    +0.177 C 
BRANCH  10  11
ATOM     11  O   LIG    1       29.096 -21.536   6.321  0.00  0.00    -0.386 OA
ATOM     12  H   LIG    1       29.202 -21.233   5.400  0.00  0.00    +0.210 HD
ENDBRANCH  10  11
BRANCH  10  13
ATOM     13  C   LIG    1       29.214 -19.154   6.395  0.00  0.00    +0.190 C 
BRANCH  13  14
ATOM     14  O   LIG    1       28.577 -18.913   5.139  0.00  0.00    -0.392 OA
ATOM     15  H   LIG    1       27.621 -18.884   5.341  0.00  0.00    +0.209 HD
ENDBRANCH  13  14
ENDBRANCH  10  13
ENDBRANCH   9  10
ENDBRANCH   1   9
TORSDOF 6
ENDMDL
MODEL 2
REMARK VINA RESULT:      -4.8      3.495      4.465
REMARK  Name = *****
REMARK                            x       y       z     vdW  Elec       q    Type
REMARK                         _______ _______ _______ _____ _____    ______ ____
ROOT
ATOM      1  O   LIG    1       25.898 -17.710   2.897  0.00  0.00    -0.489 OA
ENDROOT
BRANCH   1   2
ATOM      2  C   LIG    1       25.230 -18.634   3.662  0.00  0.00    +0.121 A 
ATOM      3  C   LIG    1       23.843 -18.477   3.724  0.00  0.00    +0.047 A 
ATOM      4  C   LIG    1       23.048 -19.377   4.446  0.00  0.00    +0.023 A 
ATOM      5  C   LIG    1       23.648 -20.447   5.111  0.00  0.00    +0.041 A 
ATOM      6 CL   LIG    1       22.680 -21.571   5.979  0.00  0.00    -0.084 Cl
ATOM      7  C   LIG    1       25.027 -20.606   5.069  0.00  0.00    +0.023 A 
ATOM      8  C   LIG    1       25.821 -19.701   4.351  0.00  0.00    +0.047 A 
ENDBRANCH   1   2
BRANCH   1   9
ATOM      9  C   LIG    1       26.797 -16.830   3.596  0.00  0.00    +0.262 C 
BRANCH   9  10
ATOM     10  C   LIG    1       26.458 -15.369   3.250  0.00  0.00    +0.177 C 
BRANCH  10  11
ATOM     11  O   LIG    1       25.171 -15.026   3.788  0.00  0.00    -0.386 OA
ATOM     12  H   LIG    1       25.126 -14.051   3.777  0.00  0.00    +0.210 HD
ENDBRANCH  10  11
BRANCH  10  13
ATOM     13  C   LIG    1       27.469 -14.387   3.851  0.00  0.00    +0.190 C 
BRANCH  13  14
ATOM     14  O   LIG    1       27.949 -13.496   2.843  0.00  0.00    -0.392 OA
ATOM     15  H   LIG    1       27.233 -12.842   2.720  0.00  0.00    +0.209 HD
ENDBRANCH  13  14
ENDBRANCH  10  13
ENDBRANCH   9  10
ENDBRANCH   1   9
TORSDOF 6
ENDMDL
MODEL 3
REMARK VINA RESULT:      -4.8      3.467      4.444
REMARK  Name = *****
REMARK                            x       y       z     vdW  Elec       q    Type
REMARK                         _______ _______ _______ _____ _____    ______ ____
ROOT
ATOM      1  O   LIG    1       25.782 -17.726   2.887  0.00  0.00    -0.489 OA
ENDROOT
BRANCH   1   2
ATOM      2  C   LIG    1       25.035 -18.598   3.640  0.00  0.00    +0.121 A 
ATOM      3  C   LIG    1       25.757 -19.593   4.305  0.00  0.00    +0.047 A 
ATOM      4  C   LIG    1       25.111 -20.521   5.131  0.00  0.00    +0.023 A 
ATOM      5  C   LIG    1       23.726 -20.452   5.294  0.00  0.00    +0.041 A 
ATOM      6 CL   LIG    1       22.926 -21.572   6.325  0.00  0.00    -0.084 Cl
ATOM      7  C   LIG    1       22.996 -19.477   4.628  0.00  0.00    +0.023 A 
ATOM      8  C   LIG    1       23.644 -18.553   3.798  0.00  0.00    +0.047 A 
ENDBRANCH   1   2
BRANCH   1   9
ATOM      9  C   LIG    1       26.736 -16.919   3.599  0.00  0.00    +0.262 C 
BRANCH   9  10
ATOM     10  C   LIG    1       26.499 -15.434   3.273  0.00  0.00    +0.177 C 
BRANCH  10  11
ATOM     11  O   LIG    1       25.209 -15.027   3.758  0.00  0.00    -0.386 OA
ATOM     12  H   LIG    1       24.748 -14.629   2.995  0.00  0.00    +0.210 HD
ENDBRANCH  10  11
BRANCH  10  13
ATOM     13  C   LIG    1       27.534 -14.525   3.943  0.00  0.00    +0.190 C 
BRANCH  13  14
ATOM     14  O   LIG    1       28.044 -13.580   3.002  0.00  0.00    -0.392 OA
ATOM     15  H   LIG    1       27.643 -13.833   2.146  0.00  0.00    +0.209 HD
ENDBRANCH  13  14
ENDBRANCH  10  13
ENDBRANCH   9  10
ENDBRANCH   1   9
TORSDOF 6
ENDMDL
MODEL 4
REMARK VINA RESULT:      -4.8      3.689      4.749
REMARK  Name = *****
REMARK                            x       y       z     vdW  Elec       q    Type
REMARK                         _______ _______ _______ _____ _____    ______ ____
ROOT
ATOM      1  O   LIG    1       25.824 -17.270   3.128  0.00  0.00    -0.489 OA
ENDROOT
BRANCH   1   2
ATOM      2  C   LIG    1       24.924 -18.184   3.621  0.00  0.00    +0.121 A 
ATOM      3  C   LIG    1       25.447 -19.443   3.925  0.00  0.00    +0.047 A 
ATOM      4  C   LIG    1       24.635 -20.448   4.465  0.00  0.00    +0.023 A 
ATOM      5  C   LIG    1       23.285 -20.189   4.705  0.00  0.00    +0.041 A 
ATOM      6 CL   LIG    1       22.285 -21.408   5.390  0.00  0.00    -0.084 Cl
ATOM      7  C   LIG    1       22.750 -18.946   4.393  0.00  0.00    +0.023 A 
ATOM      8  C   LIG    1       23.563 -17.943   3.848  0.00  0.00    +0.047 A 
ENDBRANCH   1   2
BRANCH   1   9
ATOM      9  C   LIG    1       25.564 -15.888   3.430  0.00  0.00    +0.262 C 
BRANCH   9  10
ATOM     10  C   LIG    1       26.832 -15.057   3.165  0.00  0.00    +0.177 C 
BRANCH  10  11
ATOM     11  O   LIG    1       26.655 -14.259   1.984  0.00  0.00    -0.386 OA
ATOM     12  H   LIG    1       25.814 -14.549   1.585  0.00  0.00    +0.210 HD
ENDBRANCH  10  11
BRANCH  10  13
ATOM     13  C   LIG    1       27.137 -14.091   4.314  0.00  0.00    +0.190 C 
BRANCH  13  14
ATOM     14  O   LIG    1       25.963 -13.359   4.668  0.00  0.00    -0.392 OA
ATOM     15  H   LIG    1       25.217 -13.921   4.377  0.00  0.00    +0.209 HD
ENDBRANCH  13  14
ENDBRANCH  10  13
ENDBRANCH   9  10
ENDBRANCH   1   9
TORSDOF 6
ENDMDL
MODEL 5
REMARK VINA RESULT:      -4.3      4.324      5.441
REMARK  Name = *****
REMARK                            x       y       z     vdW  Elec       q    Type
REMARK                         _______ _______ _______ _____ _____    ______ ____
ROOT
ATOM      1  O   LIG    1       26.197 -16.969   3.334  0.00  0.00    -0.489 OA
ENDROOT
BRANCH   1   2
ATOM      2  C   LIG    1       25.726 -15.679   3.302  0.00  0.00    +0.121 A 
ATOM      3  C   LIG    1       24.480 -15.476   3.899  0.00  0.00    +0.047 A 
ATOM      4  C   LIG    1       23.909 -14.198   3.959  0.00  0.00    +0.023 A 
ATOM      5  C   LIG    1       24.596 -13.111   3.417  0.00  0.00    +0.041 A 
ATOM      6 CL   LIG    1       23.916 -11.534   3.507  0.00  0.00    -0.084 Cl
ATOM      7  C   LIG    1       25.830 -13.301   2.808  0.00  0.00    +0.023 A 
ATOM      8  C   LIG    1       26.396 -14.582   2.744  0.00  0.00    +0.047 A 
ENDBRANCH   1   2
BRANCH   1   9
ATOM      9  C   LIG    1       25.206 -18.011   3.370  0.00  0.00    +0.262 C 
BRANCH   9  10
ATOM     10  C   LIG    1       25.867 -19.332   3.802  0.00  0.00    +0.177 C 
BRANCH  10  11
ATOM     11  O   LIG    1       27.071 -19.060   4.537  0.00  0.00    -0.386 OA
ATOM     12  H   LIG    1       27.608 -19.873   4.484  0.00  0.00    +0.210 HD
ENDBRANCH  10  11
BRANCH  10  13
ATOM     13  C   LIG    1       24.960 -20.156   4.722  0.00  0.00    +0.190 C 
BRANCH  13  14
ATOM     14  O   LIG    1       25.489 -21.472   4.888  0.00  0.00    -0.392 OA
ATOM     15  H   LIG    1       25.942 -21.456   5.755  0.00  0.00    +0.209 HD
ENDBRANCH  13  14
ENDBRANCH  10  13
ENDBRANCH   9  10
ENDBRANCH   1   9
TORSDOF 6
ENDMDL
MODEL 6
REMARK VINA RESULT:      -4.1      4.334      5.592
REMARK  Name = *****
REMARK                            x       y       z     vdW  Elec       q    Type
REMARK                         _______ _______ _______ _____ _____    ______ ____
ROOT
ATOM      1  O   LIG    1       26.075 -16.951   3.306  0.00  0.00    -0.489 OA
ENDROOT
BRANCH   1   2
ATOM      2  C   LIG    1       25.530 -15.692   3.369  0.00  0.00    +0.121 A 
ATOM      3  C   LIG    1       26.233 -14.695   2.690  0.00  0.00    +0.047 A 
ATOM      4  C   LIG    1       25.759 -13.377   2.653  0.00  0.00    +0.023 A 
ATOM      5  C   LIG    1       24.567 -13.056   3.303  0.00  0.00    +0.041 A 
ATOM      6 CL   LIG    1       23.963 -11.447   3.243  0.00  0.00    -0.084 Cl
ATOM      7  C   LIG    1       23.865 -14.035   3.994  0.00  0.00    +0.023 A 
ATOM      8  C   LIG    1       24.345 -15.351   4.034  0.00  0.00    +0.047 A 
ENDBRANCH   1   2
BRANCH   1   9
ATOM      9  C   LIG    1       25.150 -18.052   3.325  0.00  0.00    +0.262 C 
BRANCH   9  10
ATOM     10  C   LIG    1       25.892 -19.341   3.719  0.00  0.00    +0.177 C 
BRANCH  10  11
ATOM     11  O   LIG    1       27.031 -19.020   4.534  0.00  0.00    -0.386 OA
ATOM     12  H   LIG    1       26.986 -19.616   5.305  0.00  0.00    +0.210 HD
ENDBRANCH  10  11
BRANCH  10  13
ATOM     13  C   LIG    1       25.009 -20.287   4.539  0.00  0.00    +0.190 C 
BRANCH  13  14
ATOM     14  O   LIG    1       25.820 -21.173   5.312  0.00  0.00    -0.392 OA
ATOM     15  H   LIG    1       26.683 -21.193   4.852  0.00  0.00    +0.209 HD
ENDBRANCH  13  14
ENDBRANCH  10  13
ENDBRANCH   9  10
ENDBRANCH   1   9
TORSDOF 6
ENDMDL
MODEL 7
REMARK VINA RESULT:      -3.9      3.330      5.397
REMARK  Name = *****
REMARK                            x       y       z     vdW  Elec       q    Type
REMARK                         _______ _______ _______ _____ _____    ______ ____
ROOT
ATOM      1  O   LIG    1       24.091 -21.484   5.155  0.00  0.00    -0.489 OA
ENDROOT
BRANCH   1   2
ATOM      2  C   LIG    1       25.340 -21.096   5.573  0.00  0.00    +0.121 A 
ATOM      3  C   LIG    1       25.972 -20.136   4.779  0.00  0.00    +0.047 A 
ATOM      4  C   LIG    1       27.235 -19.637   5.121  0.00  0.00    +0.023 A 
ATOM      5  C   LIG    1       27.872 -20.104   6.272  0.00  0.00    +0.041 A 
ATOM      6 CL   LIG    1       29.412 -19.480   6.714  0.00  0.00    -0.084 Cl
ATOM      7  C   LIG    1       27.261 -21.068   7.062  0.00  0.00    +0.023 A 
ATOM      8  C   LIG    1       25.999 -21.570   6.715  0.00  0.00    +0.047 A 
ENDBRANCH   1   2
BRANCH   1   9
ATOM      9  C   LIG    1       23.466 -20.661   4.154  0.00  0.00    +0.262 C 
BRANCH   9  10
ATOM     10  C   LIG    1       22.233 -19.965   4.756  0.00  0.00    +0.177 C 
BRANCH  10  11
ATOM     11  O   LIG    1       22.469 -19.663   6.140  0.00  0.00    -0.386 OA
ATOM     12  H   LIG    1       22.370 -20.507   6.620  0.00  0.00    +0.210 HD
ENDBRANCH  10  11
BRANCH  10  13
ATOM     13  C   LIG    1       21.923 -18.637   4.057  0.00  0.00    +0.190 C 
BRANCH  13  14
ATOM     14  O   LIG    1       22.423 -17.545   4.830  0.00  0.00    -0.392 OA
ATOM     15  H   LIG    1       23.238 -17.260   4.370  0.00  0.00    +0.209 HD
ENDBRANCH  13  14
ENDBRANCH  10  13
ENDBRANCH   9  10
ENDBRANCH   1   9
TORSDOF 6
ENDMDL
MODEL 8
REMARK VINA RESULT:      -3.6      4.690      5.845
REMARK  Name = *****
REMARK                            x       y       z     vdW  Elec       q    Type
REMARK                         _______ _______ _______ _____ _____    ______ ____
ROOT
ATOM      1  O   LIG    1       24.998 -16.974   3.244  0.00  0.00    -0.489 OA
ENDROOT
BRANCH   1   2
ATOM      2  C   LIG    1       25.696 -15.851   3.617  0.00  0.00    +0.121 A 
ATOM      3  C   LIG    1       27.084 -15.995   3.676  0.00  0.00    +0.047 A 
ATOM      4  C   LIG    1       27.907 -14.912   4.012  0.00  0.00    +0.023 A 
ATOM      5  C   LIG    1       27.332 -13.671   4.289  0.00  0.00    +0.041 A 
ATOM      6 CL   LIG    1       28.334 -12.328   4.678  0.00  0.00    -0.084 Cl
ATOM      7  C   LIG    1       25.953 -13.518   4.247  0.00  0.00    +0.023 A 
ATOM      8  C   LIG    1       25.132 -14.605   3.917  0.00  0.00    +0.047 A 
ENDBRANCH   1   2
BRANCH   1   9
ATOM      9  C   LIG    1       25.723 -18.217   3.272  0.00  0.00    +0.262 C 
BRANCH   9  10
ATOM     10  C   LIG    1       24.874 -19.290   3.977  0.00  0.00    +0.177 C 
BRANCH  10  11
ATOM     11  O   LIG    1       24.253 -20.142   3.001  0.00  0.00    -0.386 OA
ATOM     12  H   LIG    1       23.975 -20.943   3.482  0.00  0.00    +0.210 HD
ENDBRANCH  10  11
BRANCH  10  13
ATOM     13  C   LIG    1       25.722 -20.192   4.880  0.00  0.00    +0.190 C 
BRANCH  13  14
ATOM     14  O   LIG    1       27.109 -19.892   4.714  0.00  0.00    -0.392 OA
ATOM     15  H   LIG    1       27.326 -19.283   5.448  0.00  0.00    +0.209 HD
ENDBRANCH  13  14
ENDBRANCH  10  13
ENDBRANCH   9  10
ENDBRANCH   1   9
TORSDOF 6
ENDMDL
MODEL 9
REMARK VINA RESULT:      -3.5      4.254      5.593
REMARK  Name = *****
REMARK                            x       y       z     vdW  Elec       q    Type
REMARK                         _______ _______ _______ _____ _____    ______ ____
ROOT
ATOM      1  O   LIG    1       25.634 -17.849   2.896  0.00  0.00    -0.489 OA
ENDROOT
BRANCH   1   2
ATOM      2  C   LIG    1       25.990 -16.614   3.379  0.00  0.00    +0.121 A 
ATOM      3  C   LIG    1       27.337 -16.464   3.719  0.00  0.00    +0.047 A 
ATOM      4  C   LIG    1       27.828 -15.240   4.191  0.00  0.00    +0.023 A 
ATOM      5  C   LIG    1       26.962 -14.154   4.322  0.00  0.00    +0.041 A 
ATOM      6 CL   LIG    1       27.559 -12.640   4.877  0.00  0.00    -0.084 Cl
ATOM      7  C   LIG    1       25.618 -14.293   4.000  0.00  0.00    +0.023 A 
ATOM      8  C   LIG    1       25.128 -15.521   3.533  0.00  0.00    +0.047 A 
ENDBRANCH   1   2
BRANCH   1   9
ATOM      9  C   LIG    1       24.621 -18.557   3.633  0.00  0.00    +0.262 C 
BRANCH   9  10
ATOM     10  C   LIG    1       25.081 -20.005   3.878  0.00  0.00    +0.177 C 
BRANCH  10  11
ATOM     11  O   LIG    1       26.446 -20.015   4.323  0.00  0.00    -0.386 OA
ATOM     12  H   LIG    1       26.737 -19.084   4.323  0.00  0.00    +0.210 HD
ENDBRANCH  10  11
BRANCH  10  13
ATOM     13  C   LIG    1       24.252 -20.695   4.966  0.00  0.00    +0.190 C 
BRANCH  13  14
ATOM     14  O   LIG    1       23.167 -21.414   4.377  0.00  0.00    -0.392 OA
ATOM     15  H   LIG    1       22.376 -21.139   4.883  0.00  0.00    +0.209 HD
ENDBRANCH  13  14
ENDBRANCH  10  13
ENDBRANCH   9  10
ENDBRANCH   1   9
TORSDOF 6
ENDMDL
