MODEL 1
REMARK VINA RESULT:      -5.2      0.000      0.000
REMARK  Name = *****
REMARK                            x       y       z     vdW  Elec       q    Type
REMARK                         _______ _______ _______ _____ _____    ______ ____
ROOT
ATOM      1  C   LIG    1       25.187 -17.447   3.180  0.00  0.00    +0.144 C 
ENDROOT
BRANCH   1   2
ATOM      2  C   LIG    1       24.559 -18.709   3.855  0.00  0.00    -0.003 C 
ATOM      3  C   LIG    1       24.366 -19.883   2.855  0.00  0.00    +0.012 C 
ATOM      4  C   LIG    1       23.742 -21.106   3.546  0.00  0.00    -0.007 C 
ATOM      5  C   LIG    1       24.660 -21.571   4.684  0.00  0.00    +0.038 C 
ATOM      6  C   LIG    1       24.817 -20.444   5.715  0.00  0.00    +0.067 C 
ATOM      7  C   LIG    1       23.447 -20.062   6.288  0.00  0.00    +0.038 C 
ATOM      8  C   LIG    1       22.532 -19.583   5.154  0.00  0.00    -0.007 C 
ATOM      9  C   LIG    1       22.373 -20.715   4.123  0.00  0.00    +0.007 C 
ATOM     10  C   LIG    1       25.435 -19.224   5.025  0.00  0.00    +0.043 C 
ATOM     11  C   LIG    1       23.165 -18.357   4.464  0.00  0.00    +0.012 C 
BRANCH   6  12
ATOM     12  O   LIG    1       25.680 -20.852   6.767  0.00  0.00    -0.389 OA
ATOM     13  H   LIG    1       25.314 -21.667   7.153  0.00  0.00    +0.210 HD
ENDBRANCH   6  12
ENDBRANCH   1   2
BRANCH   1  16
ATOM     14  C   LIG    1       25.202 -13.813   4.628  0.00  0.00    +0.179 C 
ATOM     15  N   LIG    1       25.604 -15.071   3.956  0.00  0.00    -0.281 N 
ATOM     16  C   LIG    1       24.693 -16.087   3.761  0.00  0.00    +0.234 C 
ATOM     17  O   LIG    1       23.511 -15.948   4.097  0.00  0.00    -0.274 OA
ATOM     18  C   LIG    1       27.010 -15.059   3.666  0.00  0.00    +0.081 C 
ATOM     19  C   LIG    1       27.621 -13.826   4.266  0.00  0.00    +0.014 C 
ATOM     20  C   LIG    1       27.610 -14.004   2.774  0.00  0.00    +0.028 C 
ATOM     21  C   LIG    1       26.526 -13.107   5.008  0.00  0.00    +0.043 C 
BRANCH  14  23
ATOM     22  N   LIG    1       23.779 -12.254   3.050  0.00  0.00    -0.195 NA
ATOM     23  C   LIG    1       24.380 -12.948   3.752  0.00  0.00    +0.085 C 
ENDBRANCH  14  23
ENDBRANCH   1  16
BRANCH   1  24
ATOM     24  N   LIG    1       26.672 -17.461   3.293  0.00  0.00    -0.320 NA
ATOM     25  H   LIG    1       26.990 -16.497   3.418  0.00  0.00    +0.119 HD
ATOM     26  H   LIG    1       26.900 -17.887   4.198  0.00  0.00    +0.119 HD
ENDBRANCH   1  24
TORSDOF 5
ENDMDL
MODEL 2
REMARK VINA RESULT:      -3.9      1.149      2.013
REMARK  Name = *****
REMARK                            x       y       z     vdW  Elec       q    Type
REMARK                         _______ _______ _______ _____ _____    ______ ____
ROOT
ATOM      1  C   LIG    1       25.324 -17.246   3.237  0.00  0.00    +0.144 C 
ENDROOT
BRANCH   1   2
ATOM      2  C   LIG    1       24.630 -18.513   3.832  0.00  0.00    -0.003 C 
ATOM      3  C   LIG    1       23.392 -18.158   4.702  0.00  0.00    +0.012 C 
ATOM      4  C   LIG    1       22.735 -19.423   5.278  0.00  0.00    -0.007 C 
ATOM      5  C   LIG    1       22.286 -20.333   4.127  0.00  0.00    +0.038 C 
ATOM      6  C   LIG    1       23.505 -20.744   3.288  0.00  0.00    +0.067 C 
ATOM      7  C   LIG    1       24.518 -21.490   4.164  0.00  0.00    +0.038 C 
ATOM      8  C   LIG    1       24.978 -20.578   5.307  0.00  0.00    -0.007 C 
ATOM      9  C   LIG    1       23.757 -20.170   6.149  0.00  0.00    +0.007 C 
ATOM     10  C   LIG    1       24.162 -19.482   2.718  0.00  0.00    +0.043 C 
ATOM     11  C   LIG    1       25.635 -19.310   4.722  0.00  0.00    +0.012 C 
BRANCH   6  12
ATOM     12  O   LIG    1       23.104 -21.572   2.205  0.00  0.00    -0.389 OA
ATOM     13  H   LIG    1       22.178 -21.359   1.995  0.00  0.00    +0.210 HD
ENDBRANCH   6  12
ENDBRANCH   1   2
BRANCH   1  16
ATOM     14  C   LIG    1       25.225 -13.607   4.669  0.00  0.00    +0.179 C 
ATOM     15  N   LIG    1       25.673 -14.862   4.021  0.00  0.00    -0.281 N 
ATOM     16  C   LIG    1       24.786 -15.891   3.790  0.00  0.00    +0.234 C 
ATOM     17  O   LIG    1       23.588 -15.767   4.073  0.00  0.00    -0.274 OA
ATOM     18  C   LIG    1       27.091 -14.831   3.793  0.00  0.00    +0.081 C 
ATOM     19  C   LIG    1       27.657 -13.588   4.414  0.00  0.00    +0.014 C 
ATOM     20  C   LIG    1       27.715 -13.770   2.924  0.00  0.00    +0.028 C 
ATOM     21  C   LIG    1       26.520 -12.882   5.105  0.00  0.00    +0.043 C 
BRANCH  14  23
ATOM     22  N   LIG    1       23.851 -12.077   3.021  0.00  0.00    -0.195 NA
ATOM     23  C   LIG    1       24.429 -12.757   3.754  0.00  0.00    +0.085 C 
ENDBRANCH  14  23
ENDBRANCH   1  16
BRANCH   1  24
ATOM     24  N   LIG    1       26.793 -17.272   3.487  0.00  0.00    -0.320 NA
ATOM     25  H   LIG    1       27.094 -18.249   3.508  0.00  0.00    +0.119 HD
ATOM     26  H   LIG    1       27.247 -16.920   2.637  0.00  0.00    +0.119 HD
ENDBRANCH   1  24
TORSDOF 5
ENDMDL
MODEL 3
REMARK VINA RESULT:      -3.1      2.148      6.461
REMARK  Name = *****
REMARK                            x       y       z     vdW  Elec       q    Type
REMARK                         _______ _______ _______ _____ _____    ______ ____
ROOT
ATOM      1  C   LIG    1       26.443 -17.039   4.117  0.00  0.00    +0.144 C 
ENDROOT
BRANCH   1   2
ATOM      2  C   LIG    1       26.179 -15.509   3.934  0.00  0.00    -0.003 C 
ATOM      3  C   LIG    1       24.711 -15.117   4.262  0.00  0.00    +0.012 C 
ATOM      4  C   LIG    1       24.481 -13.609   4.068  0.00  0.00    -0.007 C 
ATOM      5  C   LIG    1       25.422 -12.827   4.993  0.00  0.00    +0.038 C 
ATOM      6  C   LIG    1       26.881 -13.156   4.645  0.00  0.00    +0.067 C 
ATOM      7  C   LIG    1       27.171 -12.781   3.187  0.00  0.00    +0.038 C 
ATOM      8  C   LIG    1       26.241 -13.573   2.259  0.00  0.00    -0.007 C 
ATOM      9  C   LIG    1       24.779 -13.239   2.606  0.00  0.00    +0.007 C 
ATOM     10  C   LIG    1       27.109 -14.659   4.836  0.00  0.00    +0.043 C 
ATOM     11  C   LIG    1       26.476 -15.084   2.461  0.00  0.00    +0.012 C 
BRANCH   6  12
ATOM     12  O   LIG    1       27.766 -12.453   5.506  0.00  0.00    -0.389 OA
ATOM     13  H   LIG    1       28.673 -12.740   5.299  0.00  0.00    +0.210 HD
ENDBRANCH   6  12
ENDBRANCH   1   2
BRANCH   1  16
ATOM     14  C   LIG    1       24.128 -20.178   3.816  0.00  0.00    +0.179 C 
ATOM     15  N   LIG    1       25.181 -19.231   4.255  0.00  0.00    -0.281 N 
ATOM     16  C   LIG    1       25.241 -17.955   3.738  0.00  0.00    +0.234 C 
ATOM     17  O   LIG    1       24.386 -17.559   2.936  0.00  0.00    -0.274 OA
ATOM     18  C   LIG    1       26.090 -19.875   5.161  0.00  0.00    +0.081 C 
ATOM     19  C   LIG    1       25.738 -21.332   5.250  0.00  0.00    +0.014 C 
ATOM     20  C   LIG    1       25.605 -20.457   6.464  0.00  0.00    +0.028 C 
ATOM     21  C   LIG    1       24.603 -21.572   4.290  0.00  0.00    +0.043 C 
BRANCH  14  23
ATOM     22  N   LIG    1       21.767 -19.559   4.808  0.00  0.00    -0.195 NA
ATOM     23  C   LIG    1       22.804 -19.850   4.392  0.00  0.00    +0.085 C 
ENDBRANCH  14  23
ENDBRANCH   1  16
BRANCH   1  24
ATOM     24  N   LIG    1       27.609 -17.483   3.304  0.00  0.00    -0.320 NA
ATOM     25  H   LIG    1       27.773 -18.473   3.500  0.00  0.00    +0.119 HD
ATOM     26  H   LIG    1       27.303 -17.500   2.325  0.00  0.00    +0.119 HD
ENDBRANCH   1  24
TORSDOF 5
ENDMDL
MODEL 4
REMARK VINA RESULT:      -3.1      1.483      2.450
REMARK  Name = *****
REMARK                            x       y       z     vdW  Elec       q    Type
REMARK                         _______ _______ _______ _____ _____    ______ ____
ROOT
ATOM      1  C   LIG    1       23.517 -17.328   4.433  0.00  0.00    +0.144 C 
ENDROOT
BRANCH   1   2
ATOM      2  C   LIG    1       23.618 -18.872   4.649  0.00  0.00    -0.003 C 
ATOM      3  C   LIG    1       23.158 -19.677   3.402  0.00  0.00    +0.012 C 
ATOM      4  C   LIG    1       23.263 -21.192   3.647  0.00  0.00    -0.007 C 
ATOM      5  C   LIG    1       24.719 -21.556   3.963  0.00  0.00    +0.038 C 
ATOM      6  C   LIG    1       25.175 -20.815   5.228  0.00  0.00    +0.067 C 
ATOM      7  C   LIG    1       24.283 -21.202   6.414  0.00  0.00    +0.038 C 
ATOM      8  C   LIG    1       22.828 -20.825   6.106  0.00  0.00    -0.007 C 
ATOM      9  C   LIG    1       22.372 -21.572   4.840  0.00  0.00    +0.007 C 
ATOM     10  C   LIG    1       25.066 -19.306   4.984  0.00  0.00    +0.043 C 
ATOM     11  C   LIG    1       22.731 -19.305   5.860  0.00  0.00    +0.012 C 
BRANCH   6  12
ATOM     12  O   LIG    1       26.528 -21.128   5.524  0.00  0.00    -0.389 OA
ATOM     13  H   LIG    1       26.782 -21.895   4.981  0.00  0.00    +0.210 HD
ENDBRANCH   6  12
ENDBRANCH   1   2
BRANCH   1  16
ATOM     14  C   LIG    1       25.848 -14.702   2.708  0.00  0.00    +0.179 C 
ATOM     15  N   LIG    1       24.776 -15.328   3.516  0.00  0.00    -0.281 N 
ATOM     16  C   LIG    1       24.737 -16.694   3.698  0.00  0.00    +0.234 C 
ATOM     17  O   LIG    1       25.626 -17.418   3.233  0.00  0.00    -0.274 OA
ATOM     18  C   LIG    1       23.827 -14.339   3.946  0.00  0.00    +0.081 C 
ATOM     19  C   LIG    1       24.177 -13.023   3.316  0.00  0.00    +0.014 C 
ATOM     20  C   LIG    1       24.253 -13.179   4.808  0.00  0.00    +0.028 C 
ATOM     21  C   LIG    1       25.355 -13.266   2.410  0.00  0.00    +0.043 C 
BRANCH  14  23
ATOM     22  N   LIG    1       28.135 -14.624   4.017  0.00  0.00    -0.195 NA
ATOM     23  C   LIG    1       27.144 -14.673   3.423  0.00  0.00    +0.085 C 
ENDBRANCH  14  23
ENDBRANCH   1  16
BRANCH   1  24
ATOM     24  N   LIG    1       22.300 -16.973   3.651  0.00  0.00    -0.320 NA
ATOM     25  H   LIG    1       22.111 -15.978   3.791  0.00  0.00    +0.119 HD
ATOM     26  H   LIG    1       22.559 -17.011   2.659  0.00  0.00    +0.119 HD
ENDBRANCH   1  24
TORSDOF 5
ENDMDL
MODEL 5
REMARK VINA RESULT:      -2.5      2.236      6.485
REMARK  Name = *****
REMARK                            x       y       z     vdW  Elec       q    Type
REMARK                         _______ _______ _______ _____ _____    ______ ____
ROOT
ATOM      1  C   LIG    1       26.744 -17.129   4.323  0.00  0.00    +0.144 C 
ENDROOT
BRANCH   1   2
ATOM      2  C   LIG    1       26.592 -15.600   4.038  0.00  0.00    -0.003 C 
ATOM      3  C   LIG    1       26.893 -15.239   2.557  0.00  0.00    +0.012 C 
ATOM      4  C   LIG    1       26.740 -13.729   2.310  0.00  0.00    -0.007 C 
ATOM      5  C   LIG    1       25.305 -13.302   2.641  0.00  0.00    +0.038 C 
ATOM      6  C   LIG    1       25.006 -13.596   4.119  0.00  0.00    +0.067 C 
ATOM      7  C   LIG    1       25.987 -12.832   5.016  0.00  0.00    +0.038 C 
ATOM      8  C   LIG    1       27.422 -13.268   4.695  0.00  0.00    -0.007 C 
ATOM      9  C   LIG    1       27.721 -12.968   3.216  0.00  0.00    +0.007 C 
ATOM     10  C   LIG    1       25.162 -15.101   4.365  0.00  0.00    +0.043 C 
ATOM     11  C   LIG    1       27.567 -14.783   4.944  0.00  0.00    +0.012 C 
BRANCH   6  12
ATOM     12  O   LIG    1       23.673 -13.223   4.438  0.00  0.00    -0.389 OA
ATOM     13  H   LIG    1       23.711 -12.566   5.155  0.00  0.00    +0.210 HD
ENDBRANCH   6  12
ENDBRANCH   1   2
BRANCH   1  16
ATOM     14  C   LIG    1       24.334 -20.172   3.841  0.00  0.00    +0.179 C 
ATOM     15  N   LIG    1       25.375 -19.261   4.371  0.00  0.00    -0.281 N 
ATOM     16  C   LIG    1       25.549 -18.002   3.835  0.00  0.00    +0.234 C 
ATOM     17  O   LIG    1       24.805 -17.592   2.936  0.00  0.00    -0.274 OA
ATOM     18  C   LIG    1       26.151 -19.918   5.385  0.00  0.00    +0.081 C 
ATOM     19  C   LIG    1       25.725 -21.355   5.468  0.00  0.00    +0.014 C 
ATOM     20  C   LIG    1       25.502 -20.442   6.640  0.00  0.00    +0.028 C 
ATOM     21  C   LIG    1       24.690 -21.572   4.396  0.00  0.00    +0.043 C 
BRANCH  14  23
ATOM     22  N   LIG    1       21.927 -19.416   4.604  0.00  0.00    -0.195 NA
ATOM     23  C   LIG    1       22.972 -19.772   4.262  0.00  0.00    +0.085 C 
ENDBRANCH  14  23
ENDBRANCH   1  16
BRANCH   1  24
ATOM     24  N   LIG    1       27.976 -17.673   3.685  0.00  0.00    -0.320 NA
ATOM     25  H   LIG    1       27.985 -18.686   3.826  0.00  0.00    +0.119 HD
ATOM     26  H   LIG    1       27.848 -17.593   2.671  0.00  0.00    +0.119 HD
ENDBRANCH   1  24
TORSDOF 5
ENDMDL
MODEL 6
REMARK VINA RESULT:      -2.5      1.551      2.613
REMARK  Name = *****
REMARK                            x       y       z     vdW  Elec       q    Type
REMARK                         _______ _______ _______ _____ _____    ______ ____
ROOT
ATOM      1  C   LIG    1       23.765 -16.981   4.449  0.00  0.00    +0.144 C 
ENDROOT
BRANCH   1   2
ATOM      2  C   LIG    1       23.816 -18.543   4.430  0.00  0.00    -0.003 C 
ATOM      3  C   LIG    1       25.234 -19.086   4.094  0.00  0.00    +0.012 C 
ATOM      4  C   LIG    1       25.251 -20.623   4.077  0.00  0.00    -0.007 C 
ATOM      5  C   LIG    1       24.831 -21.152   5.455  0.00  0.00    +0.038 C 
ATOM      6  C   LIG    1       23.408 -20.675   5.779  0.00  0.00    +0.067 C 
ATOM      7  C   LIG    1       22.427 -21.183   4.716  0.00  0.00    +0.038 C 
ATOM      8  C   LIG    1       22.838 -20.643   3.340  0.00  0.00    -0.007 C 
ATOM      9  C   LIG    1       24.262 -21.126   3.014  0.00  0.00    +0.007 C 
ATOM     10  C   LIG    1       23.390 -19.142   5.793  0.00  0.00    +0.043 C 
ATOM     11  C   LIG    1       22.819 -19.101   3.365  0.00  0.00    +0.012 C 
BRANCH   6  12
ATOM     12  O   LIG    1       23.010 -21.141   7.061  0.00  0.00    -0.389 OA
ATOM     13  H   LIG    1       23.505 -21.959   7.247  0.00  0.00    +0.210 HD
ENDBRANCH   6  12
ENDBRANCH   1   2
BRANCH   1  16
ATOM     14  C   LIG    1       25.831 -14.234   2.579  0.00  0.00    +0.179 C 
ATOM     15  N   LIG    1       24.853 -14.917   3.459  0.00  0.00    -0.281 N 
ATOM     16  C   LIG    1       24.895 -16.284   3.632  0.00  0.00    +0.234 C 
ATOM     17  O   LIG    1       25.783 -16.960   3.097  0.00  0.00    -0.274 OA
ATOM     18  C   LIG    1       23.890 -13.979   3.964  0.00  0.00    +0.081 C 
ATOM     19  C   LIG    1       24.127 -12.644   3.320  0.00  0.00    +0.014 C 
ATOM     20  C   LIG    1       24.320 -12.802   4.802  0.00  0.00    +0.028 C 
ATOM     21  C   LIG    1       25.246 -12.824   2.329  0.00  0.00    +0.043 C 
BRANCH  14  23
ATOM     22  N   LIG    1       28.198 -14.070   3.726  0.00  0.00    -0.195 NA
ATOM     23  C   LIG    1       27.173 -14.144   3.198  0.00  0.00    +0.085 C 
ENDBRANCH  14  23
ENDBRANCH   1  16
BRANCH   1  24
ATOM     24  N   LIG    1       22.466 -16.480   3.919  0.00  0.00    -0.320 NA
ATOM     25  H   LIG    1       21.732 -17.127   4.215  0.00  0.00    +0.119 HD
ATOM     26  H   LIG    1       22.236 -15.630   4.445  0.00  0.00    +0.119 HD
ENDBRANCH   1  24
TORSDOF 5
ENDMDL
MODEL 7
REMARK VINA RESULT:      -2.3      2.069      6.793
REMARK  Name = *****
REMARK                            x       y       z     vdW  Elec       q    Type
REMARK                         _______ _______ _______ _____ _____    ______ ____
ROOT
ATOM      1  C   LIG    1       23.330 -15.988   3.859  0.00  0.00    +0.144 C 
ENDROOT
BRANCH   1   2
ATOM      2  C   LIG    1       24.131 -14.646   3.842  0.00  0.00    -0.003 C 
ATOM      3  C   LIG    1       24.187 -13.970   5.240  0.00  0.00    +0.012 C 
ATOM      4  C   LIG    1       24.976 -12.651   5.190  0.00  0.00    -0.007 C 
ATOM      5  C   LIG    1       26.408 -12.932   4.719  0.00  0.00    +0.038 C 
ATOM      6  C   LIG    1       26.378 -13.546   3.312  0.00  0.00    +0.067 C 
ATOM      7  C   LIG    1       25.697 -12.584   2.332  0.00  0.00    +0.038 C 
ATOM      8  C   LIG    1       24.260 -12.313   2.794  0.00  0.00    -0.007 C 
ATOM      9  C   LIG    1       24.292 -11.693   4.202  0.00  0.00    +0.007 C 
ATOM     10  C   LIG    1       25.589 -14.859   3.362  0.00  0.00    +0.043 C 
ATOM     11  C   LIG    1       23.476 -13.640   2.843  0.00  0.00    +0.012 C 
BRANCH   6  12
ATOM     12  O   LIG    1       27.697 -13.831   2.868  0.00  0.00    -0.389 OA
ATOM     13  H   LIG    1       28.063 -13.015   2.482  0.00  0.00    +0.210 HD
ENDBRANCH   6  12
ENDBRANCH   1   2
BRANCH   1  16
ATOM     14  C   LIG    1       24.545 -19.644   4.539  0.00  0.00    +0.179 C 
ATOM     15  N   LIG    1       23.695 -18.439   4.387  0.00  0.00    -0.281 N 
ATOM     16  C   LIG    1       24.215 -17.271   3.871  0.00  0.00    +0.234 C 
ATOM     17  O   LIG    1       25.387 -17.222   3.477  0.00  0.00    -0.274 OA
ATOM     18  C   LIG    1       22.383 -18.678   4.920  0.00  0.00    +0.081 C 
ATOM     19  C   LIG    1       22.362 -20.029   5.573  0.00  0.00    +0.014 C 
ATOM     20  C   LIG    1       21.507 -19.771   4.365  0.00  0.00    +0.028 C 
ATOM     21  C   LIG    1       23.758 -20.587   5.479  0.00  0.00    +0.043 C 
BRANCH  14  23
ATOM     22  N   LIG    1       25.005 -20.784   2.208  0.00  0.00    -0.195 NA
ATOM     23  C   LIG    1       24.818 -20.303   3.242  0.00  0.00    +0.085 C 
ENDBRANCH  14  23
ENDBRANCH   1  16
BRANCH   1  24
ATOM     24  N   LIG    1       22.432 -16.061   5.045  0.00  0.00    -0.320 NA
ATOM     25  H   LIG    1       21.515 -16.387   4.728  0.00  0.00    +0.119 HD
ATOM     26  H   LIG    1       22.758 -16.845   5.619  0.00  0.00    +0.119 HD
ENDBRANCH   1  24
TORSDOF 5
ENDMDL
MODEL 8
REMARK VINA RESULT:      -2.3      2.071      6.924
REMARK  Name = *****
REMARK                            x       y       z     vdW  Elec       q    Type
REMARK                         _______ _______ _______ _____ _____    ______ ____
ROOT
ATOM      1  C   LIG    1       23.343 -16.056   3.729  0.00  0.00    +0.144 C 
ENDROOT
BRANCH   1   2
ATOM      2  C   LIG    1       24.159 -14.725   3.792  0.00  0.00    -0.003 C 
ATOM      3  C   LIG    1       25.676 -14.945   3.536  0.00  0.00    +0.012 C 
ATOM      4  C   LIG    1       26.452 -13.620   3.609  0.00  0.00    -0.007 C 
ATOM      5  C   LIG    1       25.906 -12.651   2.552  0.00  0.00    +0.038 C 
ATOM      6  C   LIG    1       24.420 -12.373   2.823  0.00  0.00    +0.067 C 
ATOM      7  C   LIG    1       24.246 -11.759   4.216  0.00  0.00    +0.038 C 
ATOM      8  C   LIG    1       24.778 -12.731   5.276  0.00  0.00    -0.007 C 
ATOM      9  C   LIG    1       26.268 -13.006   5.006  0.00  0.00    +0.007 C 
ATOM     10  C   LIG    1       23.649 -13.696   2.752  0.00  0.00    +0.043 C 
ATOM     11  C   LIG    1       23.996 -14.059   5.195  0.00  0.00    +0.012 C 
BRANCH   6  12
ATOM     12  O   LIG    1       23.895 -11.492   1.840  0.00  0.00    -0.389 OA
ATOM     13  H   LIG    1       23.360 -12.021   1.222  0.00  0.00    +0.210 HD
ENDBRANCH   6  12
ENDBRANCH   1   2
BRANCH   1  16
ATOM     14  C   LIG    1       24.514 -19.692   4.574  0.00  0.00    +0.179 C 
ATOM     15  N   LIG    1       23.680 -18.484   4.374  0.00  0.00    -0.281 N 
ATOM     16  C   LIG    1       24.209 -17.351   3.793  0.00  0.00    +0.234 C 
ATOM     17  O   LIG    1       25.376 -17.340   3.382  0.00  0.00    -0.274 OA
ATOM     18  C   LIG    1       22.372 -18.676   4.936  0.00  0.00    +0.081 C 
ATOM     19  C   LIG    1       22.341 -19.993   5.655  0.00  0.00    +0.014 C 
ATOM     20  C   LIG    1       21.473 -19.781   4.448  0.00  0.00    +0.028 C 
ATOM     21  C   LIG    1       23.726 -20.576   5.570  0.00  0.00    +0.043 C 
BRANCH  14  23
ATOM     22  N   LIG    1       24.923 -20.955   2.297  0.00  0.00    -0.195 NA
ATOM     23  C   LIG    1       24.760 -20.420   3.308  0.00  0.00    +0.085 C 
ENDBRANCH  14  23
ENDBRANCH   1  16
BRANCH   1  24
ATOM     24  N   LIG    1       22.354 -16.133   4.840  0.00  0.00    -0.320 NA
ATOM     25  H   LIG    1       22.450 -15.288   5.409  0.00  0.00    +0.119 HD
ATOM     26  H   LIG    1       21.425 -16.013   4.422  0.00  0.00    +0.119 HD
ENDBRANCH   1  24
TORSDOF 5
ENDMDL
MODEL 9
REMARK VINA RESULT:      -2.2      2.538      6.614
REMARK  Name = *****
REMARK                            x       y       z     vdW  Elec       q    Type
REMARK                         _______ _______ _______ _____ _____    ______ ____
ROOT
ATOM      1  C   LIG    1       26.930 -17.228   3.306  0.00  0.00    +0.144 C 
ENDROOT
BRANCH   1   2
ATOM      2  C   LIG    1       26.507 -15.740   3.532  0.00  0.00    -0.003 C 
ATOM      3  C   LIG    1       25.020 -15.604   3.960  0.00  0.00    +0.012 C 
ATOM      4  C   LIG    1       24.633 -14.130   4.169  0.00  0.00    -0.007 C 
ATOM      5  C   LIG    1       25.521 -13.521   5.262  0.00  0.00    +0.038 C 
ATOM      6  C   LIG    1       26.993 -13.592   4.830  0.00  0.00    +0.067 C 
ATOM      7  C   LIG    1       27.195 -12.823   3.520  0.00  0.00    +0.038 C 
ATOM      8  C   LIG    1       26.318 -13.440   2.423  0.00  0.00    -0.007 C 
ATOM      9  C   LIG    1       24.843 -13.364   2.854  0.00  0.00    +0.007 C 
ATOM     10  C   LIG    1       27.377 -15.061   4.619  0.00  0.00    +0.043 C 
ATOM     11  C   LIG    1       26.711 -14.917   2.220  0.00  0.00    +0.012 C 
BRANCH   6  12
ATOM     12  O   LIG    1       27.831 -13.048   5.840  0.00  0.00    -0.389 OA
ATOM     13  H   LIG    1       28.752 -13.260   5.608  0.00  0.00    +0.210 HD
ENDBRANCH   6  12
ENDBRANCH   1   2
BRANCH   1  16
ATOM     14  C   LIG    1       27.209 -19.596   6.408  0.00  0.00    +0.179 C 
ATOM     15  N   LIG    1       26.778 -18.980   5.130  0.00  0.00    -0.281 N 
ATOM     16  C   LIG    1       27.492 -17.942   4.573  0.00  0.00    +0.234 C 
ATOM     17  O   LIG    1       28.536 -17.538   5.101  0.00  0.00    -0.274 OA
ATOM     18  C   LIG    1       25.540 -19.557   4.686  0.00  0.00    +0.081 C 
ATOM     19  C   LIG    1       25.036 -20.498   5.741  0.00  0.00    +0.014 C 
ATOM     20  C   LIG    1       25.432 -21.031   4.394  0.00  0.00    +0.028 C 
ATOM     21  C   LIG    1       25.994 -20.418   6.900  0.00  0.00    +0.043 C 
BRANCH  14  23
ATOM     22  N   LIG    1       29.332 -21.137   6.154  0.00  0.00    -0.195 NA
ATOM     23  C   LIG    1       28.396 -20.464   6.238  0.00  0.00    +0.085 C 
ENDBRANCH  14  23
ENDBRANCH   1  16
BRANCH   1  24
ATOM     24  N   LIG    1       25.783 -18.042   2.814  0.00  0.00    -0.320 NA
ATOM     25  H   LIG    1       24.943 -17.740   3.312  0.00  0.00    +0.119 HD
ATOM     26  H   LIG    1       25.592 -17.739   1.853  0.00  0.00    +0.119 HD
ENDBRANCH   1  24
TORSDOF 5
ENDMDL
