MODEL 1
REMARK VINA RESULT:      -2.2      0.000      0.000
REMARK  Name = *****
REMARK                            x       y       z     vdW  Elec       q    Type
REMARK                         _______ _______ _______ _____ _____    ______ ____
ROOT
ATOM      1  C   LIG    1       26.719 -13.848   3.861  0.00  0.00    +0.140 C 
ATOM      2  C   LIG    1       26.020 -12.867   2.927  0.00  0.00    +0.239 C 
ATOM      3  O   LIG    1       26.480 -12.599   1.814  0.00  0.00    -0.274 OA
ATOM      4  N   LIG    1       24.798 -12.366   3.345  0.00  0.00    -0.228 N 
ATOM      5  C   LIG    1       24.009 -11.629   2.378  0.00  0.00    +0.143 C 
ATOM      6  C   LIG    1       24.410 -12.304   4.665  0.00  0.00    +0.315 C 
ATOM      7  O   LIG    1       23.424 -11.687   5.062  0.00  0.00    -0.252 OA
ATOM      8  N   LIG    1       25.209 -12.934   5.570  0.00  0.00    -0.239 N 
ATOM      9  H   LIG    1       24.937 -12.837   6.538  0.00  0.00    +0.159 HD
ATOM     10  C   LIG    1       26.364 -13.617   5.320  0.00  0.00    +0.237 C 
ATOM     11  O   LIG    1       27.020 -14.072   6.257  0.00  0.00    -0.274 OA
ENDROOT
BRANCH   1  12
ATOM     12  C   LIG    1       26.259 -15.304   3.489  0.00  0.00    +0.085 C 
ATOM     13  C   LIG    1       24.852 -15.678   3.986  0.00  0.00    +0.023 C 
BRANCH  12  14
ATOM     14  C   LIG    1       27.204 -16.332   3.981  0.00  0.00    -0.098 C 
ATOM     15  C   LIG    1       27.952 -17.171   4.428  0.00  0.00    -0.102 C 
BRANCH  15  16
ATOM     16  C   LIG    1       28.834 -18.185   5.010  0.00  0.00    +0.085 C 
ATOM     17  C   LIG    1       28.033 -19.359   5.553  0.00  0.00    +0.017 C 
ENDBRANCH  15  16
ENDBRANCH  12  14
ENDBRANCH   1  12
BRANCH   1  18
ATOM     18  C   LIG    1       28.261 -13.708   3.701  0.00  0.00    +0.053 C 
BRANCH  18  20
ATOM     19  C   LIG    1       29.162 -11.847   5.134  0.00  0.00    +0.004 C 
ATOM     20  C   LIG    1       28.791 -12.311   3.932  0.00  0.00    -0.033 C 
ENDBRANCH  18  20
ENDBRANCH   1  18
TORSDOF 5
ENDMDL
MODEL 2
REMARK VINA RESULT:      -1.4      1.426      2.598
REMARK  Name = *****
REMARK                            x       y       z     vdW  Elec       q    Type
REMARK                         _______ _______ _______ _____ _____    ______ ____
ROOT
ATOM      1  C   LIG    1       26.708 -14.027   4.104  0.00  0.00    +0.140 C 
ATOM      2  C   LIG    1       25.943 -13.333   2.983  0.00  0.00    +0.239 C 
ATOM      3  O   LIG    1       26.332 -13.382   1.812  0.00  0.00    -0.274 OA
ATOM      4  N   LIG    1       24.746 -12.727   3.323  0.00  0.00    -0.228 N 
ATOM      5  C   LIG    1       23.891 -12.275   2.242  0.00  0.00    +0.143 C 
ATOM      6  C   LIG    1       24.439 -12.305   4.597  0.00  0.00    +0.315 C 
ATOM      7  O   LIG    1       23.474 -11.594   4.871  0.00  0.00    -0.252 OA
ATOM      8  N   LIG    1       25.298 -12.670   5.589  0.00  0.00    -0.239 N 
ATOM      9  H   LIG    1       25.086 -12.310   6.509  0.00  0.00    +0.159 HD
ATOM     10  C   LIG    1       26.442 -13.405   5.463  0.00  0.00    +0.237 C 
ATOM     11  O   LIG    1       27.158 -13.592   6.446  0.00  0.00    -0.274 OA
ENDROOT
BRANCH   1  12
ATOM     12  C   LIG    1       26.239 -15.526   4.172  0.00  0.00    +0.085 C 
ATOM     13  C   LIG    1       26.648 -16.381   2.959  0.00  0.00    +0.023 C 
BRANCH  12  14
ATOM     14  C   LIG    1       24.773 -15.646   4.341  0.00  0.00    -0.098 C 
ATOM     15  C   LIG    1       23.580 -15.795   4.468  0.00  0.00    -0.102 C 
BRANCH  15  16
ATOM     16  C   LIG    1       22.138 -16.020   4.610  0.00  0.00    +0.085 C 
ATOM     17  C   LIG    1       21.803 -17.500   4.500  0.00  0.00    +0.017 C 
ENDBRANCH  15  16
ENDBRANCH  12  14
ENDBRANCH   1  12
BRANCH   1  18
ATOM     18  C   LIG    1       28.236 -13.949   3.816  0.00  0.00    +0.053 C 
BRANCH  18  20
ATOM     19  C   LIG    1       29.237 -11.820   4.706  0.00  0.00    +0.004 C 
ATOM     20  C   LIG    1       28.776 -12.544   3.676  0.00  0.00    -0.033 C 
ENDBRANCH  18  20
ENDBRANCH   1  18
TORSDOF 5
ENDMDL
MODEL 3
REMARK VINA RESULT:      -1.3      1.957      4.331
REMARK  Name = *****
REMARK                            x       y       z     vdW  Elec       q    Type
REMARK                         _______ _______ _______ _____ _____    ______ ____
ROOT
ATOM      1  C   LIG    1       25.598 -14.120   4.187  0.00  0.00    +0.140 C 
ATOM      2  C   LIG    1       26.497 -13.460   5.226  0.00  0.00    +0.239 C 
ATOM      3  O   LIG    1       26.130 -13.316   6.396  0.00  0.00    -0.274 OA
ATOM      4  N   LIG    1       27.776 -13.118   4.821  0.00  0.00    -0.228 N 
ATOM      5  C   LIG    1       28.720 -12.715   5.846  0.00  0.00    +0.143 C 
ATOM      6  C   LIG    1       28.126 -12.893   3.508  0.00  0.00    +0.315 C 
ATOM      7  O   LIG    1       29.196 -12.399   3.158  0.00  0.00    -0.252 OA
ATOM      8  N   LIG    1       27.195 -13.200   2.563  0.00  0.00    -0.239 N 
ATOM      9  H   LIG    1       27.449 -12.983   1.610  0.00  0.00    +0.159 HD
ATOM     10  C   LIG    1       25.942 -13.701   2.769  0.00  0.00    +0.237 C 
ATOM     11  O   LIG    1       25.184 -13.860   1.812  0.00  0.00    -0.274 OA
ENDROOT
BRANCH   1  12
ATOM     12  C   LIG    1       25.791 -15.677   4.279  0.00  0.00    +0.085 C 
ATOM     13  C   LIG    1       26.739 -16.269   3.221  0.00  0.00    +0.023 C 
BRANCH  12  14
ATOM     14  C   LIG    1       24.505 -16.406   4.198  0.00  0.00    -0.098 C 
ATOM     15  C   LIG    1       23.470 -17.031   4.171  0.00  0.00    -0.102 C 
BRANCH  15  16
ATOM     16  C   LIG    1       22.232 -17.814   4.174  0.00  0.00    +0.085 C 
ATOM     17  C   LIG    1       22.400 -19.099   4.972  0.00  0.00    +0.017 C 
ENDBRANCH  15  16
ENDBRANCH  12  14
ENDBRANCH   1  12
BRANCH   1  18
ATOM     18  C   LIG    1       24.115 -13.740   4.468  0.00  0.00    +0.053 C 
BRANCH  18  20
ATOM     19  C   LIG    1       23.723 -11.456   3.488  0.00  0.00    +0.004 C 
ATOM     20  C   LIG    1       23.856 -12.252   4.558  0.00  0.00    -0.033 C 
ENDBRANCH  18  20
ENDBRANCH   1  18
TORSDOF 5
ENDMDL
MODEL 4
REMARK VINA RESULT:      -0.0      4.904      7.071
REMARK  Name = *****
REMARK                            x       y       z     vdW  Elec       q    Type
REMARK                         _______ _______ _______ _____ _____    ______ ____
ROOT
ATOM      1  C   LIG    1       22.992 -19.838   4.392  0.00  0.00    +0.140 C 
ATOM      2  C   LIG    1       23.054 -18.315   4.448  0.00  0.00    +0.239 C 
ATOM      3  O   LIG    1       22.113 -17.648   4.887  0.00  0.00    -0.274 OA
ATOM      4  N   LIG    1       24.249 -17.723   4.075  0.00  0.00    -0.228 N 
ATOM      5  C   LIG    1       24.411 -16.308   4.348  0.00  0.00    +0.143 C 
ATOM      6  C   LIG    1       25.171 -18.323   3.246  0.00  0.00    +0.315 C 
ATOM      7  O   LIG    1       26.132 -17.736   2.752  0.00  0.00    -0.252 OA
ATOM      8  N   LIG    1       24.958 -19.631   2.934  0.00  0.00    -0.239 N 
ATOM      9  H   LIG    1       25.616 -20.041   2.287  0.00  0.00    +0.159 HD
ATOM     10  C   LIG    1       23.923 -20.421   3.344  0.00  0.00    +0.237 C 
ATOM     11  O   LIG    1       23.826 -21.570   2.916  0.00  0.00    -0.274 OA
ENDROOT
BRANCH   1  12
ATOM     12  C   LIG    1       23.439 -20.406   5.788  0.00  0.00    +0.085 C 
ATOM     13  C   LIG    1       22.879 -19.641   7.000  0.00  0.00    +0.023 C 
BRANCH  12  14
ATOM     14  C   LIG    1       24.912 -20.459   5.924  0.00  0.00    -0.098 C 
ATOM     15  C   LIG    1       26.111 -20.490   6.085  0.00  0.00    -0.102 C 
BRANCH  15  16
ATOM     16  C   LIG    1       27.556 -20.516   6.324  0.00  0.00    +0.085 C 
ATOM     17  C   LIG    1       28.265 -19.452   5.498  0.00  0.00    +0.017 C 
ENDBRANCH  15  16
ENDBRANCH  12  14
ENDBRANCH   1  12
BRANCH   1  18
ATOM     18  C   LIG    1       21.537 -20.286   4.065  0.00  0.00    +0.053 C 
BRANCH  18  20
ATOM     19  C   LIG    1       19.363 -19.226   3.375  0.00  0.00    +0.004 C 
ATOM     20  C   LIG    1       20.703 -19.239   3.362  0.00  0.00    -0.033 C 
ENDBRANCH  18  20
ENDBRANCH   1  18
TORSDOF 5
ENDMDL
MODEL 5
REMARK VINA RESULT:       0.2      0.974      1.114
REMARK  Name = *****
REMARK                            x       y       z     vdW  Elec       q    Type
REMARK                         _______ _______ _______ _____ _____    ______ ____
ROOT
ATOM      1  C   LIG    1       26.077 -14.379   3.805  0.00  0.00    +0.140 C 
ATOM      2  C   LIG    1       25.532 -13.212   2.989  0.00  0.00    +0.239 C 
ATOM      3  O   LIG    1       25.862 -13.039   1.812  0.00  0.00    -0.274 OA
ATOM      4  N   LIG    1       24.579 -12.413   3.598  0.00  0.00    -0.228 N 
ATOM      5  C   LIG    1       23.877 -11.454   2.768  0.00  0.00    +0.143 C 
ATOM      6  C   LIG    1       24.442 -12.295   4.964  0.00  0.00    +0.315 C 
ATOM      7  O   LIG    1       23.741 -11.447   5.512  0.00  0.00    -0.252 OA
ATOM      8  N   LIG    1       25.173 -13.151   5.731  0.00  0.00    -0.239 N 
ATOM      9  H   LIG    1       25.098 -13.019   6.729  0.00  0.00    +0.159 HD
ATOM     10  C   LIG    1       26.039 -14.113   5.299  0.00  0.00    +0.237 C 
ATOM     11  O   LIG    1       26.687 -14.763   6.119  0.00  0.00    -0.274 OA
ENDROOT
BRANCH   1  12
ATOM     12  C   LIG    1       25.180 -15.641   3.528  0.00  0.00    +0.085 C 
ATOM     13  C   LIG    1       23.869 -15.684   4.331  0.00  0.00    +0.023 C 
BRANCH  12  14
ATOM     14  C   LIG    1       25.907 -16.907   3.772  0.00  0.00    -0.098 C 
ATOM     15  C   LIG    1       26.504 -17.929   4.022  0.00  0.00    -0.102 C 
BRANCH  15  16
ATOM     16  C   LIG    1       27.230 -19.154   4.369  0.00  0.00    +0.085 C 
ATOM     17  C   LIG    1       26.340 -20.115   5.144  0.00  0.00    +0.017 C 
ENDBRANCH  15  16
ENDBRANCH  12  14
ENDBRANCH   1  12
BRANCH   1  18
ATOM     18  C   LIG    1       27.551 -14.659   3.390  0.00  0.00    +0.053 C 
BRANCH  18  20
ATOM     19  C   LIG    1       28.904 -12.658   4.093  0.00  0.00    +0.004 C 
ATOM     20  C   LIG    1       28.373 -13.418   3.125  0.00  0.00    -0.033 C 
ENDBRANCH  18  20
ENDBRANCH   1  18
TORSDOF 5
ENDMDL
MODEL 6
REMARK VINA RESULT:       0.2      1.829      4.051
REMARK  Name = *****
REMARK                            x       y       z     vdW  Elec       q    Type
REMARK                         _______ _______ _______ _____ _____    ______ ____
ROOT
ATOM      1  C   LIG    1       24.871 -12.946   4.096  0.00  0.00    +0.140 C 
ATOM      2  C   LIG    1       25.797 -13.141   5.291  0.00  0.00    +0.239 C 
ATOM      3  O   LIG    1       25.395 -12.989   6.449  0.00  0.00    -0.274 OA
ATOM      4  N   LIG    1       27.079 -13.589   5.024  0.00  0.00    -0.228 N 
ATOM      5  C   LIG    1       27.892 -14.010   6.148  0.00  0.00    +0.143 C 
ATOM      6  C   LIG    1       27.708 -13.421   3.810  0.00  0.00    +0.315 C 
ATOM      7  O   LIG    1       28.905 -13.633   3.622  0.00  0.00    -0.252 OA
ATOM      8  N   LIG    1       26.949 -12.947   2.785  0.00  0.00    -0.239 N 
ATOM      9  H   LIG    1       27.436 -12.783   1.915  0.00  0.00    +0.159 HD
ATOM     10  C   LIG    1       25.627 -12.607   2.823  0.00  0.00    +0.237 C 
ATOM     11  O   LIG    1       25.092 -12.120   1.827  0.00  0.00    -0.274 OA
ENDROOT
BRANCH   1  12
ATOM     12  C   LIG    1       24.097 -14.290   3.841  0.00  0.00    +0.085 C 
ATOM     13  C   LIG    1       23.094 -14.670   4.945  0.00  0.00    +0.023 C 
BRANCH  12  14
ATOM     14  C   LIG    1       25.014 -15.435   3.644  0.00  0.00    -0.098 C 
ATOM     15  C   LIG    1       25.732 -16.399   3.513  0.00  0.00    -0.102 C 
BRANCH  15  16
ATOM     16  C   LIG    1       26.574 -17.592   3.380  0.00  0.00    +0.085 C 
ATOM     17  C   LIG    1       25.742 -18.861   3.490  0.00  0.00    +0.017 C 
ENDBRANCH  15  16
ENDBRANCH  12  14
ENDBRANCH   1  12
BRANCH   1  18
ATOM     18  C   LIG    1       23.871 -11.792   4.398  0.00  0.00    +0.053 C 
BRANCH  18  20
ATOM     19  C   LIG    1       22.556 -11.449   6.515  0.00  0.00    +0.004 C 
ATOM     20  C   LIG    1       23.728 -11.455   5.865  0.00  0.00    -0.033 C 
ENDBRANCH  18  20
ENDBRANCH   1  18
TORSDOF 5
ENDMDL
MODEL 7
REMARK VINA RESULT:       0.3      5.028      7.745
REMARK  Name = *****
REMARK                            x       y       z     vdW  Elec       q    Type
REMARK                         _______ _______ _______ _____ _____    ______ ____
ROOT
ATOM      1  C   LIG    1       23.876 -20.104   4.810  0.00  0.00    +0.140 C 
ATOM      2  C   LIG    1       25.256 -20.126   4.162  0.00  0.00    +0.239 C 
ATOM      3  O   LIG    1       25.392 -20.238   2.941  0.00  0.00    -0.274 OA
ATOM      4  N   LIG    1       26.342 -19.917   4.995  0.00  0.00    -0.228 N 
ATOM      5  C   LIG    1       27.632 -19.693   4.373  0.00  0.00    +0.143 C 
ATOM      6  C   LIG    1       26.321 -20.158   6.351  0.00  0.00    +0.315 C 
ATOM      7  O   LIG    1       27.325 -20.168   7.062  0.00  0.00    -0.252 OA
ATOM      8  N   LIG    1       25.112 -20.448   6.905  0.00  0.00    -0.239 N 
ATOM      9  H   LIG    1       25.122 -20.671   7.890  0.00  0.00    +0.159 HD
ATOM     10  C   LIG    1       23.909 -20.535   6.266  0.00  0.00    +0.237 C 
ATOM     11  O   LIG    1       22.908 -20.881   6.893  0.00  0.00    -0.274 OA
ENDROOT
BRANCH   1  12
ATOM     12  C   LIG    1       23.329 -18.631   4.767  0.00  0.00    +0.085 C 
ATOM     13  C   LIG    1       21.986 -18.468   4.034  0.00  0.00    +0.023 C 
BRANCH  12  14
ATOM     14  C   LIG    1       24.298 -17.692   4.158  0.00  0.00    -0.098 C 
ATOM     15  C   LIG    1       25.083 -16.894   3.701  0.00  0.00    -0.102 C 
BRANCH  15  16
ATOM     16  C   LIG    1       26.028 -15.900   3.184  0.00  0.00    +0.085 C 
ATOM     17  C   LIG    1       25.529 -14.486   3.445  0.00  0.00    +0.017 C 
ENDBRANCH  15  16
ENDBRANCH  12  14
ENDBRANCH   1  12
BRANCH   1  18
ATOM     18  C   LIG    1       22.924 -21.060   4.034  0.00  0.00    +0.053 C 
BRANCH  18  20
ATOM     19  C   LIG    1       20.483 -21.534   4.417  0.00  0.00    +0.004 C 
ATOM     20  C   LIG    1       21.753 -21.572   4.843  0.00  0.00    -0.033 C 
ENDBRANCH  18  20
ENDBRANCH   1  18
TORSDOF 5
ENDMDL
MODEL 8
REMARK VINA RESULT:       0.4      2.138      3.454
REMARK  Name = *****
REMARK                            x       y       z     vdW  Elec       q    Type
REMARK                         _______ _______ _______ _____ _____    ______ ____
ROOT
ATOM      1  C   LIG    1       25.600 -14.408   3.778  0.00  0.00    +0.140 C 
ATOM      2  C   LIG    1       25.367 -15.838   3.302  0.00  0.00    +0.239 C 
ATOM      3  O   LIG    1       26.085 -16.354   2.441  0.00  0.00    -0.274 OA
ATOM      4  N   LIG    1       24.377 -16.559   3.946  0.00  0.00    -0.228 N 
ATOM      5  C   LIG    1       24.301 -17.982   3.679  0.00  0.00    +0.143 C 
ATOM      6  C   LIG    1       23.320 -15.978   4.612  0.00  0.00    +0.315 C 
ATOM      7  O   LIG    1       22.337 -16.599   5.013  0.00  0.00    -0.252 OA
ATOM      8  N   LIG    1       23.368 -14.628   4.781  0.00  0.00    -0.239 N 
ATOM      9  H   LIG    1       22.563 -14.212   5.227  0.00  0.00    +0.159 HD
ATOM     10  C   LIG    1       24.347 -13.776   4.357  0.00  0.00    +0.237 C 
ATOM     11  O   LIG    1       24.213 -12.564   4.521  0.00  0.00    -0.274 OA
ENDROOT
BRANCH   1  12
ATOM     12  C   LIG    1       26.684 -14.433   4.916  0.00  0.00    +0.085 C 
ATOM     13  C   LIG    1       27.578 -13.183   4.976  0.00  0.00    +0.023 C 
BRANCH  12  14
ATOM     14  C   LIG    1       27.565 -15.619   4.823  0.00  0.00    -0.098 C 
ATOM     15  C   LIG    1       28.270 -16.602   4.795  0.00  0.00    -0.102 C 
BRANCH  15  16
ATOM     16  C   LIG    1       29.110 -17.802   4.803  0.00  0.00    +0.085 C 
ATOM     17  C   LIG    1       28.390 -18.968   5.465  0.00  0.00    +0.017 C 
ENDBRANCH  15  16
ENDBRANCH  12  14
ENDBRANCH   1  12
BRANCH   1  18
ATOM     18  C   LIG    1       26.086 -13.536   2.584  0.00  0.00    +0.053 C 
BRANCH  18  20
ATOM     19  C   LIG    1       24.782 -11.529   1.812  0.00  0.00    +0.004 C 
ATOM     20  C   LIG    1       24.977 -12.854   1.814  0.00  0.00    -0.033 C 
ENDBRANCH  18  20
ENDBRANCH   1  18
TORSDOF 5
ENDMDL
MODEL 9
REMARK VINA RESULT:       0.6      2.306      4.523
REMARK  Name = *****
REMARK                            x       y       z     vdW  Elec       q    Type
REMARK                         _______ _______ _______ _____ _____    ______ ____
ROOT
ATOM      1  C   LIG    1       25.613 -13.909   3.194  0.00  0.00    +0.140 C 
ATOM      2  C   LIG    1       26.966 -13.210   3.270  0.00  0.00    +0.239 C 
ATOM      3  O   LIG    1       27.124 -12.064   2.840  0.00  0.00    -0.274 OA
ATOM      4  N   LIG    1       27.981 -13.882   3.930  0.00  0.00    -0.228 N 
ATOM      5  C   LIG    1       29.194 -13.144   4.224  0.00  0.00    +0.143 C 
ATOM      6  C   LIG    1       28.012 -15.249   4.092  0.00  0.00    +0.315 C 
ATOM      7  O   LIG    1       28.993 -15.871   4.495  0.00  0.00    -0.252 OA
ATOM      8  N   LIG    1       26.892 -15.936   3.732  0.00  0.00    -0.239 N 
ATOM      9  H   LIG    1       26.949 -16.941   3.811  0.00  0.00    +0.159 HD
ATOM     10  C   LIG    1       25.736 -15.422   3.219  0.00  0.00    +0.237 C 
ATOM     11  O   LIG    1       24.832 -16.181   2.871  0.00  0.00    -0.274 OA
ENDROOT
BRANCH   1  12
ATOM     12  C   LIG    1       24.762 -13.484   4.446  0.00  0.00    +0.085 C 
ATOM     13  C   LIG    1       25.583 -13.233   5.723  0.00  0.00    +0.023 C 
BRANCH  12  14
ATOM     14  C   LIG    1       23.710 -14.474   4.768  0.00  0.00    -0.098 C 
ATOM     15  C   LIG    1       22.879 -15.319   5.009  0.00  0.00    -0.102 C 
BRANCH  15  16
ATOM     16  C   LIG    1       21.899 -16.375   5.281  0.00  0.00    +0.085 C 
ATOM     17  C   LIG    1       22.268 -17.662   4.557  0.00  0.00    +0.017 C 
ENDBRANCH  15  16
ENDBRANCH  12  14
ENDBRANCH   1  12
BRANCH   1  18
ATOM     18  C   LIG    1       24.888 -13.494   1.880  0.00  0.00    +0.053 C 
BRANCH  18  20
ATOM     19  C   LIG    1       23.690 -11.448   2.721  0.00  0.00    +0.004 C 
ATOM     20  C   LIG    1       24.487 -12.037   1.819  0.00  0.00    -0.033 C 
ENDBRANCH  18  20
ENDBRANCH   1  18
TORSDOF 5
ENDMDL
