MODEL 1
REMARK VINA RESULT:      -3.1      0.000      0.000
REMARK  Name = *****
REMARK                            x       y       z     vdW  Elec       q    Type
REMARK                         _______ _______ _______ _____ _____    ______ ____
ROOT
ATOM      1  N   LIG    1       31.900 -22.112   9.110  0.00  0.00    -0.130 NA
ATOM      2  H   LIG    1       31.454 -22.954   8.743  0.00  0.00    +0.306 HD
ATOM      3  C   LIG    1       31.231 -21.085   8.739  0.00  0.00    +0.374 C 
ENDROOT
BRANCH   3   4
ATOM      4  N   LIG    1       31.610 -19.856   9.089  0.00  0.00    -0.289 N 
ATOM      5  H   LIG    1       31.809 -19.573  10.033  0.00  0.00    +0.255 HD
ATOM      6  H   LIG    1       31.700 -19.175   8.346  0.00  0.00    +0.255 HD
ENDBRANCH   3   4
BRANCH   3   7
ATOM      7  N   LIG    1       30.124 -21.134   7.992  0.00  0.00    -0.289 N 
ATOM      8  H   LIG    1       29.271 -20.684   8.286  0.00  0.00    +0.255 HD
ATOM      9  H   LIG    1       30.111 -21.623   7.110  0.00  0.00    +0.255 HD
ENDBRANCH   3   7
TORSDOF 2
ENDMDL
MODEL 2
REMARK VINA RESULT:      -3.0      0.431      1.628
REMARK  Name = *****
REMARK                            x       y       z     vdW  Elec       q    Type
REMARK                         _______ _______ _______ _____ _____    ______ ____
ROOT
ATOM      1  N   LIG    1       31.862 -19.859   9.247  0.00  0.00    -0.130 NA
ATOM      2  H   LIG    1       31.419 -18.972   9.002  0.00  0.00    +0.306 HD
ATOM      3  C   LIG    1       31.306 -20.805   8.586  0.00  0.00    +0.374 C 
ENDROOT
BRANCH   3   4
ATOM      4  N   LIG    1       31.706 -22.068   8.728  0.00  0.00    -0.289 N 
ATOM      5  H   LIG    1       32.668 -22.355   8.777  0.00  0.00    +0.255 HD
ATOM      6  H   LIG    1       30.983 -22.773   8.793  0.00  0.00    +0.255 HD
ENDBRANCH   3   4
BRANCH   3   7
ATOM      7  N   LIG    1       30.306 -20.632   7.717  0.00  0.00    -0.289 N 
ATOM      8  H   LIG    1       29.656 -19.868   7.809  0.00  0.00    +0.255 HD
ATOM      9  H   LIG    1       30.174 -21.263   6.941  0.00  0.00    +0.255 HD
ENDBRANCH   3   7
TORSDOF 2
ENDMDL
MODEL 3
REMARK VINA RESULT:      -3.0      0.444      1.823
REMARK  Name = *****
REMARK                            x       y       z     vdW  Elec       q    Type
REMARK                         _______ _______ _______ _____ _____    ______ ____
ROOT
ATOM      1  N   LIG    1       31.858 -19.835   9.231  0.00  0.00    -0.130 NA
ATOM      2  H   LIG    1       32.580 -20.193   9.858  0.00  0.00    +0.306 HD
ATOM      3  C   LIG    1       31.336 -20.813   8.589  0.00  0.00    +0.374 C 
ENDROOT
BRANCH   3   4
ATOM      4  N   LIG    1       30.363 -20.609   7.701  0.00  0.00    -0.289 N 
ATOM      5  H   LIG    1       29.754 -21.329   7.353  0.00  0.00    +0.255 HD
ATOM      6  H   LIG    1       30.240 -19.662   7.366  0.00  0.00    +0.255 HD
ENDBRANCH   3   4
BRANCH   3   7
ATOM      7  N   LIG    1       31.697 -22.091   8.735  0.00  0.00    -0.289 N 
ATOM      8  H   LIG    1       31.302 -22.669   9.459  0.00  0.00    +0.255 HD
ATOM      9  H   LIG    1       32.377 -22.515   8.122  0.00  0.00    +0.255 HD
ENDBRANCH   3   7
TORSDOF 2
ENDMDL
MODEL 4
REMARK VINA RESULT:      -2.9      2.680      3.311
REMARK  Name = *****
REMARK                            x       y       z     vdW  Elec       q    Type
REMARK                         _______ _______ _______ _____ _____    ______ ____
ROOT
ATOM      1  N   LIG    1       32.328 -17.034   8.603  0.00  0.00    -0.130 NA
ATOM      2  H   LIG    1       32.626 -16.874   7.640  0.00  0.00    +0.306 HD
ATOM      3  C   LIG    1       31.859 -18.222   8.706  0.00  0.00    +0.374 C 
ENDROOT
BRANCH   3   4
ATOM      4  N   LIG    1       31.400 -18.679   9.871  0.00  0.00    -0.289 N 
ATOM      5  H   LIG    1       30.816 -18.151  10.496  0.00  0.00    +0.255 HD
ATOM      6  H   LIG    1       31.663 -19.622  10.129  0.00  0.00    +0.255 HD
ENDBRANCH   3   4
BRANCH   3   7
ATOM      7  N   LIG    1       31.785 -19.095   7.698  0.00  0.00    -0.289 N 
ATOM      8  H   LIG    1       30.986 -19.123   7.084  0.00  0.00    +0.255 HD
ATOM      9  H   LIG    1       32.529 -19.753   7.521  0.00  0.00    +0.255 HD
ENDBRANCH   3   7
TORSDOF 2
ENDMDL
MODEL 5
REMARK VINA RESULT:      -2.9      1.437      2.208
REMARK  Name = *****
REMARK                            x       y       z     vdW  Elec       q    Type
REMARK                         _______ _______ _______ _____ _____    ______ ____
ROOT
ATOM      1  N   LIG    1       30.853 -19.104   9.834  0.00  0.00    -0.130 NA
ATOM      2  H   LIG    1       30.643 -18.169   9.483  0.00  0.00    +0.306 HD
ATOM      3  C   LIG    1       31.396 -19.792   8.898  0.00  0.00    +0.374 C 
ENDROOT
BRANCH   3   4
ATOM      4  N   LIG    1       31.766 -21.056   9.103  0.00  0.00    -0.289 N 
ATOM      5  H   LIG    1       31.278 -21.855   8.737  0.00  0.00    +0.255 HD
ATOM      6  H   LIG    1       32.596 -21.204   9.664  0.00  0.00    +0.255 HD
ENDBRANCH   3   4
BRANCH   3   7
ATOM      7  N   LIG    1       31.639 -19.333   7.668  0.00  0.00    -0.289 N 
ATOM      8  H   LIG    1       31.095 -18.584   7.269  0.00  0.00    +0.255 HD
ATOM      9  H   LIG    1       32.376 -19.724   7.101  0.00  0.00    +0.255 HD
ENDBRANCH   3   7
TORSDOF 2
ENDMDL
MODEL 6
REMARK VINA RESULT:      -2.8     10.323     10.913
REMARK  Name = *****
REMARK                            x       y       z     vdW  Elec       q    Type
REMARK                         _______ _______ _______ _____ _____    ______ ____
ROOT
ATOM      1  N   LIG    1       23.340 -29.604   5.506  0.00  0.00    -0.130 NA
ATOM      2  H   LIG    1       23.692 -30.561   5.470  0.00  0.00    +0.306 HD
ATOM      3  C   LIG    1       24.330 -28.792   5.554  0.00  0.00    +0.374 C 
ENDROOT
BRANCH   3   4
ATOM      4  N   LIG    1       24.135 -27.475   5.609  0.00  0.00    -0.289 N 
ATOM      5  H   LIG    1       23.565 -27.015   6.297  0.00  0.00    +0.255 HD
ATOM      6  H   LIG    1       24.599 -26.914   4.906  0.00  0.00    +0.255 HD
ENDBRANCH   3   4
BRANCH   3   7
ATOM      7  N   LIG    1       25.613 -29.165   5.553  0.00  0.00    -0.289 N 
ATOM      8  H   LIG    1       25.949 -29.891   4.940  0.00  0.00    +0.255 HD
ATOM      9  H   LIG    1       26.284 -28.729   6.167  0.00  0.00    +0.255 HD
ENDBRANCH   3   7
TORSDOF 2
ENDMDL
MODEL 7
REMARK VINA RESULT:      -2.8     10.280     10.882
REMARK  Name = *****
REMARK                            x       y       z     vdW  Elec       q    Type
REMARK                         _______ _______ _______ _____ _____    ______ ____
ROOT
ATOM      1  N   LIG    1       23.370 -29.586   5.470  0.00  0.00    -0.130 NA
ATOM      2  H   LIG    1       22.480 -29.086   5.443  0.00  0.00    +0.306 HD
ATOM      3  C   LIG    1       24.327 -28.737   5.541  0.00  0.00    +0.374 C 
ENDROOT
BRANCH   3   4
ATOM      4  N   LIG    1       25.598 -29.138   5.589  0.00  0.00    -0.289 N 
ATOM      5  H   LIG    1       26.157 -29.343   4.779  0.00  0.00    +0.255 HD
ATOM      6  H   LIG    1       26.012 -29.237   6.506  0.00  0.00    +0.255 HD
ENDBRANCH   3   4
BRANCH   3   7
ATOM      7  N   LIG    1       24.161 -27.412   5.576  0.00  0.00    -0.289 N 
ATOM      8  H   LIG    1       23.582 -26.937   4.901  0.00  0.00    +0.255 HD
ATOM      9  H   LIG    1       24.611 -26.847   6.280  0.00  0.00    +0.255 HD
ENDBRANCH   3   7
TORSDOF 2
ENDMDL
MODEL 8
REMARK VINA RESULT:      -2.7      2.465      3.277
REMARK  Name = *****
REMARK                            x       y       z     vdW  Elec       q    Type
REMARK                         _______ _______ _______ _____ _____    ______ ____
ROOT
ATOM      1  N   LIG    1       32.043 -19.399   9.217  0.00  0.00    -0.130 NA
ATOM      2  H   LIG    1       33.000 -19.337   9.567  0.00  0.00    +0.306 HD
ATOM      3  C   LIG    1       31.654 -18.236   8.847  0.00  0.00    +0.374 C 
ENDROOT
BRANCH   3   4
ATOM      4  N   LIG    1       30.432 -18.048   8.349  0.00  0.00    -0.289 N 
ATOM      5  H   LIG    1       29.979 -17.153   8.283  0.00  0.00    +0.255 HD
ATOM      6  H   LIG    1       29.941 -18.869   8.018  0.00  0.00    +0.255 HD
ENDBRANCH   3   4
BRANCH   3   7
ATOM      7  N   LIG    1       32.402 -17.132   8.916  0.00  0.00    -0.289 N 
ATOM      8  H   LIG    1       33.167 -16.974   8.280  0.00  0.00    +0.255 HD
ATOM      9  H   LIG    1       32.222 -16.422   9.610  0.00  0.00    +0.255 HD
ENDBRANCH   3   7
TORSDOF 2
ENDMDL
MODEL 9
REMARK VINA RESULT:      -2.7      4.478      5.446
REMARK  Name = *****
REMARK                            x       y       z     vdW  Elec       q    Type
REMARK                         _______ _______ _______ _____ _____    ______ ____
ROOT
ATOM      1  N   LIG    1       32.654 -16.153   8.882  0.00  0.00    -0.130 NA
ATOM      2  H   LIG    1       33.022 -15.212   8.740  0.00  0.00    +0.306 HD
ATOM      3  C   LIG    1       32.543 -16.377  10.139  0.00  0.00    +0.374 C 
ENDROOT
BRANCH   3   4
ATOM      4  N   LIG    1       32.083 -17.545  10.589  0.00  0.00    -0.289 N 
ATOM      5  H   LIG    1       31.374 -17.639  11.295  0.00  0.00    +0.255 HD
ATOM      6  H   LIG    1       32.483 -18.381  10.183  0.00  0.00    +0.255 HD
ENDBRANCH   3   4
BRANCH   3   7
ATOM      7  N   LIG    1       32.864 -15.500  11.093  0.00  0.00    -0.289 N 
ATOM      8  H   LIG    1       32.265 -14.721  11.314  0.00  0.00    +0.255 HD
ATOM      9  H   LIG    1       33.718 -15.593  11.622  0.00  0.00    +0.255 HD
ENDBRANCH   3   7
TORSDOF 2
ENDMDL
