MODEL 1
REMARK VINA RESULT:      -5.5      0.000      0.000
REMARK  Name = *****
REMARK                            x       y       z     vdW  Elec       q    Type
REMARK                         _______ _______ _______ _____ _____    ______ ____
ROOT
ATOM      1  C   LIG    1       23.170 -26.791  13.247  0.00  0.00    +0.013 C 
ATOM      2  C   LIG    1       23.567 -28.050  12.993  0.00  0.00    -0.036 C 
ATOM      3  C   LIG    1       22.669 -29.283  12.868  0.00  0.00    +0.085 C 
ATOM      4  C   LIG    1       22.914 -29.981  11.552  0.00  0.00    +0.050 C 
ATOM      5  C   LIG    1       21.940 -30.629  10.887  0.00  0.00    +0.141 C 
ATOM      6  C   LIG    1       20.533 -30.730  11.403  0.00  0.00    +0.192 C 
ATOM      7  C   LIG    1       20.303 -30.308  12.875  0.00  0.00    +0.090 C 
ATOM      8  C   LIG    1       18.741 -30.243  13.090  0.00  0.00    +0.132 C 
ATOM      9  C   LIG    1       17.961 -31.319  12.267  0.00  0.00    +0.127 C 
ATOM     10  C   LIG    1       18.526 -32.268  11.482  0.00  0.00    +0.121 C 
ATOM     11  C   LIG    1       20.010 -32.178  11.419  0.00  0.00    +0.211 C 
ATOM     12  O   LIG    1       20.729 -33.159  11.587  0.00  0.00    -0.288 OA
ATOM     13  C   LIG    1       24.275 -29.880  10.934  0.00  0.00    +0.197 C 
ATOM     14  O   LIG    1       24.460 -30.274   9.784  0.00  0.00    -0.287 OA
ATOM     15  C   LIG    1       25.353 -29.262  11.744  0.00  0.00    +0.071 A 
ATOM     16  C   LIG    1       26.705 -29.553  11.503  0.00  0.00    +0.128 A 
ATOM     17  C   LIG    1       27.706 -28.935  12.252  0.00  0.00    +0.046 A 
ATOM     18  C   LIG    1       27.360 -28.030  13.252  0.00  0.00    +0.004 A 
ATOM     19  C   LIG    1       26.018 -27.736  13.500  0.00  0.00    +0.009 A 
ATOM     20  C   LIG    1       21.137 -29.035  13.144  0.00  0.00    +0.135 C 
ATOM     21  C   LIG    1       25.000 -28.339  12.742  0.00  0.00    -0.007 A 
ENDROOT
BRANCH  10  22
ATOM     22  C   LIG    1       17.815 -33.336  10.739  0.00  0.00    +0.248 C 
ATOM     23  O   LIG    1       16.752 -33.825  11.117  0.00  0.00    -0.270 OA
ATOM     24  N   LIG    1       18.421 -33.812   9.623  0.00  0.00    -0.325 N 
ATOM     25  H   LIG    1       19.267 -33.376   9.265  0.00  0.00    +0.145 HD
ATOM     26  H   LIG    1       17.953 -34.524   9.084  0.00  0.00    +0.145 HD
ENDBRANCH  10  22
BRANCH   8  27
ATOM     27  N   LIG    1       18.139 -30.310  14.452  0.00  0.00    -0.298 NA
ATOM     28  C   LIG    1       18.941 -31.018  15.451  0.00  0.00    +0.105 C 
ATOM     29  C   LIG    1       17.649 -29.047  14.989  0.00  0.00    +0.105 C 
ENDBRANCH   8  27
BRANCH   5  30
ATOM     30  O   LIG    1       22.093 -31.135   9.603  0.00  0.00    -0.507 OA
ATOM     31  H   LIG    1       23.025 -31.444   9.497  0.00  0.00    +0.292 HD
ENDBRANCH   5  30
BRANCH   6  32
ATOM     32  O   LIG    1       19.783 -29.885  10.522  0.00  0.00    -0.373 OA
ATOM     33  H   LIG    1       18.842 -30.100  10.694  0.00  0.00    +0.211 HD
ENDBRANCH   6  32
BRANCH   9  34
ATOM     34  O   LIG    1       16.582 -31.271  12.472  0.00  0.00    -0.509 OA
ATOM     35  H   LIG    1       16.392 -32.078  13.006  0.00  0.00    +0.292 HD
ENDBRANCH   9  34
BRANCH  16  36
ATOM     36  O   LIG    1       27.064 -30.473  10.559  0.00  0.00    -0.506 OA
ATOM     37  H   LIG    1       26.303 -30.691   9.998  0.00  0.00    +0.292 HD
ENDBRANCH  16  36
BRANCH  20  38
ATOM     38  O   LIG    1       20.985 -28.606  14.497  0.00  0.00    -0.390 OA
ATOM     39  H   LIG    1       20.362 -27.859  14.524  0.00  0.00    +0.210 HD
ENDBRANCH  20  38
TORSDOF 7
ENDMDL
MODEL 2
REMARK VINA RESULT:      -5.4      2.985      6.584
REMARK  Name = *****
REMARK                            x       y       z     vdW  Elec       q    Type
REMARK                         _______ _______ _______ _____ _____    ______ ____
ROOT
ATOM      1  C   LIG    1       23.817 -28.271  15.321  0.00  0.00    +0.013 C 
ATOM      2  C   LIG    1       22.918 -28.346  14.325  0.00  0.00    -0.036 C 
ATOM      3  C   LIG    1       23.150 -28.925  12.927  0.00  0.00    +0.085 C 
ATOM      4  C   LIG    1       22.123 -29.988  12.620  0.00  0.00    +0.050 C 
ATOM      5  C   LIG    1       22.399 -31.058  11.852  0.00  0.00    +0.141 C 
ATOM      6  C   LIG    1       23.743 -31.279  11.220  0.00  0.00    +0.192 C 
ATOM      7  C   LIG    1       24.725 -30.081  11.243  0.00  0.00    +0.090 C 
ATOM      8  C   LIG    1       26.127 -30.635  10.779  0.00  0.00    +0.132 C 
ATOM      9  C   LIG    1       26.018 -31.765   9.705  0.00  0.00    +0.127 C 
ATOM     10  C   LIG    1       24.865 -32.216   9.156  0.00  0.00    +0.121 C 
ATOM     11  C   LIG    1       23.649 -31.563   9.710  0.00  0.00    +0.211 C 
ATOM     12  O   LIG    1       22.770 -31.105   8.986  0.00  0.00    -0.288 OA
ATOM     13  C   LIG    1       20.772 -29.880  13.259  0.00  0.00    +0.197 C 
ATOM     14  O   LIG    1       19.977 -30.814  13.182  0.00  0.00    -0.287 OA
ATOM     15  C   LIG    1       20.462 -28.633  14.002  0.00  0.00    +0.071 A 
ATOM     16  C   LIG    1       19.138 -28.211  14.197  0.00  0.00    +0.128 A 
ATOM     17  C   LIG    1       18.865 -27.055  14.928  0.00  0.00    +0.046 A 
ATOM     18  C   LIG    1       19.915 -26.311  15.461  0.00  0.00    +0.004 A 
ATOM     19  C   LIG    1       21.235 -26.723  15.269  0.00  0.00    +0.009 A 
ATOM     20  C   LIG    1       24.622 -29.405  12.630  0.00  0.00    +0.135 C 
ATOM     21  C   LIG    1       21.524 -27.894  14.549  0.00  0.00    -0.007 A 
ENDROOT
BRANCH  10  22
ATOM     22  C   LIG    1       24.737 -33.244   8.094  0.00  0.00    +0.248 C 
ATOM     23  O   LIG    1       25.654 -33.542   7.332  0.00  0.00    -0.270 OA
ATOM     24  N   LIG    1       23.519 -33.824   7.949  0.00  0.00    -0.325 N 
ATOM     25  H   LIG    1       22.772 -33.635   8.610  0.00  0.00    +0.145 HD
ATOM     26  H   LIG    1       23.405 -34.542   7.249  0.00  0.00    +0.145 HD
ENDBRANCH  10  22
BRANCH   8  27
ATOM     27  N   LIG    1       27.188 -29.728  10.255  0.00  0.00    -0.298 NA
ATOM     28  C   LIG    1       26.698 -28.540   9.553  0.00  0.00    +0.105 C 
ATOM     29  C   LIG    1       28.235 -29.368  11.202  0.00  0.00    +0.105 C 
ENDBRANCH   8  27
BRANCH   5  30
ATOM     30  O   LIG    1       21.531 -32.130  11.689  0.00  0.00    -0.507 OA
ATOM     31  H   LIG    1       20.607 -31.783  11.656  0.00  0.00    +0.292 HD
ENDBRANCH   5  30
BRANCH   6  32
ATOM     32  O   LIG    1       24.290 -32.382  11.953  0.00  0.00    -0.373 OA
ATOM     33  H   LIG    1       24.860 -31.979  12.642  0.00  0.00    +0.211 HD
ENDBRANCH   6  32
BRANCH   9  34
ATOM     34  O   LIG    1       27.260 -32.240   9.282  0.00  0.00    -0.509 OA
ATOM     35  H   LIG    1       27.710 -31.442   8.918  0.00  0.00    +0.292 HD
ENDBRANCH   9  34
BRANCH  16  36
ATOM     36  O   LIG    1       18.096 -28.899  13.644  0.00  0.00    -0.506 OA
ATOM     37  H   LIG    1       17.650 -29.433  14.320  0.00  0.00    +0.292 HD
ENDBRANCH  16  36
BRANCH  20  38
ATOM     38  O   LIG    1       25.490 -28.275  12.707  0.00  0.00    -0.390 OA
ATOM     39  H   LIG    1       26.413 -28.584  12.718  0.00  0.00    +0.210 HD
ENDBRANCH  20  38
TORSDOF 7
ENDMDL
MODEL 3
REMARK VINA RESULT:      -5.3      3.039      5.508
REMARK  Name = *****
REMARK                            x       y       z     vdW  Elec       q    Type
REMARK                         _______ _______ _______ _____ _____    ______ ____
ROOT
ATOM      1  C   LIG    1       27.780 -28.564  11.879  0.00  0.00    +0.013 C 
ATOM      2  C   LIG    1       26.498 -28.173  11.979  0.00  0.00    -0.036 C 
ATOM      3  C   LIG    1       25.293 -28.806  11.279  0.00  0.00    +0.085 C 
ATOM      4  C   LIG    1       24.236 -29.181  12.289  0.00  0.00    +0.050 C 
ATOM      5  C   LIG    1       23.431 -30.248  12.128  0.00  0.00    +0.141 C 
ATOM      6  C   LIG    1       23.502 -31.145  10.925  0.00  0.00    +0.192 C 
ATOM      7  C   LIG    1       24.342 -30.634   9.729  0.00  0.00    +0.090 C 
ATOM      8  C   LIG    1       24.485 -31.842   8.725  0.00  0.00    +0.132 C 
ATOM      9  C   LIG    1       23.223 -32.764   8.687  0.00  0.00    +0.127 C 
ATOM     10  C   LIG    1       22.080 -32.555   9.382  0.00  0.00    +0.121 C 
ATOM     11  C   LIG    1       22.130 -31.357  10.262  0.00  0.00    +0.211 C 
ATOM     12  O   LIG    1       21.234 -30.517  10.269  0.00  0.00    -0.288 OA
ATOM     13  C   LIG    1       24.135 -28.377  13.549  0.00  0.00    +0.197 C 
ATOM     14  O   LIG    1       23.417 -28.762  14.469  0.00  0.00    -0.287 OA
ATOM     15  C   LIG    1       24.952 -27.142  13.642  0.00  0.00    +0.071 A 
ATOM     16  C   LIG    1       24.588 -26.089  14.496  0.00  0.00    +0.128 A 
ATOM     17  C   LIG    1       25.388 -24.952  14.597  0.00  0.00    +0.046 A 
ATOM     18  C   LIG    1       26.552 -24.857  13.838  0.00  0.00    +0.004 A 
ATOM     19  C   LIG    1       26.920 -25.898  12.984  0.00  0.00    +0.009 A 
ATOM     20  C   LIG    1       25.629 -29.985  10.289  0.00  0.00    +0.135 C 
ATOM     21  C   LIG    1       26.132 -27.058  12.885  0.00  0.00    -0.007 A 
ENDROOT
BRANCH  10  22
ATOM     22  C   LIG    1       20.848 -33.379   9.320  0.00  0.00    +0.248 C 
ATOM     23  O   LIG    1       20.388 -33.825   8.270  0.00  0.00    -0.270 OA
ATOM     24  N   LIG    1       20.191 -33.585  10.489  0.00  0.00    -0.325 N 
ATOM     25  H   LIG    1       20.590 -33.277  11.370  0.00  0.00    +0.145 HD
ATOM     26  H   LIG    1       19.361 -34.159  10.483  0.00  0.00    +0.145 HD
ENDBRANCH  10  22
BRANCH   8  27
ATOM     27  N   LIG    1       24.829 -31.627   7.290  0.00  0.00    -0.298 NA
ATOM     28  C   LIG    1       24.348 -30.368   6.719  0.00  0.00    +0.105 C 
ATOM     29  C   LIG    1       26.225 -31.852   6.935  0.00  0.00    +0.105 C 
ENDBRANCH   8  27
BRANCH   5  30
ATOM     30  O   LIG    1       22.567 -30.713  13.111  0.00  0.00    -0.507 OA
ATOM     31  H   LIG    1       23.076 -31.298  13.723  0.00  0.00    +0.292 HD
ENDBRANCH   5  30
BRANCH   6  32
ATOM     32  O   LIG    1       24.059 -32.362  11.437  0.00  0.00    -0.373 OA
ATOM     33  H   LIG    1       23.768 -32.408  12.372  0.00  0.00    +0.211 HD
ENDBRANCH   6  32
BRANCH   9  34
ATOM     34  O   LIG    1       23.345 -33.822   7.786  0.00  0.00    -0.509 OA
ATOM     35  H   LIG    1       22.716 -34.500   8.127  0.00  0.00    +0.292 HD
ENDBRANCH   9  34
BRANCH  16  36
ATOM     36  O   LIG    1       23.427 -26.142  15.213  0.00  0.00    -0.506 OA
ATOM     37  H   LIG    1       22.916 -25.327  15.083  0.00  0.00    +0.292 HD
ENDBRANCH  16  36
BRANCH  20  38
ATOM     38  O   LIG    1       26.439 -29.472   9.232  0.00  0.00    -0.390 OA
ATOM     39  H   LIG    1       27.371 -29.487   9.511  0.00  0.00    +0.210 HD
ENDBRANCH  20  38
TORSDOF 7
ENDMDL
MODEL 4
REMARK VINA RESULT:      -5.2      3.734      7.197
REMARK  Name = *****
REMARK                            x       y       z     vdW  Elec       q    Type
REMARK                         _______ _______ _______ _____ _____    ______ ____
ROOT
ATOM      1  C   LIG    1       22.780 -33.193  10.105  0.00  0.00    +0.013 C 
ATOM      2  C   LIG    1       23.495 -32.258   9.456  0.00  0.00    -0.036 C 
ATOM      3  C   LIG    1       24.050 -30.960  10.048  0.00  0.00    +0.085 C 
ATOM      4  C   LIG    1       25.537 -30.865   9.805  0.00  0.00    +0.050 C 
ATOM      5  C   LIG    1       26.373 -30.264  10.672  0.00  0.00    +0.141 C 
ATOM      6  C   LIG    1       25.898 -29.620  11.944  0.00  0.00    +0.192 C 
ATOM      7  C   LIG    1       24.370 -29.417  12.088  0.00  0.00    +0.090 C 
ATOM      8  C   LIG    1       24.109 -28.989  13.584  0.00  0.00    +0.132 C 
ATOM      9  C   LIG    1       25.255 -28.110  14.183  0.00  0.00    +0.127 C 
ATOM     10  C   LIG    1       26.350 -27.686  13.509  0.00  0.00    +0.121 C 
ATOM     11  C   LIG    1       26.412 -28.178  12.106  0.00  0.00    +0.211 C 
ATOM     12  O   LIG    1       26.640 -27.427  11.162  0.00  0.00    -0.288 OA
ATOM     13  C   LIG    1       26.106 -31.532   8.590  0.00  0.00    +0.197 C 
ATOM     14  O   LIG    1       27.323 -31.635   8.457  0.00  0.00    -0.287 OA
ATOM     15  C   LIG    1       25.150 -32.083   7.598  0.00  0.00    +0.071 A 
ATOM     16  C   LIG    1       25.515 -32.262   6.255  0.00  0.00    +0.128 A 
ATOM     17  C   LIG    1       24.614 -32.814   5.345  0.00  0.00    +0.046 A 
ATOM     18  C   LIG    1       23.339 -33.180   5.771  0.00  0.00    +0.004 A 
ATOM     19  C   LIG    1       22.968 -33.003   7.105  0.00  0.00    +0.009 A 
ATOM     20  C   LIG    1       23.665 -30.683  11.551  0.00  0.00    +0.135 C 
ATOM     21  C   LIG    1       23.871 -32.464   8.037  0.00  0.00    -0.007 A 
ENDROOT
BRANCH  10  22
ATOM     22  C   LIG    1       27.421 -26.804  14.033  0.00  0.00    +0.248 C 
ATOM     23  O   LIG    1       28.037 -27.036  15.072  0.00  0.00    -0.270 OA
ATOM     24  N   LIG    1       27.672 -25.667  13.337  0.00  0.00    -0.325 N 
ATOM     25  H   LIG    1       27.217 -25.493  12.445  0.00  0.00    +0.145 HD
ATOM     26  H   LIG    1       28.409 -25.056  13.656  0.00  0.00    +0.145 HD
ENDBRANCH  10  22
BRANCH   8  27
ATOM     27  N   LIG    1       22.857 -28.287  13.987  0.00  0.00    -0.298 NA
ATOM     28  C   LIG    1       22.259 -27.441  12.952  0.00  0.00    +0.105 C 
ATOM     29  C   LIG    1       21.841 -29.120  14.617  0.00  0.00    +0.105 C 
ENDBRANCH   8  27
BRANCH   5  30
ATOM     30  O   LIG    1       27.757 -30.305  10.559  0.00  0.00    -0.507 OA
ATOM     31  H   LIG    1       28.122 -30.763  11.354  0.00  0.00    +0.292 HD
ENDBRANCH   5  30
BRANCH   6  32
ATOM     32  O   LIG    1       26.381 -30.494  12.971  0.00  0.00    -0.373 OA
ATOM     33  H   LIG    1       25.665 -30.528  13.641  0.00  0.00    +0.211 HD
ENDBRANCH   6  32
BRANCH   9  34
ATOM     34  O   LIG    1       25.014 -27.718  15.499  0.00  0.00    -0.509 OA
ATOM     35  H   LIG    1       25.006 -26.733  15.458  0.00  0.00    +0.292 HD
ENDBRANCH   9  34
BRANCH  16  36
ATOM     36  O   LIG    1       26.742 -31.866   5.806  0.00  0.00    -0.506 OA
ATOM     37  H   LIG    1       27.105 -32.527   5.196  0.00  0.00    +0.292 HD
ENDBRANCH  16  36
BRANCH  20  38
ATOM     38  O   LIG    1       22.247 -30.547  11.636  0.00  0.00    -0.390 OA
ATOM     39  H   LIG    1       21.916 -30.151  10.811  0.00  0.00    +0.210 HD
ENDBRANCH  20  38
TORSDOF 7
ENDMDL
MODEL 5
REMARK VINA RESULT:      -5.0      4.767      6.935
REMARK  Name = *****
REMARK                            x       y       z     vdW  Elec       q    Type
REMARK                         _______ _______ _______ _____ _____    ______ ____
ROOT
ATOM      1  C   LIG    1       27.389 -28.186  11.225  0.00  0.00    +0.013 C 
ATOM      2  C   LIG    1       26.221 -28.840  11.343  0.00  0.00    -0.036 C 
ATOM      3  C   LIG    1       25.413 -29.478  10.210  0.00  0.00    +0.085 C 
ATOM      4  C   LIG    1       25.138 -30.930  10.513  0.00  0.00    +0.050 C 
ATOM      5  C   LIG    1       25.052 -31.866   9.549  0.00  0.00    +0.141 C 
ATOM      6  C   LIG    1       25.205 -31.544   8.090  0.00  0.00    +0.192 C 
ATOM      7  C   LIG    1       25.179 -30.044   7.705  0.00  0.00    +0.090 C 
ATOM      8  C   LIG    1       25.624 -29.955   6.194  0.00  0.00    +0.132 C 
ATOM      9  C   LIG    1       25.148 -31.175   5.339  0.00  0.00    +0.127 C 
ATOM     10  C   LIG    1       24.381 -32.196   5.790  0.00  0.00    +0.121 C 
ATOM     11  C   LIG    1       24.049 -32.096   7.236  0.00  0.00    +0.211 C 
ATOM     12  O   LIG    1       22.902 -32.231   7.652  0.00  0.00    -0.288 OA
ATOM     13  C   LIG    1       25.031 -31.352  11.947  0.00  0.00    +0.197 C 
ATOM     14  O   LIG    1       24.992 -32.546  12.237  0.00  0.00    -0.287 OA
ATOM     15  C   LIG    1       25.011 -30.284  12.977  0.00  0.00    +0.071 A 
ATOM     16  C   LIG    1       24.433 -30.497  14.238  0.00  0.00    +0.128 A 
ATOM     17  C   LIG    1       24.455 -29.493  15.205  0.00  0.00    +0.046 A 
ATOM     18  C   LIG    1       25.049 -28.267  14.914  0.00  0.00    +0.004 A 
ATOM     19  C   LIG    1       25.625 -28.046  13.661  0.00  0.00    +0.009 A 
ATOM     20  C   LIG    1       25.995 -29.264   8.761  0.00  0.00    +0.135 C 
ATOM     21  C   LIG    1       25.624 -29.055  12.683  0.00  0.00    -0.007 A 
ENDROOT
BRANCH  10  22
ATOM     22  C   LIG    1       23.866 -33.332   4.988  0.00  0.00    +0.248 C 
ATOM     23  O   LIG    1       24.480 -33.821   4.041  0.00  0.00    -0.270 OA
ATOM     24  N   LIG    1       22.632 -33.795   5.306  0.00  0.00    -0.325 N 
ATOM     25  H   LIG    1       22.140 -33.444   6.123  0.00  0.00    +0.145 HD
ATOM     26  H   LIG    1       22.262 -34.581   4.793  0.00  0.00    +0.145 HD
ENDBRANCH  10  22
BRANCH   8  27
ATOM     27  N   LIG    1       25.300 -28.766   5.355  0.00  0.00    -0.298 NA
ATOM     28  C   LIG    1       24.027 -28.115   5.667  0.00  0.00    +0.105 C 
ATOM     29  C   LIG    1       26.363 -27.778   5.224  0.00  0.00    +0.105 C 
ENDBRANCH   8  27
BRANCH   5  30
ATOM     30  O   LIG    1       24.966 -33.228   9.806  0.00  0.00    -0.507 OA
ATOM     31  H   LIG    1       25.763 -33.669   9.427  0.00  0.00    +0.292 HD
ENDBRANCH   5  30
BRANCH   6  32
ATOM     32  O   LIG    1       26.469 -32.121   7.742  0.00  0.00    -0.373 OA
ATOM     33  H   LIG    1       26.257 -32.992   7.343  0.00  0.00    +0.211 HD
ENDBRANCH   6  32
BRANCH   9  34
ATOM     34  O   LIG    1       25.527 -31.085   4.000  0.00  0.00    -0.509 OA
ATOM     35  H   LIG    1       24.709 -31.324   3.503  0.00  0.00    +0.292 HD
ENDBRANCH   9  34
BRANCH  16  36
ATOM     36  O   LIG    1       23.803 -31.674  14.528  0.00  0.00    -0.506 OA
ATOM     37  H   LIG    1       23.012 -31.776  13.976  0.00  0.00    +0.292 HD
ENDBRANCH  16  36
BRANCH  20  38
ATOM     38  O   LIG    1       25.989 -27.866   8.473  0.00  0.00    -0.390 OA
ATOM     39  H   LIG    1       25.638 -27.386   9.243  0.00  0.00    +0.210 HD
ENDBRANCH  20  38
TORSDOF 7
ENDMDL
MODEL 6
REMARK VINA RESULT:      -4.8      2.754      7.034
REMARK  Name = *****
REMARK                            x       y       z     vdW  Elec       q    Type
REMARK                         _______ _______ _______ _____ _____    ______ ____
ROOT
ATOM      1  C   LIG    1       21.447 -31.261  15.382  0.00  0.00    +0.013 C 
ATOM      2  C   LIG    1       20.971 -30.776  14.222  0.00  0.00    -0.036 C 
ATOM      3  C   LIG    1       21.782 -30.465  12.961  0.00  0.00    +0.085 C 
ATOM      4  C   LIG    1       21.201 -31.188  11.771  0.00  0.00    +0.050 C 
ATOM      5  C   LIG    1       21.963 -31.636  10.755  0.00  0.00    +0.141 C 
ATOM      6  C   LIG    1       23.452 -31.441  10.711  0.00  0.00    +0.192 C 
ATOM      7  C   LIG    1       24.052 -30.449  11.737  0.00  0.00    +0.090 C 
ATOM      8  C   LIG    1       25.618 -30.623  11.674  0.00  0.00    +0.132 C 
ATOM      9  C   LIG    1       26.144 -30.956  10.240  0.00  0.00    +0.127 C 
ATOM     10  C   LIG    1       25.380 -31.038   9.125  0.00  0.00    +0.121 C 
ATOM     11  C   LIG    1       23.930 -30.828   9.382  0.00  0.00    +0.211 C 
ATOM     12  O   LIG    1       23.254 -30.057   8.708  0.00  0.00    -0.288 OA
ATOM     13  C   LIG    1       19.731 -31.479  11.760  0.00  0.00    +0.197 C 
ATOM     14  O   LIG    1       19.256 -32.221  10.903  0.00  0.00    -0.287 OA
ATOM     15  C   LIG    1       18.904 -30.871  12.831  0.00  0.00    +0.071 A 
ATOM     16  C   LIG    1       17.528 -30.653  12.655  0.00  0.00    +0.128 A 
ATOM     17  C   LIG    1       16.760 -30.113  13.686  0.00  0.00    +0.046 A 
ATOM     18  C   LIG    1       17.365 -29.781  14.896  0.00  0.00    +0.004 A 
ATOM     19  C   LIG    1       18.733 -29.993  15.079  0.00  0.00    +0.009 A 
ATOM     20  C   LIG    1       23.339 -30.672  13.091  0.00  0.00    +0.135 C 
ATOM     21  C   LIG    1       19.516 -30.551  14.054  0.00  0.00    -0.007 A 
ENDROOT
BRANCH  10  22
ATOM     22  C   LIG    1       25.859 -31.292   7.745  0.00  0.00    +0.248 C 
ATOM     23  O   LIG    1       26.817 -32.019   7.488  0.00  0.00    -0.270 OA
ATOM     24  N   LIG    1       25.221 -30.633   6.745  0.00  0.00    -0.325 N 
ATOM     25  H   LIG    1       24.391 -30.080   6.935  0.00  0.00    +0.145 HD
ATOM     26  H   LIG    1       25.510 -30.801   5.793  0.00  0.00    +0.145 HD
ENDBRANCH  10  22
BRANCH   8  27
ATOM     27  N   LIG    1       26.541 -29.561  12.169  0.00  0.00    -0.298 NA
ATOM     28  C   LIG    1       26.024 -28.196  12.072  0.00  0.00    +0.105 C 
ATOM     29  C   LIG    1       27.125 -29.796  13.484  0.00  0.00    +0.105 C 
ENDBRANCH   8  27
BRANCH   5  30
ATOM     30  O   LIG    1       21.482 -32.444   9.733  0.00  0.00    -0.507 OA
ATOM     31  H   LIG    1       20.514 -32.278   9.632  0.00  0.00    +0.292 HD
ENDBRANCH   5  30
BRANCH   6  32
ATOM     32  O   LIG    1       23.976 -32.757  10.929  0.00  0.00    -0.373 OA
ATOM     33  H   LIG    1       23.227 -33.367  10.760  0.00  0.00    +0.211 HD
ENDBRANCH   6  32
BRANCH   9  34
ATOM     34  O   LIG    1       27.531 -31.091  10.183  0.00  0.00    -0.509 OA
ATOM     35  H   LIG    1       27.832 -30.847  11.090  0.00  0.00    +0.292 HD
ENDBRANCH   9  34
BRANCH  16  36
ATOM     36  O   LIG    1       16.925 -30.927  11.461  0.00  0.00    -0.506 OA
ATOM     37  H   LIG    1       16.582 -30.111  11.063  0.00  0.00    +0.292 HD
ENDBRANCH  16  36
BRANCH  20  38
ATOM     38  O   LIG    1       23.834 -29.767  14.078  0.00  0.00    -0.390 OA
ATOM     39  H   LIG    1       23.357 -29.916  14.913  0.00  0.00    +0.210 HD
ENDBRANCH  20  38
TORSDOF 7
ENDMDL
MODEL 7
REMARK VINA RESULT:      -4.8      2.162      4.312
REMARK  Name = *****
REMARK                            x       y       z     vdW  Elec       q    Type
REMARK                         _______ _______ _______ _____ _____    ______ ____
ROOT
ATOM      1  C   LIG    1       24.367 -32.187  12.815  0.00  0.00    +0.013 C 
ATOM      2  C   LIG    1       24.182 -30.915  12.422  0.00  0.00    -0.036 C 
ATOM      3  C   LIG    1       22.874 -30.122  12.485  0.00  0.00    +0.085 C 
ATOM      4  C   LIG    1       23.078 -28.830  13.239  0.00  0.00    +0.050 C 
ATOM      5  C   LIG    1       22.109 -28.270  13.987  0.00  0.00    +0.141 C 
ATOM      6  C   LIG    1       20.739 -28.871  14.121  0.00  0.00    +0.192 C 
ATOM      7  C   LIG    1       20.382 -30.010  13.135  0.00  0.00    +0.090 C 
ATOM      8  C   LIG    1       19.030 -30.645  13.645  0.00  0.00    +0.132 C 
ATOM      9  C   LIG    1       18.065 -29.600  14.294  0.00  0.00    +0.127 C 
ATOM     10  C   LIG    1       18.296 -28.268  14.381  0.00  0.00    +0.121 C 
ATOM     11  C   LIG    1       19.616 -27.858  13.832  0.00  0.00    +0.211 C 
ATOM     12  O   LIG    1       19.732 -26.922  13.046  0.00  0.00    -0.288 OA
ATOM     13  C   LIG    1       24.434 -28.193  13.210  0.00  0.00    +0.197 C 
ATOM     14  O   LIG    1       24.687 -27.249  13.955  0.00  0.00    -0.287 OA
ATOM     15  C   LIG    1       25.442 -28.768  12.286  0.00  0.00    +0.071 A 
ATOM     16  C   LIG    1       26.517 -28.000  11.810  0.00  0.00    +0.128 A 
ATOM     17  C   LIG    1       27.474 -28.567  10.970  0.00  0.00    +0.046 A 
ATOM     18  C   LIG    1       27.358 -29.904  10.594  0.00  0.00    +0.004 A 
ATOM     19  C   LIG    1       26.291 -30.674  11.061  0.00  0.00    +0.009 A 
ATOM     20  C   LIG    1       21.619 -30.927  12.994  0.00  0.00    +0.135 C 
ATOM     21  C   LIG    1       25.328 -30.119  11.921  0.00  0.00    -0.007 A 
ENDROOT
BRANCH  10  22
ATOM     22  C   LIG    1       17.375 -27.248  14.936  0.00  0.00    +0.248 C 
ATOM     23  O   LIG    1       16.318 -27.530  15.499  0.00  0.00    -0.270 OA
ATOM     24  N   LIG    1       17.717 -25.949  14.750  0.00  0.00    -0.325 N 
ATOM     25  H   LIG    1       18.615 -25.701  14.344  0.00  0.00    +0.145 HD
ATOM     26  H   LIG    1       17.121 -25.231  15.135  0.00  0.00    +0.145 HD
ENDBRANCH  10  22
BRANCH   8  27
ATOM     27  N   LIG    1       18.155 -31.444  12.741  0.00  0.00    -0.298 NA
ATOM     28  C   LIG    1       18.312 -31.159  11.314  0.00  0.00    +0.105 C 
ATOM     29  C   LIG    1       18.148 -32.882  12.978  0.00  0.00    +0.105 C 
ENDBRANCH   8  27
BRANCH   5  30
ATOM     30  O   LIG    1       22.316 -27.179  14.820  0.00  0.00    -0.507 OA
ATOM     31  H   LIG    1       21.548 -26.565  14.727  0.00  0.00    +0.292 HD
ENDBRANCH   5  30
BRANCH   6  32
ATOM     32  O   LIG    1       20.707 -29.355  15.469  0.00  0.00    -0.373 OA
ATOM     33  H   LIG    1       19.785 -29.655  15.617  0.00  0.00    +0.211 HD
ENDBRANCH   6  32
BRANCH   9  34
ATOM     34  O   LIG    1       16.864 -30.160  14.728  0.00  0.00    -0.509 OA
ATOM     35  H   LIG    1       17.033 -31.131  14.710  0.00  0.00    +0.292 HD
ENDBRANCH   9  34
BRANCH  16  36
ATOM     36  O   LIG    1       26.624 -26.676  12.127  0.00  0.00    -0.506 OA
ATOM     37  H   LIG    1       25.917 -26.420  12.741  0.00  0.00    +0.292 HD
ENDBRANCH  16  36
BRANCH  20  38
ATOM     38  O   LIG    1       21.360 -31.989  12.077  0.00  0.00    -0.390 OA
ATOM     39  H   LIG    1       21.361 -32.833  12.560  0.00  0.00    +0.210 HD
ENDBRANCH  20  38
TORSDOF 7
ENDMDL
MODEL 8
REMARK VINA RESULT:      -4.8      4.060      7.164
REMARK  Name = *****
REMARK                            x       y       z     vdW  Elec       q    Type
REMARK                         _______ _______ _______ _____ _____    ______ ____
ROOT
ATOM      1  C   LIG    1       22.208 -33.533   8.648  0.00  0.00    +0.013 C 
ATOM      2  C   LIG    1       23.127 -32.693   8.140  0.00  0.00    -0.036 C 
ATOM      3  C   LIG    1       23.714 -31.458   8.829  0.00  0.00    +0.085 C 
ATOM      4  C   LIG    1       25.221 -31.535   8.851  0.00  0.00    +0.050 C 
ATOM      5  C   LIG    1       25.956 -31.020   9.854  0.00  0.00    +0.141 C 
ATOM      6  C   LIG    1       25.342 -30.310  11.027  0.00  0.00    +0.192 C 
ATOM      7  C   LIG    1       23.845 -29.934  10.904  0.00  0.00    +0.090 C 
ATOM      8  C   LIG    1       23.377 -29.459  12.334  0.00  0.00    +0.132 C 
ATOM      9  C   LIG    1       24.494 -28.707  13.129  0.00  0.00    +0.127 C 
ATOM     10  C   LIG    1       25.731 -28.418  12.660  0.00  0.00    +0.121 C 
ATOM     11  C   LIG    1       25.980 -28.934  11.287  0.00  0.00    +0.211 C 
ATOM     12  O   LIG    1       26.453 -28.226  10.402  0.00  0.00    -0.288 OA
ATOM     13  C   LIG    1       25.914 -32.279   7.750  0.00  0.00    +0.197 C 
ATOM     14  O   LIG    1       27.116 -32.520   7.831  0.00  0.00    -0.287 OA
ATOM     15  C   LIG    1       25.089 -32.731   6.602  0.00  0.00    +0.071 A 
ATOM     16  C   LIG    1       25.661 -32.969   5.342  0.00  0.00    +0.128 A 
ATOM     17  C   LIG    1       24.876 -33.427   4.285  0.00  0.00    +0.046 A 
ATOM     18  C   LIG    1       23.513 -33.642   4.479  0.00  0.00    +0.004 A 
ATOM     19  C   LIG    1       22.937 -33.406   5.729  0.00  0.00    +0.009 A 
ATOM     20  C   LIG    1       23.106 -31.120  10.243  0.00  0.00    +0.135 C 
ATOM     21  C   LIG    1       23.719 -32.960   6.807  0.00  0.00    -0.007 A 
ENDROOT
BRANCH  10  22
ATOM     22  C   LIG    1       26.787 -27.656  13.369  0.00  0.00    +0.248 C 
ATOM     23  O   LIG    1       27.154 -27.920  14.513  0.00  0.00    -0.270 OA
ATOM     24  N   LIG    1       27.314 -26.590  12.717  0.00  0.00    -0.325 N 
ATOM     25  H   LIG    1       27.066 -26.398  11.750  0.00  0.00    +0.145 HD
ATOM     26  H   LIG    1       28.049 -26.063  13.164  0.00  0.00    +0.145 HD
ENDBRANCH  10  22
BRANCH   8  27
ATOM     27  N   LIG    1       22.162 -28.615  12.515  0.00  0.00    -0.298 NA
ATOM     28  C   LIG    1       21.095 -29.226  13.310  0.00  0.00    +0.105 C 
ATOM     29  C   LIG    1       22.404 -27.245  12.950  0.00  0.00    +0.105 C 
ENDBRANCH   8  27
BRANCH   5  30
ATOM     30  O   LIG    1       27.324 -31.219   9.985  0.00  0.00    -0.507 OA
ATOM     31  H   LIG    1       27.476 -31.891  10.693  0.00  0.00    +0.292 HD
ENDBRANCH   5  30
BRANCH   6  32
ATOM     32  O   LIG    1       25.535 -31.219  12.118  0.00  0.00    -0.373 OA
ATOM     33  H   LIG    1       24.634 -31.479  12.403  0.00  0.00    +0.211 HD
ENDBRANCH   6  32
BRANCH   9  34
ATOM     34  O   LIG    1       24.072 -28.273  14.386  0.00  0.00    -0.509 OA
ATOM     35  H   LIG    1       23.742 -29.092  14.824  0.00  0.00    +0.292 HD
ENDBRANCH   9  34
BRANCH  16  36
ATOM     36  O   LIG    1       26.984 -32.719   5.117  0.00  0.00    -0.506 OA
ATOM     37  H   LIG    1       27.185 -31.788   5.301  0.00  0.00    +0.292 HD
ENDBRANCH  16  36
BRANCH  20  38
ATOM     38  O   LIG    1       21.719 -30.824  10.080  0.00  0.00    -0.390 OA
ATOM     39  H   LIG    1       21.561 -29.898  10.336  0.00  0.00    +0.210 HD
ENDBRANCH  20  38
TORSDOF 7
ENDMDL
MODEL 9
REMARK VINA RESULT:      -4.5      2.751      6.729
REMARK  Name = *****
REMARK                            x       y       z     vdW  Elec       q    Type
REMARK                         _______ _______ _______ _____ _____    ______ ____
ROOT
ATOM      1  C   LIG    1       22.347 -27.780  15.444  0.00  0.00    +0.013 C 
ATOM      2  C   LIG    1       21.582 -28.094  14.384  0.00  0.00    -0.036 C 
ATOM      3  C   LIG    1       22.063 -28.676  13.052  0.00  0.00    +0.085 C 
ATOM      4  C   LIG    1       21.316 -29.948  12.734  0.00  0.00    +0.050 C 
ATOM      5  C   LIG    1       21.882 -30.970  12.065  0.00  0.00    +0.141 C 
ATOM      6  C   LIG    1       23.297 -30.926  11.562  0.00  0.00    +0.192 C 
ATOM      7  C   LIG    1       23.998 -29.545  11.586  0.00  0.00    +0.090 C 
ATOM      8  C   LIG    1       25.523 -29.806  11.278  0.00  0.00    +0.132 C 
ATOM      9  C   LIG    1       25.757 -30.984  10.276  0.00  0.00    +0.127 C 
ATOM     10  C   LIG    1       24.781 -31.698   9.666  0.00  0.00    +0.121 C 
ATOM     11  C   LIG    1       23.408 -31.295  10.072  0.00  0.00    +0.211 C 
ATOM     12  O   LIG    1       22.525 -31.073   9.249  0.00  0.00    -0.288 OA
ATOM     13  C   LIG    1       19.918 -30.102  13.250  0.00  0.00    +0.197 C 
ATOM     14  O   LIG    1       19.348 -31.188  13.170  0.00  0.00    -0.287 OA
ATOM     15  C   LIG    1       19.284 -28.918  13.879  0.00  0.00    +0.071 A 
ATOM     16  C   LIG    1       17.888 -28.781  13.935  0.00  0.00    +0.128 A 
ATOM     17  C   LIG    1       17.310 -27.677  14.562  0.00  0.00    +0.046 A 
ATOM     18  C   LIG    1       18.125 -26.700  15.128  0.00  0.00    +0.004 A 
ATOM     19  C   LIG    1       19.514 -26.827  15.075  0.00  0.00    +0.009 A 
ATOM     20  C   LIG    1       23.624 -28.842  12.911  0.00  0.00    +0.135 C 
ATOM     21  C   LIG    1       20.110 -27.942  14.461  0.00  0.00    -0.007 A 
ENDROOT
BRANCH  10  22
ATOM     22  C   LIG    1       24.973 -32.779   8.669  0.00  0.00    +0.248 C 
ATOM     23  O   LIG    1       25.927 -32.818   7.894  0.00  0.00    -0.270 OA
ATOM     24  N   LIG    1       24.003 -33.724   8.597  0.00  0.00    -0.325 N 
ATOM     25  H   LIG    1       23.242 -33.739   9.271  0.00  0.00    +0.145 HD
ATOM     26  H   LIG    1       24.114 -34.483   7.943  0.00  0.00    +0.145 HD
ENDBRANCH  10  22
BRANCH   8  27
ATOM     27  N   LIG    1       26.415 -28.718  10.783  0.00  0.00    -0.298 NA
ATOM     28  C   LIG    1       27.753 -28.696  11.375  0.00  0.00    +0.105 C 
ATOM     29  C   LIG    1       26.492 -28.575   9.335  0.00  0.00    +0.105 C 
ENDBRANCH   8  27
BRANCH   5  30
ATOM     30  O   LIG    1       21.278 -32.210  11.903  0.00  0.00    -0.507 OA
ATOM     31  H   LIG    1       21.033 -32.316  10.952  0.00  0.00    +0.292 HD
ENDBRANCH   5  30
BRANCH   6  32
ATOM     32  O   LIG    1       23.990 -31.849  12.410  0.00  0.00    -0.373 OA
ATOM     33  H   LIG    1       24.931 -31.795  12.138  0.00  0.00    +0.211 HD
ENDBRANCH   6  32
BRANCH   9  34
ATOM     34  O   LIG    1       27.105 -31.200   9.991  0.00  0.00    -0.509 OA
ATOM     35  H   LIG    1       27.182 -32.181   9.934  0.00  0.00    +0.292 HD
ENDBRANCH   9  34
BRANCH  16  36
ATOM     36  O   LIG    1       17.071 -29.703  13.345  0.00  0.00    -0.506 OA
ATOM     37  H   LIG    1       16.738 -30.329  14.008  0.00  0.00    +0.292 HD
ENDBRANCH  16  36
BRANCH  20  38
ATOM     38  O   LIG    1       24.224 -27.549  12.984  0.00  0.00    -0.390 OA
ATOM     39  H   LIG    1       25.079 -27.621  13.444  0.00  0.00    +0.210 HD
ENDBRANCH  20  38
TORSDOF 7
ENDMDL
