MODEL 1
REMARK VINA RESULT:      -8.0      0.000      0.000
REMARK  Name = *****
REMARK                            x       y       z     vdW  Elec       q    Type
REMARK                         _______ _______ _______ _____ _____    ______ ____
ROOT
ATOM      1  C   LIG    1       25.640 -21.624   6.152  0.00  0.00    +0.076 C 
ENDROOT
BRANCH   1   2
ATOM      2  N   LIG    1       24.799 -20.904   5.048  0.00  0.00    -0.278 NA
BRANCH   2   3
ATOM      3  C   LIG    1       25.532 -20.202   3.926  0.00  0.00    +0.206 C 
BRANCH   3   4
ATOM      4  C   LIG    1       25.110 -18.727   3.636  0.00  0.00    +0.319 C 
ATOM      5  O   LIG    1       24.051 -18.204   3.666  0.00  0.00    -0.250 OA
BRANCH   4   6
ATOM      6  O   LIG    1       26.117 -17.982   3.126  0.00  0.00    -0.480 OA
ATOM      7  H   LIG    1       26.294 -17.475   3.968  0.00  0.00    +0.295 HD
ENDBRANCH   4   6
ENDBRANCH   3   4
ENDBRANCH   2   3
BRANCH   2   8
ATOM      8  C   LIG    1       23.532 -21.514   4.576  0.00  0.00    +0.206 C 
BRANCH   8   9
ATOM      9  C   LIG    1       22.225 -20.812   4.964  0.00  0.00    +0.319 C 
ATOM     10  O   LIG    1       21.129 -21.089   4.633  0.00  0.00    -0.250 OA
BRANCH   9  11
ATOM     11  O   LIG    1       22.441 -19.679   5.669  0.00  0.00    -0.480 OA
ATOM     12  H   LIG    1       23.129 -20.003   6.290  0.00  0.00    +0.295 HD
ENDBRANCH   9  11
ENDBRANCH   8   9
ENDBRANCH   2   8
ENDBRANCH   1   2
BRANCH   1  13
ATOM     13  C   LIG    1       26.402 -20.587   7.185  0.00  0.00    +0.104 C 
BRANCH  13  14
ATOM     14  N   LIG    1       27.754 -19.891   7.067  0.00  0.00    -0.290 NA
BRANCH  14  15
ATOM     15  C   LIG    1       28.661 -20.365   8.134  0.00  0.00    +0.100 C 
BRANCH  15  16
ATOM     16  C   LIG    1       29.341 -19.171   8.894  0.00  0.00    +0.101 C 
BRANCH  16  17
ATOM     17  N   LIG    1       30.626 -19.418   9.495  0.00  0.00    -0.281 NA
BRANCH  17  18
ATOM     18  C   LIG    1       31.397 -20.409   8.685  0.00  0.00    +0.206 C 
BRANCH  18  19
ATOM     19  C   LIG    1       31.487 -21.855   9.228  0.00  0.00    +0.319 C 
ATOM     20  O   LIG    1       32.143 -22.751   8.697  0.00  0.00    -0.250 OA
BRANCH  19  21
ATOM     21  O   LIG    1       30.777 -22.181  10.318  0.00  0.00    -0.480 OA
ATOM     22  H   LIG    1       31.361 -22.790  10.821  0.00  0.00    +0.295 HD
ENDBRANCH  19  21
ENDBRANCH  18  19
ENDBRANCH  17  18
BRANCH  17  23
ATOM     23  C   LIG    1       31.280 -18.102   9.611  0.00  0.00    +0.206 C 
BRANCH  23  24
ATOM     24  C   LIG    1       30.911 -17.304  10.865  0.00  0.00    +0.319 C 
ATOM     25  O   LIG    1       30.130 -16.397  10.991  0.00  0.00    -0.250 OA
BRANCH  24  26
ATOM     26  O   LIG    1       31.501 -17.823  11.963  0.00  0.00    -0.480 OA
ATOM     27  H   LIG    1       31.019 -17.365  12.681  0.00  0.00    +0.295 HD
ENDBRANCH  24  26
ENDBRANCH  23  24
ENDBRANCH  17  23
ENDBRANCH  16  17
ENDBRANCH  15  16
ENDBRANCH  14  15
BRANCH  14  28
ATOM     28  C   LIG    1       28.633 -19.967   5.880  0.00  0.00    +0.205 C 
BRANCH  28  29
ATOM     29  C   LIG    1       29.306 -18.589   5.455  0.00  0.00    +0.319 C 
ATOM     30  O   LIG    1       30.372 -18.191   5.915  0.00  0.00    -0.250 OA
BRANCH  29  31
ATOM     31  O   LIG    1       28.678 -17.808   4.543  0.00  0.00    -0.480 OA
ATOM     32  H   LIG    1       28.681 -18.066   3.599  0.00  0.00    +0.295 HD
ENDBRANCH  29  31
ENDBRANCH  28  29
ENDBRANCH  14  28
ENDBRANCH  13  14
ENDBRANCH   1  13
BRANCH   1  33
ATOM     33  C   LIG    1       24.763 -22.765   6.781  0.00  0.00    +0.055 C 
BRANCH  33  37
ATOM     34  C   LIG    1       25.350 -26.991   5.787  0.00  0.00    +0.120 A 
ATOM     35  C   LIG    1       24.063 -26.462   5.910  0.00  0.00    +0.046 A 
ATOM     36  C   LIG    1       23.812 -25.114   6.262  0.00  0.00    +0.007 A 
ATOM     37  C   LIG    1       24.845 -24.259   6.569  0.00  0.00    -0.046 A 
ATOM     38  C   LIG    1       26.021 -24.900   6.775  0.00  0.00    +0.007 A 
ATOM     39  C   LIG    1       26.367 -26.157   6.202  0.00  0.00    +0.046 A 
BRANCH  34  40
ATOM     40  O   LIG    1       25.650 -28.259   5.316  0.00  0.00    -0.492 OA
BRANCH  40  42
ATOM     41  C   LIG    1       25.288 -30.744   5.569  0.00  0.00    +0.048 C 
ATOM     42  C   LIG    1       25.124 -29.331   6.130  0.00  0.00    +0.226 C 
ENDBRANCH  40  42
ENDBRANCH  34  40
ENDBRANCH  33  37
ENDBRANCH   1  33
TORSDOF 25
ENDMDL
MODEL 2
REMARK VINA RESULT:      -7.7      0.746      2.069
REMARK  Name = *****
REMARK                            x       y       z     vdW  Elec       q    Type
REMARK                         _______ _______ _______ _____ _____    ______ ____
ROOT
ATOM      1  C   LIG    1       25.655 -21.929   6.229  0.00  0.00    +0.076 C 
ENDROOT
BRANCH   1   2
ATOM      2  N   LIG    1       24.426 -21.498   5.364  0.00  0.00    -0.278 NA
BRANCH   2   3
ATOM      3  C   LIG    1       23.300 -20.742   6.035  0.00  0.00    +0.206 C 
BRANCH   3   4
ATOM      4  C   LIG    1       22.028 -20.481   5.170  0.00  0.00    +0.319 C 
ATOM      5  O   LIG    1       21.259 -21.231   4.676  0.00  0.00    -0.250 OA
BRANCH   4   6
ATOM      6  O   LIG    1       21.888 -19.183   4.818  0.00  0.00    -0.480 OA
ATOM      7  H   LIG    1       20.957 -19.091   5.167  0.00  0.00    +0.295 HD
ENDBRANCH   4   6
ENDBRANCH   3   4
ENDBRANCH   2   3
BRANCH   2   8
ATOM      8  C   LIG    1       24.637 -21.041   3.968  0.00  0.00    +0.206 C 
BRANCH   8   9
ATOM      9  C   LIG    1       24.999 -19.566   3.757  0.00  0.00    +0.319 C 
ATOM     10  O   LIG    1       24.318 -18.709   3.321  0.00  0.00    -0.250 OA
BRANCH   9  11
ATOM     11  O   LIG    1       26.304 -19.317   4.006  0.00  0.00    -0.480 OA
ATOM     12  H   LIG    1       26.625 -19.203   3.085  0.00  0.00    +0.295 HD
ENDBRANCH   9  11
ENDBRANCH   8   9
ENDBRANCH   2   8
ENDBRANCH   1   2
BRANCH   1  13
ATOM     13  C   LIG    1       26.283 -20.705   7.140  0.00  0.00    +0.104 C 
BRANCH  13  14
ATOM     14  N   LIG    1       27.622 -19.982   7.037  0.00  0.00    -0.290 NA
BRANCH  14  15
ATOM     15  C   LIG    1       28.511 -20.406   8.139  0.00  0.00    +0.100 C 
BRANCH  15  16
ATOM     16  C   LIG    1       29.159 -19.176   8.870  0.00  0.00    +0.101 C 
BRANCH  16  17
ATOM     17  N   LIG    1       30.509 -19.328   9.348  0.00  0.00    -0.281 NA
BRANCH  17  18
ATOM     18  C   LIG    1       31.230 -20.364   8.548  0.00  0.00    +0.206 C 
BRANCH  18  19
ATOM     19  C   LIG    1       31.386 -21.768   9.179  0.00  0.00    +0.319 C 
ATOM     20  O   LIG    1       30.883 -22.100  10.252  0.00  0.00    -0.250 OA
BRANCH  19  21
ATOM     21  O   LIG    1       32.149 -22.676   8.553  0.00  0.00    -0.480 OA
ATOM     22  H   LIG    1       32.760 -23.007   9.248  0.00  0.00    +0.295 HD
ENDBRANCH  19  21
ENDBRANCH  18  19
ENDBRANCH  17  18
BRANCH  17  23
ATOM     23  C   LIG    1       31.117 -17.988   9.280  0.00  0.00    +0.206 C 
BRANCH  23  24
ATOM     24  C   LIG    1       31.165 -17.229  10.609  0.00  0.00    +0.319 C 
ATOM     25  O   LIG    1       30.315 -16.562  11.139  0.00  0.00    -0.250 OA
BRANCH  24  26
ATOM     26  O   LIG    1       32.313 -17.484  11.274  0.00  0.00    -0.480 OA
ATOM     27  H   LIG    1       32.586 -16.585  11.548  0.00  0.00    +0.295 HD
ENDBRANCH  24  26
ENDBRANCH  23  24
ENDBRANCH  17  23
ENDBRANCH  16  17
ENDBRANCH  15  16
ENDBRANCH  14  15
BRANCH  14  28
ATOM     28  C   LIG    1       28.533 -20.071   5.874  0.00  0.00    +0.205 C 
BRANCH  28  29
ATOM     29  C   LIG    1       29.204 -18.696   5.442  0.00  0.00    +0.319 C 
ATOM     30  O   LIG    1       30.276 -18.300   5.887  0.00  0.00    -0.250 OA
BRANCH  29  31
ATOM     31  O   LIG    1       28.565 -17.913   4.538  0.00  0.00    -0.480 OA
ATOM     32  H   LIG    1       28.480 -18.213   3.611  0.00  0.00    +0.295 HD
ENDBRANCH  29  31
ENDBRANCH  28  29
ENDBRANCH  14  28
ENDBRANCH  13  14
ENDBRANCH   1  13
BRANCH   1  33
ATOM     33  C   LIG    1       25.303 -23.274   6.960  0.00  0.00    +0.055 C 
BRANCH  33  37
ATOM     34  C   LIG    1       25.232 -27.515   5.862  0.00  0.00    +0.120 A 
ATOM     35  C   LIG    1       26.438 -26.811   5.903  0.00  0.00    +0.046 A 
ATOM     36  C   LIG    1       26.519 -25.433   6.216  0.00  0.00    +0.007 A 
ATOM     37  C   LIG    1       25.382 -24.691   6.440  0.00  0.00    -0.046 A 
ATOM     38  C   LIG    1       24.250 -25.324   6.050  0.00  0.00    +0.007 A 
ATOM     39  C   LIG    1       24.098 -26.738   5.980  0.00  0.00    +0.046 A 
BRANCH  34  40
ATOM     40  O   LIG    1       25.114 -28.884   5.695  0.00  0.00    -0.492 OA
BRANCH  40  42
ATOM     41  C   LIG    1       24.502 -29.759   7.981  0.00  0.00    +0.048 C 
ATOM     42  C   LIG    1       24.106 -29.498   6.529  0.00  0.00    +0.226 C 
ENDBRANCH  40  42
ENDBRANCH  34  40
ENDBRANCH  33  37
ENDBRANCH   1  33
TORSDOF 25
ENDMDL
MODEL 3
REMARK VINA RESULT:      -7.5      1.737      2.496
REMARK  Name = *****
REMARK                            x       y       z     vdW  Elec       q    Type
REMARK                         _______ _______ _______ _____ _____    ______ ____
ROOT
ATOM      1  C   LIG    1       25.276 -20.857   4.950  0.00  0.00    +0.076 C 
ENDROOT
BRANCH   1   2
ATOM      2  N   LIG    1       24.421 -19.608   4.560  0.00  0.00    -0.278 NA
BRANCH   2   3
ATOM      3  C   LIG    1       24.760 -18.871   3.282  0.00  0.00    +0.206 C 
BRANCH   3   4
ATOM      4  C   LIG    1       25.727 -17.654   3.419  0.00  0.00    +0.319 C 
ATOM      5  O   LIG    1       25.602 -16.524   3.093  0.00  0.00    -0.250 OA
BRANCH   4   6
ATOM      6  O   LIG    1       26.960 -18.007   3.848  0.00  0.00    -0.480 OA
ATOM      7  H   LIG    1       26.911 -18.946   3.509  0.00  0.00    +0.295 HD
ENDBRANCH   4   6
ENDBRANCH   3   4
ENDBRANCH   2   3
BRANCH   2   8
ATOM      8  C   LIG    1       22.959 -19.610   4.818  0.00  0.00    +0.206 C 
BRANCH   8   9
ATOM      9  C   LIG    1       22.178 -18.342   4.454  0.00  0.00    +0.319 C 
ATOM     10  O   LIG    1       22.339 -17.249   4.864  0.00  0.00    -0.250 OA
BRANCH   9  11
ATOM     11  O   LIG    1       21.116 -18.604   3.660  0.00  0.00    -0.480 OA
ATOM     12  H   LIG    1       20.390 -18.374   4.279  0.00  0.00    +0.295 HD
ENDBRANCH   9  11
ENDBRANCH   8   9
ENDBRANCH   2   8
ENDBRANCH   1   2
BRANCH   1  13
ATOM     13  C   LIG    1       26.527 -20.508   5.967  0.00  0.00    +0.104 C 
BRANCH  13  14
ATOM     14  N   LIG    1       27.462 -21.435   6.738  0.00  0.00    -0.290 NA
BRANCH  14  15
ATOM     15  C   LIG    1       28.829 -20.873   6.757  0.00  0.00    +0.100 C 
BRANCH  15  16
ATOM     16  C   LIG    1       28.911 -19.571   7.632  0.00  0.00    +0.101 C 
BRANCH  16  17
ATOM     17  N   LIG    1       29.851 -19.567   8.722  0.00  0.00    -0.281 NA
BRANCH  17  18
ATOM     18  C   LIG    1       31.066 -20.359   8.364  0.00  0.00    +0.206 C 
BRANCH  18  19
ATOM     19  C   LIG    1       31.291 -21.695   9.111  0.00  0.00    +0.319 C 
ATOM     20  O   LIG    1       30.754 -21.983  10.182  0.00  0.00    -0.250 OA
BRANCH  19  21
ATOM     21  O   LIG    1       32.153 -22.585   8.600  0.00  0.00    -0.480 OA
ATOM     22  H   LIG    1       32.940 -22.053   8.351  0.00  0.00    +0.295 HD
ENDBRANCH  19  21
ENDBRANCH  18  19
ENDBRANCH  17  18
BRANCH  17  23
ATOM     23  C   LIG    1       30.126 -18.149   9.016  0.00  0.00    +0.206 C 
BRANCH  23  24
ATOM     24  C   LIG    1       30.352 -17.826  10.496  0.00  0.00    +0.319 C 
ATOM     25  O   LIG    1       30.746 -18.539  11.382  0.00  0.00    -0.250 OA
BRANCH  24  26
ATOM     26  O   LIG    1       30.169 -16.511  10.740  0.00  0.00    -0.480 OA
ATOM     27  H   LIG    1       29.283 -16.508  11.155  0.00  0.00    +0.295 HD
ENDBRANCH  24  26
ENDBRANCH  23  24
ENDBRANCH  17  23
ENDBRANCH  16  17
ENDBRANCH  15  16
ENDBRANCH  14  15
BRANCH  14  28
ATOM     28  C   LIG    1       27.281 -21.815   8.156  0.00  0.00    +0.205 C 
BRANCH  28  29
ATOM     29  C   LIG    1       26.005 -21.180   8.862  0.00  0.00    +0.319 C 
ATOM     30  O   LIG    1       26.058 -20.188   9.582  0.00  0.00    -0.250 OA
BRANCH  29  31
ATOM     31  O   LIG    1       24.794 -21.757   8.666  0.00  0.00    -0.480 OA
ATOM     32  H   LIG    1       23.980 -21.227   8.786  0.00  0.00    +0.295 HD
ENDBRANCH  29  31
ENDBRANCH  28  29
ENDBRANCH  14  28
ENDBRANCH  13  14
ENDBRANCH   1  13
BRANCH   1  33
ATOM     33  C   LIG    1       24.302 -22.017   5.364  0.00  0.00    +0.055 C 
BRANCH  33  37
ATOM     34  C   LIG    1       25.489 -26.200   5.904  0.00  0.00    +0.120 A 
ATOM     35  C   LIG    1       25.200 -25.702   4.632  0.00  0.00    +0.046 A 
ATOM     36  C   LIG    1       24.779 -24.371   4.400  0.00  0.00    +0.007 A 
ATOM     37  C   LIG    1       24.569 -23.503   5.447  0.00  0.00    -0.046 A 
ATOM     38  C   LIG    1       24.522 -24.124   6.650  0.00  0.00    +0.007 A 
ATOM     39  C   LIG    1       25.170 -25.357   6.948  0.00  0.00    +0.046 A 
BRANCH  34  40
ATOM     40  O   LIG    1       26.031 -27.447   6.168  0.00  0.00    -0.492 OA
BRANCH  40  42
ATOM     41  C   LIG    1       25.269 -29.714   6.975  0.00  0.00    +0.048 C 
ATOM     42  C   LIG    1       25.320 -28.200   7.177  0.00  0.00    +0.226 C 
ENDBRANCH  40  42
ENDBRANCH  34  40
ENDBRANCH  33  37
ENDBRANCH   1  33
TORSDOF 25
ENDMDL
MODEL 4
REMARK VINA RESULT:      -7.3      1.354      3.210
REMARK  Name = *****
REMARK                            x       y       z     vdW  Elec       q    Type
REMARK                         _______ _______ _______ _____ _____    ______ ____
ROOT
ATOM      1  C   LIG    1       26.102 -22.298   6.692  0.00  0.00    +0.076 C 
ENDROOT
BRANCH   1   2
ATOM      2  N   LIG    1       24.779 -21.642   6.177  0.00  0.00    -0.278 NA
BRANCH   2   3
ATOM      3  C   LIG    1       23.534 -21.765   7.028  0.00  0.00    +0.206 C 
BRANCH   3   4
ATOM      4  C   LIG    1       22.405 -22.691   6.476  0.00  0.00    +0.319 C 
ATOM      5  O   LIG    1       22.124 -23.809   6.736  0.00  0.00    -0.250 OA
BRANCH   4   6
ATOM      6  O   LIG    1       21.750 -22.152   5.422  0.00  0.00    -0.480 OA
ATOM      7  H   LIG    1       21.337 -21.405   5.941  0.00  0.00    +0.295 HD
ENDBRANCH   4   6
ENDBRANCH   3   4
ENDBRANCH   2   3
BRANCH   2   8
ATOM      8  C   LIG    1       24.834 -20.337   5.472  0.00  0.00    +0.206 C 
BRANCH   8   9
ATOM      9  C   LIG    1       24.675 -20.353   3.947  0.00  0.00    +0.319 C 
ATOM     10  O   LIG    1       23.988 -21.057   3.298  0.00  0.00    -0.250 OA
BRANCH   9  11
ATOM     11  O   LIG    1       25.545 -19.522   3.331  0.00  0.00    -0.480 OA
ATOM     12  H   LIG    1       26.355 -20.075   3.374  0.00  0.00    +0.295 HD
ENDBRANCH   9  11
ENDBRANCH   8   9
ENDBRANCH   2   8
ENDBRANCH   1   2
BRANCH   1  13
ATOM     13  C   LIG    1       27.092 -21.248   7.491  0.00  0.00    +0.104 C 
BRANCH  13  14
ATOM     14  N   LIG    1       27.837 -20.016   6.989  0.00  0.00    -0.290 NA
BRANCH  14  15
ATOM     15  C   LIG    1       28.848 -19.596   7.983  0.00  0.00    +0.100 C 
BRANCH  15  16
ATOM     16  C   LIG    1       30.109 -20.533   7.963  0.00  0.00    +0.101 C 
BRANCH  16  17
ATOM     17  N   LIG    1       31.392 -19.916   8.175  0.00  0.00    -0.281 NA
BRANCH  17  18
ATOM     18  C   LIG    1       31.222 -18.488   8.580  0.00  0.00    +0.206 C 
BRANCH  18  19
ATOM     19  C   LIG    1       31.461 -18.138  10.067  0.00  0.00    +0.319 C 
ATOM     20  O   LIG    1       32.514 -17.672  10.505  0.00  0.00    -0.250 OA
BRANCH  19  21
ATOM     21  O   LIG    1       30.489 -18.392  10.956  0.00  0.00    -0.480 OA
ATOM     22  H   LIG    1       30.016 -19.170  10.589  0.00  0.00    +0.295 HD
ENDBRANCH  19  21
ENDBRANCH  18  19
ENDBRANCH  17  18
BRANCH  17  23
ATOM     23  C   LIG    1       32.080 -20.746   9.180  0.00  0.00    +0.206 C 
BRANCH  23  24
ATOM     24  C   LIG    1       31.507 -22.154   9.360  0.00  0.00    +0.319 C 
ATOM     25  O   LIG    1       30.574 -22.520  10.026  0.00  0.00    -0.250 OA
BRANCH  24  26
ATOM     26  O   LIG    1       32.116 -23.036   8.539  0.00  0.00    -0.480 OA
ATOM     27  H   LIG    1       31.845 -23.891   8.931  0.00  0.00    +0.295 HD
ENDBRANCH  24  26
ENDBRANCH  23  24
ENDBRANCH  17  23
ENDBRANCH  16  17
ENDBRANCH  15  16
ENDBRANCH  14  15
BRANCH  14  28
ATOM     28  C   LIG    1       28.621 -19.966   5.735  0.00  0.00    +0.205 C 
BRANCH  28  29
ATOM     29  C   LIG    1       28.925 -18.502   5.193  0.00  0.00    +0.319 C 
ATOM     30  O   LIG    1       29.955 -17.888   5.455  0.00  0.00    -0.250 OA
BRANCH  29  31
ATOM     31  O   LIG    1       28.007 -17.892   4.404  0.00  0.00    -0.480 OA
ATOM     32  H   LIG    1       27.809 -16.943   4.535  0.00  0.00    +0.295 HD
ENDBRANCH  29  31
ENDBRANCH  28  29
ENDBRANCH  14  28
ENDBRANCH  13  14
ENDBRANCH   1  13
BRANCH   1  33
ATOM     33  C   LIG    1       25.741 -23.648   7.408  0.00  0.00    +0.055 C 
BRANCH  33  37
ATOM     34  C   LIG    1       24.745 -27.551   5.684  0.00  0.00    +0.120 A 
ATOM     35  C   LIG    1       25.605 -27.457   6.780  0.00  0.00    +0.046 A 
ATOM     36  C   LIG    1       25.990 -26.223   7.357  0.00  0.00    +0.007 A 
ATOM     37  C   LIG    1       25.575 -25.028   6.814  0.00  0.00    -0.046 A 
ATOM     38  C   LIG    1       25.047 -25.164   5.574  0.00  0.00    +0.007 A 
ATOM     39  C   LIG    1       24.427 -26.349   5.086  0.00  0.00    +0.046 A 
BRANCH  34  40
ATOM     40  O   LIG    1       24.234 -28.731   5.170  0.00  0.00    -0.492 OA
BRANCH  40  42
ATOM     41  C   LIG    1       25.639 -30.828   5.150  0.00  0.00    +0.048 C 
ATOM     42  C   LIG    1       24.654 -29.917   5.882  0.00  0.00    +0.226 C 
ENDBRANCH  40  42
ENDBRANCH  34  40
ENDBRANCH  33  37
ENDBRANCH   1  33
TORSDOF 25
ENDMDL
MODEL 5
REMARK VINA RESULT:      -7.2      2.252      8.593
REMARK  Name = *****
REMARK                            x       y       z     vdW  Elec       q    Type
REMARK                         _______ _______ _______ _____ _____    ______ ____
ROOT
ATOM      1  C   LIG    1       26.415 -21.174   6.962  0.00  0.00    +0.076 C 
ENDROOT
BRANCH   1   2
ATOM      2  N   LIG    1       25.225 -20.534   6.173  0.00  0.00    -0.278 NA
BRANCH   2   3
ATOM      3  C   LIG    1       25.283 -20.525   4.661  0.00  0.00    +0.206 C 
BRANCH   3   4
ATOM      4  C   LIG    1       25.313 -19.123   3.976  0.00  0.00    +0.319 C 
ATOM      5  O   LIG    1       24.475 -18.528   3.392  0.00  0.00    -0.250 OA
BRANCH   4   6
ATOM      6  O   LIG    1       26.554 -18.587   3.928  0.00  0.00    -0.480 OA
ATOM      7  H   LIG    1       26.654 -18.494   4.918  0.00  0.00    +0.295 HD
ENDBRANCH   4   6
ENDBRANCH   3   4
ENDBRANCH   2   3
BRANCH   2   8
ATOM      8  C   LIG    1       23.837 -20.714   6.667  0.00  0.00    +0.206 C 
BRANCH   8   9
ATOM      9  C   LIG    1       22.700 -20.517   5.658  0.00  0.00    +0.319 C 
ATOM     10  O   LIG    1       22.196 -19.506   5.323  0.00  0.00    -0.250 OA
BRANCH   9  11
ATOM     11  O   LIG    1       22.181 -21.691   5.233  0.00  0.00    -0.480 OA
ATOM     12  H   LIG    1       21.224 -21.478   5.301  0.00  0.00    +0.295 HD
ENDBRANCH   9  11
ENDBRANCH   8   9
ENDBRANCH   2   8
ENDBRANCH   1   2
BRANCH   1  13
ATOM     13  C   LIG    1       26.250 -22.797   7.203  0.00  0.00    +0.104 C 
BRANCH  13  14
ATOM     14  N   LIG    1       26.071 -23.932   6.200  0.00  0.00    -0.290 NA
BRANCH  14  15
ATOM     15  C   LIG    1       26.098 -25.234   6.900  0.00  0.00    +0.100 C 
BRANCH  15  16
ATOM     16  C   LIG    1       26.660 -26.377   5.982  0.00  0.00    +0.101 C 
BRANCH  16  17
ATOM     17  N   LIG    1       26.253 -27.725   6.283  0.00  0.00    -0.281 NA
BRANCH  17  18
ATOM     18  C   LIG    1       25.655 -27.795   7.650  0.00  0.00    +0.206 C 
BRANCH  18  19
ATOM     19  C   LIG    1       26.326 -28.742   8.673  0.00  0.00    +0.319 C 
ATOM     20  O   LIG    1       26.936 -28.356   9.670  0.00  0.00    -0.250 OA
BRANCH  19  21
ATOM     21  O   LIG    1       26.290 -30.063   8.451  0.00  0.00    -0.480 OA
ATOM     22  H   LIG    1       25.473 -30.368   8.903  0.00  0.00    +0.295 HD
ENDBRANCH  19  21
ENDBRANCH  18  19
ENDBRANCH  17  18
BRANCH  17  23
ATOM     23  C   LIG    1       25.330 -28.120   5.204  0.00  0.00    +0.206 C 
BRANCH  23  24
ATOM     24  C   LIG    1       24.594 -29.443   5.433  0.00  0.00    +0.319 C 
ATOM     25  O   LIG    1       25.038 -30.526   5.712  0.00  0.00    -0.250 OA
BRANCH  24  26
ATOM     26  O   LIG    1       23.255 -29.265   5.414  0.00  0.00    -0.480 OA
ATOM     27  H   LIG    1       23.145 -28.533   6.054  0.00  0.00    +0.295 HD
ENDBRANCH  24  26
ENDBRANCH  23  24
ENDBRANCH  17  23
ENDBRANCH  16  17
ENDBRANCH  15  16
ENDBRANCH  14  15
BRANCH  14  28
ATOM     28  C   LIG    1       24.890 -24.094   5.323  0.00  0.00    +0.205 C 
BRANCH  28  29
ATOM     29  C   LIG    1       23.624 -24.760   6.019  0.00  0.00    +0.319 C 
ATOM     30  O   LIG    1       22.902 -24.164   6.812  0.00  0.00    -0.250 OA
BRANCH  29  31
ATOM     31  O   LIG    1       23.322 -26.049   5.731  0.00  0.00    -0.480 OA
ATOM     32  H   LIG    1       23.076 -26.297   4.817  0.00  0.00    +0.295 HD
ENDBRANCH  29  31
ENDBRANCH  28  29
ENDBRANCH  14  28
ENDBRANCH  13  14
ENDBRANCH   1  13
BRANCH   1  33
ATOM     33  C   LIG    1       27.760 -20.663   6.332  0.00  0.00    +0.055 C 
BRANCH  33  37
ATOM     34  C   LIG    1       31.111 -19.264   8.784  0.00  0.00    +0.120 A 
ATOM     35  C   LIG    1       30.573 -18.450   7.785  0.00  0.00    +0.046 A 
ATOM     36  C   LIG    1       29.514 -18.861   6.940  0.00  0.00    +0.007 A 
ATOM     37  C   LIG    1       28.996 -20.133   7.022  0.00  0.00    -0.046 A 
ATOM     38  C   LIG    1       29.771 -20.975   7.747  0.00  0.00    +0.007 A 
ATOM     39  C   LIG    1       30.659 -20.567   8.783  0.00  0.00    +0.046 A 
BRANCH  34  40
ATOM     40  O   LIG    1       32.050 -18.863   9.720  0.00  0.00    -0.492 OA
BRANCH  40  42
ATOM     41  C   LIG    1       31.062 -17.134  11.271  0.00  0.00    +0.048 C 
ATOM     42  C   LIG    1       31.964 -17.467  10.083  0.00  0.00    +0.226 C 
ENDBRANCH  40  42
ENDBRANCH  34  40
ENDBRANCH  33  37
ENDBRANCH   1  33
TORSDOF 25
ENDMDL
MODEL 6
REMARK VINA RESULT:      -7.2      2.199      6.073
REMARK  Name = *****
REMARK                            x       y       z     vdW  Elec       q    Type
REMARK                         _______ _______ _______ _____ _____    ______ ____
ROOT
ATOM      1  C   LIG    1       25.508 -22.850   6.182  0.00  0.00    +0.076 C 
ENDROOT
BRANCH   1   2
ATOM      2  N   LIG    1       25.025 -24.335   6.091  0.00  0.00    -0.278 NA
BRANCH   2   3
ATOM      3  C   LIG    1       26.004 -25.435   6.439  0.00  0.00    +0.206 C 
BRANCH   3   4
ATOM      4  C   LIG    1       26.117 -26.611   5.420  0.00  0.00    +0.319 C 
ATOM      5  O   LIG    1       25.285 -27.290   4.924  0.00  0.00    -0.250 OA
BRANCH   4   6
ATOM      6  O   LIG    1       27.395 -26.994   5.198  0.00  0.00    -0.480 OA
ATOM      7  H   LIG    1       27.669 -26.964   6.158  0.00  0.00    +0.295 HD
ENDBRANCH   4   6
ENDBRANCH   3   4
ENDBRANCH   2   3
BRANCH   2   8
ATOM      8  C   LIG    1       23.642 -24.682   6.501  0.00  0.00    +0.206 C 
BRANCH   8   9
ATOM      9  C   LIG    1       22.699 -23.524   6.850  0.00  0.00    +0.319 C 
ATOM     10  O   LIG    1       22.846 -22.694   7.673  0.00  0.00    -0.250 OA
BRANCH   9  11
ATOM     11  O   LIG    1       21.527 -23.597   6.181  0.00  0.00    -0.480 OA
ATOM     12  H   LIG    1       21.860 -23.521   5.261  0.00  0.00    +0.295 HD
ENDBRANCH   9  11
ENDBRANCH   8   9
ENDBRANCH   2   8
ENDBRANCH   1   2
BRANCH   1  13
ATOM     13  C   LIG    1       27.075 -22.695   6.673  0.00  0.00    +0.104 C 
BRANCH  13  14
ATOM     14  N   LIG    1       27.746 -21.611   7.511  0.00  0.00    -0.290 NA
BRANCH  14  15
ATOM     15  C   LIG    1       28.812 -20.953   6.726  0.00  0.00    +0.100 C 
BRANCH  15  16
ATOM     16  C   LIG    1       29.212 -19.563   7.338  0.00  0.00    +0.101 C 
BRANCH  16  17
ATOM     17  N   LIG    1       30.028 -19.574   8.524  0.00  0.00    -0.281 NA
BRANCH  17  18
ATOM     18  C   LIG    1       31.253 -20.401   8.306  0.00  0.00    +0.206 C 
BRANCH  18  19
ATOM     19  C   LIG    1       31.366 -21.727   9.093  0.00  0.00    +0.319 C 
ATOM     20  O   LIG    1       30.846 -21.922  10.193  0.00  0.00    -0.250 OA
BRANCH  19  21
ATOM     21  O   LIG    1       32.107 -22.721   8.583  0.00  0.00    -0.480 OA
ATOM     22  H   LIG    1       32.075 -23.428   9.264  0.00  0.00    +0.295 HD
ENDBRANCH  19  21
ENDBRANCH  18  19
ENDBRANCH  17  18
BRANCH  17  23
ATOM     23  C   LIG    1       30.306 -18.161   8.838  0.00  0.00    +0.206 C 
BRANCH  23  24
ATOM     24  C   LIG    1       30.726 -17.890  10.286  0.00  0.00    +0.319 C 
ATOM     25  O   LIG    1       30.042 -17.690  11.255  0.00  0.00    -0.250 OA
BRANCH  24  26
ATOM     26  O   LIG    1       32.062 -18.020  10.437  0.00  0.00    -0.480 OA
ATOM     27  H   LIG    1       32.278 -18.666   9.735  0.00  0.00    +0.295 HD
ENDBRANCH  24  26
ENDBRANCH  23  24
ENDBRANCH  17  23
ENDBRANCH  16  17
ENDBRANCH  15  16
ENDBRANCH  14  15
BRANCH  14  28
ATOM     28  C   LIG    1       27.042 -20.444   8.086  0.00  0.00    +0.205 C 
BRANCH  28  29
ATOM     29  C   LIG    1       25.675 -20.784   8.825  0.00  0.00    +0.319 C 
ATOM     30  O   LIG    1       25.609 -21.479   9.833  0.00  0.00    -0.250 OA
BRANCH  29  31
ATOM     31  O   LIG    1       24.518 -20.287   8.321  0.00  0.00    -0.480 OA
ATOM     32  H   LIG    1       24.406 -19.319   8.230  0.00  0.00    +0.295 HD
ENDBRANCH  29  31
ENDBRANCH  28  29
ENDBRANCH  14  28
ENDBRANCH  13  14
ENDBRANCH   1  13
BRANCH   1  33
ATOM     33  C   LIG    1       25.079 -22.106   4.867  0.00  0.00    +0.055 C 
BRANCH  33  37
ATOM     34  C   LIG    1       22.889 -18.360   4.261  0.00  0.00    +0.120 A 
ATOM     35  C   LIG    1       24.147 -18.549   3.684  0.00  0.00    +0.046 A 
ATOM     36  C   LIG    1       24.915 -19.723   3.873  0.00  0.00    +0.007 A 
ATOM     37  C   LIG    1       24.477 -20.729   4.703  0.00  0.00    -0.046 A 
ATOM     38  C   LIG    1       23.446 -20.351   5.496  0.00  0.00    +0.007 A 
ATOM     39  C   LIG    1       22.514 -19.323   5.175  0.00  0.00    +0.046 A 
BRANCH  34  40
ATOM     40  O   LIG    1       22.044 -17.294   4.000  0.00  0.00    -0.492 OA
BRANCH  40  42
ATOM     41  C   LIG    1       23.241 -15.114   4.431  0.00  0.00    +0.048 C 
ATOM     42  C   LIG    1       22.227 -16.164   4.883  0.00  0.00    +0.226 C 
ENDBRANCH  40  42
ENDBRANCH  34  40
ENDBRANCH  33  37
ENDBRANCH   1  33
TORSDOF 25
ENDMDL
MODEL 7
REMARK VINA RESULT:      -7.2      1.476      2.900
REMARK  Name = *****
REMARK                            x       y       z     vdW  Elec       q    Type
REMARK                         _______ _______ _______ _____ _____    ______ ____
ROOT
ATOM      1  C   LIG    1       25.604 -21.345   4.928  0.00  0.00    +0.076 C 
ENDROOT
BRANCH   1   2
ATOM      2  N   LIG    1       24.525 -20.433   4.258  0.00  0.00    -0.278 NA
BRANCH   2   3
ATOM      3  C   LIG    1       23.494 -19.765   5.143  0.00  0.00    +0.206 C 
BRANCH   3   4
ATOM      4  C   LIG    1       22.074 -19.569   4.527  0.00  0.00    +0.319 C 
ATOM      5  O   LIG    1       21.520 -18.596   4.148  0.00  0.00    -0.250 OA
BRANCH   4   6
ATOM      6  O   LIG    1       21.317 -20.689   4.584  0.00  0.00    -0.480 OA
ATOM      7  H   LIG    1       21.831 -21.111   5.329  0.00  0.00    +0.295 HD
ENDBRANCH   4   6
ENDBRANCH   3   4
ENDBRANCH   2   3
BRANCH   2   8
ATOM      8  C   LIG    1       24.904 -19.570   3.112  0.00  0.00    +0.206 C 
BRANCH   8   9
ATOM      9  C   LIG    1       25.318 -18.127   3.424  0.00  0.00    +0.319 C 
ATOM     10  O   LIG    1       24.632 -17.171   3.472  0.00  0.00    -0.250 OA
BRANCH   9  11
ATOM     11  O   LIG    1       26.659 -17.988   3.523  0.00  0.00    -0.480 OA
ATOM     12  H   LIG    1       26.709 -17.025   3.711  0.00  0.00    +0.295 HD
ENDBRANCH   9  11
ENDBRANCH   8   9
ENDBRANCH   2   8
ENDBRANCH   1   2
BRANCH   1  13
ATOM     13  C   LIG    1       26.797 -20.504   5.695  0.00  0.00    +0.104 C 
BRANCH  13  14
ATOM     14  N   LIG    1       27.568 -20.823   6.972  0.00  0.00    -0.290 NA
BRANCH  14  15
ATOM     15  C   LIG    1       28.911 -20.207   6.919  0.00  0.00    +0.100 C 
BRANCH  15  16
ATOM     16  C   LIG    1       29.139 -19.205   8.106  0.00  0.00    +0.101 C 
BRANCH  16  17
ATOM     17  N   LIG    1       30.270 -19.446   8.964  0.00  0.00    -0.281 NA
BRANCH  17  18
ATOM     18  C   LIG    1       31.184 -20.455   8.349  0.00  0.00    +0.206 C 
BRANCH  18  19
ATOM     19  C   LIG    1       31.367 -21.797   9.096  0.00  0.00    +0.319 C 
ATOM     20  O   LIG    1       30.849 -22.057  10.182  0.00  0.00    -0.250 OA
BRANCH  19  21
ATOM     21  O   LIG    1       32.172 -22.729   8.564  0.00  0.00    -0.480 OA
ATOM     22  H   LIG    1       31.738 -23.583   8.780  0.00  0.00    +0.295 HD
ENDBRANCH  19  21
ENDBRANCH  18  19
ENDBRANCH  17  18
BRANCH  17  23
ATOM     23  C   LIG    1       30.896 -18.130   9.190  0.00  0.00    +0.206 C 
BRANCH  23  24
ATOM     24  C   LIG    1       30.628 -17.513  10.565  0.00  0.00    +0.319 C 
ATOM     25  O   LIG    1       30.200 -16.424  10.844  0.00  0.00    -0.250 OA
BRANCH  24  26
ATOM     26  O   LIG    1       30.818 -18.418  11.550  0.00  0.00    -0.480 OA
ATOM     27  H   LIG    1       30.782 -19.260  11.053  0.00  0.00    +0.295 HD
ENDBRANCH  24  26
ENDBRANCH  23  24
ENDBRANCH  17  23
ENDBRANCH  16  17
ENDBRANCH  15  16
ENDBRANCH  14  15
BRANCH  14  28
ATOM     28  C   LIG    1       27.125 -20.445   8.332  0.00  0.00    +0.205 C 
BRANCH  28  29
ATOM     29  C   LIG    1       25.717 -21.043   8.768  0.00  0.00    +0.319 C 
ATOM     30  O   LIG    1       25.597 -22.061   9.442  0.00  0.00    -0.250 OA
BRANCH  29  31
ATOM     31  O   LIG    1       24.586 -20.404   8.379  0.00  0.00    -0.480 OA
ATOM     32  H   LIG    1       23.907 -20.888   7.868  0.00  0.00    +0.295 HD
ENDBRANCH  29  31
ENDBRANCH  28  29
ENDBRANCH  14  28
ENDBRANCH  13  14
ENDBRANCH   1  13
BRANCH   1  33
ATOM     33  C   LIG    1       24.868 -22.470   5.740  0.00  0.00    +0.055 C 
BRANCH  33  37
ATOM     34  C   LIG    1       25.276 -26.828   5.954  0.00  0.00    +0.120 A 
ATOM     35  C   LIG    1       25.902 -26.008   6.896  0.00  0.00    +0.046 A 
ATOM     36  C   LIG    1       25.834 -24.594   6.858  0.00  0.00    +0.007 A 
ATOM     37  C   LIG    1       25.187 -23.945   5.832  0.00  0.00    -0.046 A 
ATOM     38  C   LIG    1       24.909 -24.756   4.783  0.00  0.00    +0.007 A 
ATOM     39  C   LIG    1       24.726 -26.165   4.876  0.00  0.00    +0.046 A 
BRANCH  34  40
ATOM     40  O   LIG    1       25.200 -28.209   6.024  0.00  0.00    -0.492 OA
BRANCH  40  42
ATOM     41  C   LIG    1       25.108 -30.254   7.500  0.00  0.00    +0.048 C 
ATOM     42  C   LIG    1       25.196 -28.734   7.370  0.00  0.00    +0.226 C 
ENDBRANCH  40  42
ENDBRANCH  34  40
ENDBRANCH  33  37
ENDBRANCH   1  33
TORSDOF 25
ENDMDL
MODEL 8
REMARK VINA RESULT:      -7.2      2.313      8.485
REMARK  Name = *****
REMARK                            x       y       z     vdW  Elec       q    Type
REMARK                         _______ _______ _______ _____ _____    ______ ____
ROOT
ATOM      1  C   LIG    1       26.204 -20.991   6.863  0.00  0.00    +0.076 C 
ENDROOT
BRANCH   1   2
ATOM      2  N   LIG    1       24.986 -20.530   5.997  0.00  0.00    -0.278 NA
BRANCH   2   3
ATOM      3  C   LIG    1       25.124 -20.549   4.490  0.00  0.00    +0.206 C 
BRANCH   3   4
ATOM      4  C   LIG    1       25.233 -19.160   3.786  0.00  0.00    +0.319 C 
ATOM      5  O   LIG    1       26.165 -18.459   3.596  0.00  0.00    -0.250 OA
BRANCH   4   6
ATOM      6  O   LIG    1       24.027 -18.626   3.485  0.00  0.00    -0.480 OA
ATOM      7  H   LIG    1       24.351 -18.100   2.701  0.00  0.00    +0.295 HD
ENDBRANCH   4   6
ENDBRANCH   3   4
ENDBRANCH   2   3
BRANCH   2   8
ATOM      8  C   LIG    1       23.609 -20.877   6.426  0.00  0.00    +0.206 C 
BRANCH   8   9
ATOM      9  C   LIG    1       22.477 -20.638   5.419  0.00  0.00    +0.319 C 
ATOM     10  O   LIG    1       22.045 -19.608   5.047  0.00  0.00    -0.250 OA
BRANCH   9  11
ATOM     11  O   LIG    1       21.868 -21.787   5.050  0.00  0.00    -0.480 OA
ATOM     12  H   LIG    1       22.650 -22.379   5.007  0.00  0.00    +0.295 HD
ENDBRANCH   9  11
ENDBRANCH   8   9
ENDBRANCH   2   8
ENDBRANCH   1   2
BRANCH   1  13
ATOM     13  C   LIG    1       26.123 -22.572   7.327  0.00  0.00    +0.104 C 
BRANCH  13  14
ATOM     14  N   LIG    1       26.033 -23.844   6.490  0.00  0.00    -0.290 NA
BRANCH  14  15
ATOM     15  C   LIG    1       25.822 -25.013   7.370  0.00  0.00    +0.100 C 
BRANCH  15  16
ATOM     16  C   LIG    1       26.136 -26.363   6.630  0.00  0.00    +0.101 C 
BRANCH  16  17
ATOM     17  N   LIG    1       25.610 -27.571   7.210  0.00  0.00    -0.281 NA
BRANCH  17  18
ATOM     18  C   LIG    1       25.532 -28.651   6.181  0.00  0.00    +0.206 C 
BRANCH  18  19
ATOM     19  C   LIG    1       24.218 -29.463   6.100  0.00  0.00    +0.319 C 
ATOM     20  O   LIG    1       23.987 -30.467   6.775  0.00  0.00    -0.250 OA
BRANCH  19  21
ATOM     21  O   LIG    1       23.282 -29.092   5.215  0.00  0.00    -0.480 OA
ATOM     22  H   LIG    1       22.457 -29.020   5.742  0.00  0.00    +0.295 HD
ENDBRANCH  19  21
ENDBRANCH  18  19
ENDBRANCH  17  18
BRANCH  17  23
ATOM     23  C   LIG    1       26.489 -27.891   8.349  0.00  0.00    +0.206 C 
BRANCH  23  24
ATOM     24  C   LIG    1       26.158 -29.197   9.076  0.00  0.00    +0.319 C 
ATOM     25  O   LIG    1       25.151 -29.516   9.653  0.00  0.00    -0.250 OA
BRANCH  24  26
ATOM     26  O   LIG    1       27.138 -30.110   8.908  0.00  0.00    -0.480 OA
ATOM     27  H   LIG    1       27.764 -29.861   9.618  0.00  0.00    +0.295 HD
ENDBRANCH  24  26
ENDBRANCH  23  24
ENDBRANCH  17  23
ENDBRANCH  16  17
ENDBRANCH  15  16
ENDBRANCH  14  15
BRANCH  14  28
ATOM     28  C   LIG    1       25.021 -24.082   5.437  0.00  0.00    +0.205 C 
BRANCH  28  29
ATOM     29  C   LIG    1       23.669 -24.747   5.945  0.00  0.00    +0.319 C 
ATOM     30  O   LIG    1       22.867 -24.170   6.673  0.00  0.00    -0.250 OA
BRANCH  29  31
ATOM     31  O   LIG    1       23.379 -26.015   5.562  0.00  0.00    -0.480 OA
ATOM     32  H   LIG    1       23.794 -26.385   4.757  0.00  0.00    +0.295 HD
ENDBRANCH  29  31
ENDBRANCH  28  29
ENDBRANCH  14  28
ENDBRANCH  13  14
ENDBRANCH   1  13
BRANCH   1  33
ATOM     33  C   LIG    1       27.524 -20.503   6.165  0.00  0.00    +0.055 C 
BRANCH  33  37
ATOM     34  C   LIG    1       31.116 -19.436   8.435  0.00  0.00    +0.120 A 
ATOM     35  C   LIG    1       30.661 -18.618   7.398  0.00  0.00    +0.046 A 
ATOM     36  C   LIG    1       29.529 -18.929   6.608  0.00  0.00    +0.007 A 
ATOM     37  C   LIG    1       28.843 -20.109   6.788  0.00  0.00    -0.046 A 
ATOM     38  C   LIG    1       29.519 -21.004   7.547  0.00  0.00    +0.007 A 
ATOM     39  C   LIG    1       30.489 -20.661   8.531  0.00  0.00    +0.046 A 
BRANCH  34  40
ATOM     40  O   LIG    1       32.132 -19.113   9.319  0.00  0.00    -0.492 OA
BRANCH  40  42
ATOM     41  C   LIG    1       31.073 -17.509  10.956  0.00  0.00    +0.048 C 
ATOM     42  C   LIG    1       32.069 -17.760   9.824  0.00  0.00    +0.226 C 
ENDBRANCH  40  42
ENDBRANCH  34  40
ENDBRANCH  33  37
ENDBRANCH   1  33
TORSDOF 25
ENDMDL
MODEL 9
REMARK VINA RESULT:      -7.1      2.286      7.884
REMARK  Name = *****
REMARK                            x       y       z     vdW  Elec       q    Type
REMARK                         _______ _______ _______ _____ _____    ______ ____
ROOT
ATOM      1  C   LIG    1       25.807 -20.110   5.070  0.00  0.00    +0.076 C 
ENDROOT
BRANCH   1   2
ATOM      2  N   LIG    1       25.098 -19.043   4.173  0.00  0.00    -0.278 NA
BRANCH   2   3
ATOM      3  C   LIG    1       25.905 -18.357   3.092  0.00  0.00    +0.206 C 
BRANCH   3   4
ATOM      4  C   LIG    1       26.360 -16.894   3.389  0.00  0.00    +0.319 C 
ATOM      5  O   LIG    1       25.802 -15.863   3.240  0.00  0.00    -0.250 OA
BRANCH   4   6
ATOM      6  O   LIG    1       27.666 -16.809   3.733  0.00  0.00    -0.480 OA
ATOM      7  H   LIG    1       28.015 -16.923   2.803  0.00  0.00    +0.295 HD
ENDBRANCH   4   6
ENDBRANCH   3   4
ENDBRANCH   2   3
BRANCH   2   8
ATOM      8  C   LIG    1       23.690 -19.257   3.753  0.00  0.00    +0.206 C 
BRANCH   8   9
ATOM      9  C   LIG    1       22.600 -19.039   4.808  0.00  0.00    +0.319 C 
ATOM     10  O   LIG    1       22.289 -19.758   5.688  0.00  0.00    -0.250 OA
BRANCH   9  11
ATOM     11  O   LIG    1       21.868 -17.928   4.568  0.00  0.00    -0.480 OA
ATOM     12  H   LIG    1       21.098 -18.113   5.149  0.00  0.00    +0.295 HD
ENDBRANCH   9  11
ENDBRANCH   8   9
ENDBRANCH   2   8
ENDBRANCH   1   2
BRANCH   1  13
ATOM     13  C   LIG    1       25.159 -21.621   4.935  0.00  0.00    +0.104 C 
BRANCH  13  14
ATOM     14  N   LIG    1       24.754 -22.622   6.012  0.00  0.00    -0.290 NA
BRANCH  14  15
ATOM     15  C   LIG    1       24.978 -24.002   5.530  0.00  0.00    +0.100 C 
BRANCH  15  16
ATOM     16  C   LIG    1       24.187 -25.054   6.387  0.00  0.00    +0.101 C 
BRANCH  16  17
ATOM     17  N   LIG    1       24.792 -26.348   6.566  0.00  0.00    -0.281 NA
BRANCH  17  18
ATOM     18  C   LIG    1       24.162 -27.348   5.652  0.00  0.00    +0.206 C 
BRANCH  18  19
ATOM     19  C   LIG    1       24.073 -28.810   6.151  0.00  0.00    +0.319 C 
ATOM     20  O   LIG    1       24.781 -29.277   7.044  0.00  0.00    -0.250 OA
BRANCH  19  21
ATOM     21  O   LIG    1       23.210 -29.645   5.555  0.00  0.00    -0.480 OA
ATOM     22  H   LIG    1       23.535 -30.543   5.786  0.00  0.00    +0.295 HD
ENDBRANCH  19  21
ENDBRANCH  18  19
ENDBRANCH  17  18
BRANCH  17  23
ATOM     23  C   LIG    1       26.236 -26.156   6.338  0.00  0.00    +0.206 C 
BRANCH  23  24
ATOM     24  C   LIG    1       26.773 -26.760   5.038  0.00  0.00    +0.319 C 
ATOM     25  O   LIG    1       26.229 -26.885   3.971  0.00  0.00    -0.250 OA
BRANCH  24  26
ATOM     26  O   LIG    1       28.082 -27.072   5.150  0.00  0.00    -0.480 OA
ATOM     27  H   LIG    1       28.090 -28.003   4.847  0.00  0.00    +0.295 HD
ENDBRANCH  24  26
ENDBRANCH  23  24
ENDBRANCH  17  23
ENDBRANCH  16  17
ENDBRANCH  15  16
ENDBRANCH  14  15
BRANCH  14  28
ATOM     28  C   LIG    1       25.350 -22.683   7.365  0.00  0.00    +0.205 C 
BRANCH  28  29
ATOM     29  C   LIG    1       25.095 -21.398   8.268  0.00  0.00    +0.319 C 
ATOM     30  O   LIG    1       25.873 -21.023   9.139  0.00  0.00    -0.250 OA
BRANCH  29  31
ATOM     31  O   LIG    1       23.963 -20.678   8.075  0.00  0.00    -0.480 OA
ATOM     32  H   LIG    1       23.328 -20.949   7.382  0.00  0.00    +0.295 HD
ENDBRANCH  29  31
ENDBRANCH  28  29
ENDBRANCH  14  28
ENDBRANCH  13  14
ENDBRANCH   1  13
BRANCH   1  33
ATOM     33  C   LIG    1       27.359 -19.963   4.885  0.00  0.00    +0.055 C 
BRANCH  33  37
ATOM     34  C   LIG    1       30.110 -19.735   8.288  0.00  0.00    +0.120 A 
ATOM     35  C   LIG    1       30.196 -18.814   7.240  0.00  0.00    +0.046 A 
ATOM     36  C   LIG    1       29.359 -18.859   6.100  0.00  0.00    +0.007 A 
ATOM     37  C   LIG    1       28.441 -19.871   5.936  0.00  0.00    -0.046 A 
ATOM     38  C   LIG    1       28.638 -20.908   6.786  0.00  0.00    +0.007 A 
ATOM     39  C   LIG    1       29.266 -20.802   8.059  0.00  0.00    +0.046 A 
BRANCH  34  40
ATOM     40  O   LIG    1       30.811 -19.655   9.479  0.00  0.00    -0.492 OA
BRANCH  40  42
ATOM     41  C   LIG    1       30.406 -17.500  10.730  0.00  0.00    +0.048 C 
ATOM     42  C   LIG    1       31.289 -18.328   9.797  0.00  0.00    +0.226 C 
ENDBRANCH  40  42
ENDBRANCH  34  40
ENDBRANCH  33  37
ENDBRANCH   1  33
TORSDOF 25
ENDMDL
