MODEL 1
REMARK VINA RESULT:      -0.3      0.000      0.000
REMARK  Name = *****
REMARK                            x       y       z     vdW  Elec       q    Type
REMARK                         _______ _______ _______ _____ _____    ______ ____
ROOT
ATOM      1  C   LIG    1       24.899 -13.332   4.122  0.00  0.00    +0.032 C 
ATOM      2  C   LIG    1       25.506 -12.101   4.815  0.00  0.00    +0.019 C 
ATOM      3  C   LIG    1       25.960 -14.333   3.527  0.00  0.00    -0.016 C 
ATOM      4  C   LIG    1       26.477 -13.906   2.141  0.00  0.00    +0.012 C 
ATOM      5  C   LIG    1       25.156 -15.655   3.444  0.00  0.00    +0.003 C 
ATOM      6  C   LIG    1       26.002 -16.931   3.188  0.00  0.00    +0.019 C 
ATOM      7  C   LIG    1       27.232 -17.033   4.088  0.00  0.00    -0.063 C 
ATOM      8  C   LIG    1       28.029 -15.746   4.169  0.00  0.00    +0.032 C 
ATOM      9  C   LIG    1       27.587 -18.181   4.719  0.00  0.00    -0.044 C 
ATOM     10  C   LIG    1       26.861 -19.429   4.468  0.00  0.00    -0.041 C 
ATOM     11  C   LIG    1       27.025 -20.536   5.209  0.00  0.00    +0.050 C 
ATOM     12  C   LIG    1       28.081 -20.602   6.236  0.00  0.00    +0.157 C 
ATOM     13  O   LIG    1       28.077 -21.511   7.061  0.00  0.00    -0.293 OA
ATOM     14  C   LIG    1       29.213 -19.624   6.108  0.00  0.00    +0.083 C 
ATOM     15  C   LIG    1       25.919 -19.449   3.289  0.00  0.00    +0.036 C 
ATOM     16  C   LIG    1       28.711 -18.237   5.739  0.00  0.00    +0.043 C 
ATOM     17  C   LIG    1       25.096 -18.176   3.246  0.00  0.00    +0.013 C 
ATOM     18  C   LIG    1       24.335 -15.660   4.748  0.00  0.00    +0.006 C 
ATOM     19  C   LIG    1       27.170 -14.525   4.485  0.00  0.00    +0.012 C 
ATOM     20  C   LIG    1       24.162 -14.198   5.175  0.00  0.00    +0.015 C 
ENDROOT
BRANCH   1  22
ATOM     21  C   LIG    1       23.886 -11.447   2.567  0.00  0.00    +0.086 C 
ATOM     22  C   LIG    1       23.854 -12.875   3.062  0.00  0.00    +0.137 C 
ATOM     23  O   LIG    1       23.013 -13.651   2.599  0.00  0.00    -0.297 OA
ENDBRANCH   1  22
TORSDOF 1
ENDMDL
MODEL 2
REMARK VINA RESULT:       0.6      2.307      3.138
REMARK  Name = *****
REMARK                            x       y       z     vdW  Elec       q    Type
REMARK                         _______ _______ _______ _____ _____    ______ ____
ROOT
ATOM      1  C   LIG    1       26.351 -13.472   4.130  0.00  0.00    +0.032 C 
ATOM      2  C   LIG    1       27.874 -13.308   4.263  0.00  0.00    +0.019 C 
ATOM      3  C   LIG    1       25.901 -14.773   3.364  0.00  0.00    -0.016 C 
ATOM      4  C   LIG    1       25.937 -14.611   1.832  0.00  0.00    +0.012 C 
ATOM      5  C   LIG    1       24.451 -14.970   3.873  0.00  0.00    +0.003 C 
ATOM      6  C   LIG    1       23.817 -16.349   3.550  0.00  0.00    +0.019 C 
ATOM      7  C   LIG    1       24.733 -17.528   3.876  0.00  0.00    -0.063 C 
ATOM      8  C   LIG    1       26.151 -17.347   3.374  0.00  0.00    +0.032 C 
ATOM      9  C   LIG    1       24.296 -18.641   4.519  0.00  0.00    -0.044 C 
ATOM     10  C   LIG    1       22.876 -18.817   4.833  0.00  0.00    -0.041 C 
ATOM     11  C   LIG    1       22.416 -19.783   5.643  0.00  0.00    +0.050 C 
ATOM     12  C   LIG    1       23.320 -20.834   6.146  0.00  0.00    +0.157 C 
ATOM     13  O   LIG    1       22.958 -21.567   7.061  0.00  0.00    -0.293 OA
ATOM     14  C   LIG    1       24.594 -21.054   5.382  0.00  0.00    +0.083 C 
ATOM     15  C   LIG    1       21.905 -17.874   4.165  0.00  0.00    +0.036 C 
ATOM     16  C   LIG    1       25.240 -19.735   4.986  0.00  0.00    +0.043 C 
ATOM     17  C   LIG    1       22.429 -16.452   4.212  0.00  0.00    +0.013 C 
ATOM     18  C   LIG    1       24.544 -14.623   5.371  0.00  0.00    +0.006 C 
ATOM     19  C   LIG    1       26.761 -16.003   3.766  0.00  0.00    +0.012 C 
ATOM     20  C   LIG    1       25.735 -13.671   5.538  0.00  0.00    +0.015 C 
ENDROOT
BRANCH   1  22
ATOM     21  C   LIG    1       24.571 -11.517   4.217  0.00  0.00    +0.086 C 
ATOM     22  C   LIG    1       25.736 -12.178   3.517  0.00  0.00    +0.137 C 
ATOM     23  O   LIG    1       26.187 -11.666   2.490  0.00  0.00    -0.297 OA
ENDBRANCH   1  22
TORSDOF 1
ENDMDL
