MODEL 1
REMARK VINA RESULT:      -5.7      0.000      0.000
REMARK  Name = *****
REMARK                            x       y       z     vdW  Elec       q    Type
REMARK                         _______ _______ _______ _____ _____    ______ ____
ROOT
ATOM      1  C   LIG    1       25.314 -29.047   6.242  0.00  0.00    +0.106 C 
ATOM      2  C   LIG    1       26.425 -28.283   7.016  0.00  0.00    +0.172 C 
ATOM      3  C   LIG    1       26.872 -27.055   6.165  0.00  0.00    +0.175 C 
ATOM      4  C   LIG    1       25.752 -25.987   5.998  0.00  0.00    +0.169 C 
ATOM      5  C   LIG    1       24.340 -26.617   6.221  0.00  0.00    +0.084 C 
ATOM      6  C   LIG    1       24.283 -28.054   5.649  0.00  0.00    +0.046 C 
ENDROOT
BRANCH   1   8
ATOM      7  C   LIG    1       26.019 -31.286   5.237  0.00  0.00    +0.242 C 
ATOM      8  N   LIG    1       25.791 -29.938   5.115  0.00  0.00    -0.308 N 
ATOM      9  H   LIG    1       25.379 -29.676   4.209  0.00  0.00    +0.149 HD
ATOM     10  O   LIG    1       26.050 -31.904   6.301  0.00  0.00    -0.273 OA
BRANCH   7  11
ATOM     11  C   LIG    1       26.220 -32.035   3.944  0.00  0.00    +0.201 C 
BRANCH  11  12
ATOM     12  O   LIG    1       27.226 -33.035   4.100  0.00  0.00    -0.383 OA
ATOM     13  H   LIG    1       27.844 -32.676   4.765  0.00  0.00    +0.210 HD
ENDBRANCH  11  12
BRANCH  11  14
ATOM     14  C   LIG    1       24.933 -32.631   3.348  0.00  0.00    +0.056 C 
BRANCH  14  15
ATOM     15  C   LIG    1       24.205 -33.670   4.196  0.00  0.00    +0.080 C 
BRANCH  15  16
ATOM     16  N   LIG    1       23.196 -33.073   5.069  0.00  0.00    -0.330 NA
ATOM     17  H   LIG    1       22.812 -33.826   5.647  0.00  0.00    +0.118 HD
ATOM     18  H   LIG    1       23.670 -32.501   5.788  0.00  0.00    +0.118 HD
ENDBRANCH  15  16
ENDBRANCH  14  15
ENDBRANCH  11  14
ENDBRANCH   7  11
ENDBRANCH   1   8
BRANCH   5  19
ATOM     19  N   LIG    1       23.245 -25.862   5.565  0.00  0.00    -0.325 NA
ATOM     20  H   LIG    1       23.598 -25.227   4.852  0.00  0.00    +0.118 HD
ATOM     21  H   LIG    1       22.831 -25.224   6.251  0.00  0.00    +0.118 HD
ENDBRANCH   5  19
BRANCH   3  22
ATOM     22  O   LIG    1       27.339 -27.434   4.852  0.00  0.00    -0.387 OA
ATOM     23  H   LIG    1       28.288 -27.662   4.909  0.00  0.00    +0.210 HD
ENDBRANCH   3  22
BRANCH   4  24
ATOM     24  O   LIG    1       26.075 -24.890   6.880  0.00  0.00    -0.341 OA
BRANCH  24  25
ATOM     25  C   LIG    1       25.833 -23.567   6.390  0.00  0.00    +0.282 C 
ATOM     26  C   LIG    1       26.577 -22.515   7.255  0.00  0.00    +0.201 C 
ATOM     27  C   LIG    1       26.159 -21.077   6.927  0.00  0.00    +0.179 C 
ATOM     28  C   LIG    1       24.635 -20.944   6.784  0.00  0.00    +0.175 C 
ATOM     29  C   LIG    1       24.045 -22.040   5.882  0.00  0.00    +0.166 C 
ATOM     30  O   LIG    1       24.419 -23.334   6.404  0.00  0.00    -0.342 OA
BRANCH  28  31
ATOM     31  O   LIG    1       24.013 -21.042   8.075  0.00  0.00    -0.387 OA
ATOM     32  H   LIG    1       23.199 -20.495   8.036  0.00  0.00    +0.210 HD
ENDBRANCH  28  31
BRANCH  27  33
ATOM     33  O   LIG    1       26.809 -20.648   5.725  0.00  0.00    -0.386 OA
ATOM     34  H   LIG    1       27.048 -21.455   5.228  0.00  0.00    +0.210 HD
ENDBRANCH  27  33
BRANCH  26  35
ATOM     35  O   LIG    1       26.333 -22.765   8.652  0.00  0.00    -0.384 OA
ATOM     36  H   LIG    1       26.674 -23.668   8.831  0.00  0.00    +0.210 HD
ENDBRANCH  26  35
BRANCH  29  37
ATOM     37  C   LIG    1       24.398 -21.845   4.384  0.00  0.00    +0.112 C 
BRANCH  37  38
ATOM     38  N   LIG    1       24.260 -20.452   3.945  0.00  0.00    -0.328 NA
ATOM     39  H   LIG    1       24.599 -20.376   2.983  0.00  0.00    +0.118 HD
ATOM     40  H   LIG    1       23.267 -20.223   3.881  0.00  0.00    +0.118 HD
ENDBRANCH  37  38
ENDBRANCH  29  37
ENDBRANCH  24  25
ENDBRANCH   4  24
BRANCH   2  41
ATOM     41  O   LIG    1       25.950 -27.825   8.295  0.00  0.00    -0.341 OA
BRANCH  41  42
ATOM     42  C   LIG    1       26.303 -28.600   9.462  0.00  0.00    +0.281 C 
ATOM     43  C   LIG    1       25.283 -29.766   9.508  0.00  0.00    +0.189 C 
ATOM     44  C   LIG    1       25.397 -30.626  10.784  0.00  0.00    +0.116 C 
ATOM     45  C   LIG    1       25.455 -29.698  12.021  0.00  0.00    +0.165 C 
ATOM     46  C   LIG    1       26.533 -28.602  11.874  0.00  0.00    +0.177 C 
ATOM     47  O   LIG    1       26.301 -27.836  10.667  0.00  0.00    -0.341 OA
BRANCH  44  48
ATOM     48  N   LIG    1       26.514 -31.591  10.757  0.00  0.00    -0.323 NA
ATOM     49  H   LIG    1       26.892 -31.664  11.707  0.00  0.00    +0.119 HD
ATOM     50  H   LIG    1       26.135 -32.524  10.569  0.00  0.00    +0.119 HD
ENDBRANCH  44  48
BRANCH  45  51
ATOM     51  O   LIG    1       24.163 -29.081  12.170  0.00  0.00    -0.388 OA
ATOM     52  H   LIG    1       24.210 -28.460  12.918  0.00  0.00    +0.210 HD
ENDBRANCH  45  51
BRANCH  43  53
ATOM     53  O   LIG    1       23.932 -29.274   9.427  0.00  0.00    -0.385 OA
ATOM     54  H   LIG    1       23.928 -28.636   8.682  0.00  0.00    +0.210 HD
ENDBRANCH  43  53
BRANCH  46  55
ATOM     55  C   LIG    1       27.960 -29.175  12.021  0.00  0.00    +0.190 C 
BRANCH  55  56
ATOM     56  O   LIG    1       28.020 -30.165  13.045  0.00  0.00    -0.392 OA
ATOM     57  H   LIG    1       28.387 -30.969  12.637  0.00  0.00    +0.209 HD
ENDBRANCH  55  56
ENDBRANCH  46  55
ENDBRANCH  41  42
ENDBRANCH   2  41
TORSDOF 22
ENDMDL
MODEL 2
REMARK VINA RESULT:      -5.5      4.138      7.989
REMARK  Name = *****
REMARK                            x       y       z     vdW  Elec       q    Type
REMARK                         _______ _______ _______ _____ _____    ______ ____
ROOT
ATOM      1  C   LIG    1       26.118 -29.520   9.092  0.00  0.00    +0.106 C 
ATOM      2  C   LIG    1       25.138 -29.338  10.284  0.00  0.00    +0.172 C 
ATOM      3  C   LIG    1       23.996 -30.392  10.157  0.00  0.00    +0.175 C 
ATOM      4  C   LIG    1       24.495 -31.856  10.325  0.00  0.00    +0.169 C 
ATOM      5  C   LIG    1       26.025 -31.964  10.024  0.00  0.00    +0.084 C 
ATOM      6  C   LIG    1       26.424 -31.021   8.864  0.00  0.00    +0.046 C 
ENDROOT
BRANCH   1   8
ATOM      7  C   LIG    1       25.148 -29.680   6.735  0.00  0.00    +0.242 C 
ATOM      8  N   LIG    1       25.662 -28.940   7.770  0.00  0.00    -0.308 N 
ATOM      9  H   LIG    1       25.204 -28.024   7.882  0.00  0.00    +0.149 HD
ATOM     10  O   LIG    1       25.164 -30.909   6.670  0.00  0.00    -0.273 OA
BRANCH   7  11
ATOM     11  C   LIG    1       24.502 -28.891   5.624  0.00  0.00    +0.201 C 
BRANCH  11  12
ATOM     12  O   LIG    1       23.182 -29.373   5.375  0.00  0.00    -0.383 OA
ATOM     13  H   LIG    1       22.965 -29.073   4.471  0.00  0.00    +0.210 HD
ENDBRANCH  11  12
BRANCH  11  14
ATOM     14  C   LIG    1       24.505 -27.368   5.840  0.00  0.00    +0.056 C 
BRANCH  14  15
ATOM     15  C   LIG    1       25.546 -26.570   5.062  0.00  0.00    +0.080 C 
BRANCH  15  16
ATOM     16  N   LIG    1       26.912 -26.857   5.494  0.00  0.00    -0.330 NA
ATOM     17  H   LIG    1       27.300 -27.542   4.839  0.00  0.00    +0.118 HD
ATOM     18  H   LIG    1       27.508 -26.037   5.289  0.00  0.00    +0.118 HD
ENDBRANCH  15  16
ENDBRANCH  14  15
ENDBRANCH  11  14
ENDBRANCH   7  11
ENDBRANCH   1   8
BRANCH   5  19
ATOM     19  N   LIG    1       26.454 -33.326   9.624  0.00  0.00    -0.325 NA
ATOM     20  H   LIG    1       26.278 -33.504   8.638  0.00  0.00    +0.118 HD
ATOM     21  H   LIG    1       25.850 -34.009  10.089  0.00  0.00    +0.118 HD
ENDBRANCH   5  19
BRANCH   3  22
ATOM     22  O   LIG    1       23.290 -30.292   8.902  0.00  0.00    -0.387 OA
ATOM     23  H   LIG    1       22.397 -30.676   9.011  0.00  0.00    +0.210 HD
ENDBRANCH   3  22
BRANCH   4  24
ATOM     24  O   LIG    1       24.102 -32.292  11.645  0.00  0.00    -0.341 OA
BRANCH  24  25
ATOM     25  C   LIG    1       22.936 -31.685  12.210  0.00  0.00    +0.282 C 
ATOM     26  C   LIG    1       23.125 -31.438  13.730  0.00  0.00    +0.201 C 
ATOM     27  C   LIG    1       21.827 -31.020  14.428  0.00  0.00    +0.179 C 
ATOM     28  C   LIG    1       20.636 -31.882  13.983  0.00  0.00    +0.175 C 
ATOM     29  C   LIG    1       20.565 -32.017  12.453  0.00  0.00    +0.166 C 
ATOM     30  O   LIG    1       21.818 -32.549  11.967  0.00  0.00    -0.342 OA
BRANCH  28  31
ATOM     31  O   LIG    1       20.747 -33.199  14.545  0.00  0.00    -0.387 OA
ATOM     32  H   LIG    1       21.693 -33.452  14.481  0.00  0.00    +0.210 HD
ENDBRANCH  28  31
BRANCH  27  33
ATOM     33  O   LIG    1       21.562 -29.637  14.168  0.00  0.00    -0.386 OA
ATOM     34  H   LIG    1       21.429 -29.205  15.036  0.00  0.00    +0.210 HD
ENDBRANCH  27  33
BRANCH  26  35
ATOM     35  O   LIG    1       23.633 -32.629  14.363  0.00  0.00    -0.384 OA
ATOM     36  H   LIG    1       22.895 -33.277  14.356  0.00  0.00    +0.210 HD
ENDBRANCH  26  35
BRANCH  29  37
ATOM     37  C   LIG    1       20.129 -30.705  11.750  0.00  0.00    +0.112 C 
BRANCH  37  38
ATOM     38  N   LIG    1       20.329 -30.746  10.297  0.00  0.00    -0.328 NA
ATOM     39  H   LIG    1       20.740 -29.859   9.997  0.00  0.00    +0.118 HD
ATOM     40  H   LIG    1       21.046 -31.440  10.083  0.00  0.00    +0.118 HD
ENDBRANCH  37  38
ENDBRANCH  29  37
ENDBRANCH  24  25
ENDBRANCH   4  24
BRANCH   2  41
ATOM     41  O   LIG    1       25.809 -29.515  11.545  0.00  0.00    -0.341 OA
BRANCH  41  42
ATOM     42  C   LIG    1       25.751 -28.432  12.499  0.00  0.00    +0.281 C 
ATOM     43  C   LIG    1       26.841 -27.426  12.049  0.00  0.00    +0.189 C 
ATOM     44  C   LIG    1       27.044 -26.263  13.042  0.00  0.00    +0.116 C 
ATOM     45  C   LIG    1       27.165 -26.831  14.476  0.00  0.00    +0.165 C 
ATOM     46  C   LIG    1       26.004 -27.788  14.821  0.00  0.00    +0.177 C 
ATOM     47  O   LIG    1       25.937 -28.858  13.848  0.00  0.00    -0.341 OA
BRANCH  44  48
ATOM     48  N   LIG    1       26.015 -25.207  12.945  0.00  0.00    -0.323 NA
ATOM     49  H   LIG    1       26.197 -24.665  12.095  0.00  0.00    +0.119 HD
ATOM     50  H   LIG    1       25.109 -25.650  12.768  0.00  0.00    +0.119 HD
ENDBRANCH  44  48
BRANCH  45  51
ATOM     51  O   LIG    1       28.413 -27.542  14.563  0.00  0.00    -0.388 OA
ATOM     52  H   LIG    1       28.223 -28.495  14.498  0.00  0.00    +0.210 HD
ENDBRANCH  45  51
BRANCH  43  53
ATOM     53  O   LIG    1       28.110 -28.083  11.874  0.00  0.00    -0.385 OA
ATOM     54  H   LIG    1       28.437 -28.271  12.780  0.00  0.00    +0.210 HD
ENDBRANCH  43  53
BRANCH  46  55
ATOM     55  C   LIG    1       24.679 -27.028  15.049  0.00  0.00    +0.190 C 
BRANCH  55  56
ATOM     56  O   LIG    1       23.604 -27.926  15.316  0.00  0.00    -0.392 OA
ATOM     57  H   LIG    1       23.367 -27.809  16.253  0.00  0.00    +0.209 HD
ENDBRANCH  55  56
ENDBRANCH  46  55
ENDBRANCH  41  42
ENDBRANCH   2  41
TORSDOF 22
ENDMDL
MODEL 3
REMARK VINA RESULT:      -5.5      1.098      1.859
REMARK  Name = *****
REMARK                            x       y       z     vdW  Elec       q    Type
REMARK                         _______ _______ _______ _____ _____    ______ ____
ROOT
ATOM      1  C   LIG    1       25.215 -29.000   6.268  0.00  0.00    +0.106 C 
ATOM      2  C   LIG    1       26.282 -28.250   7.114  0.00  0.00    +0.172 C 
ATOM      3  C   LIG    1       26.812 -27.038   6.288  0.00  0.00    +0.175 C 
ATOM      4  C   LIG    1       25.728 -25.951   6.034  0.00  0.00    +0.169 C 
ATOM      5  C   LIG    1       24.292 -26.553   6.159  0.00  0.00    +0.084 C 
ATOM      6  C   LIG    1       24.248 -27.992   5.596  0.00  0.00    +0.046 C 
ENDROOT
BRANCH   1   8
ATOM      7  C   LIG    1       26.016 -31.246   5.356  0.00  0.00    +0.242 C 
ATOM      8  N   LIG    1       25.753 -29.910   5.185  0.00  0.00    -0.308 N 
ATOM      9  H   LIG    1       25.363 -29.687   4.258  0.00  0.00    +0.149 HD
ATOM     10  O   LIG    1       26.031 -31.830   6.439  0.00  0.00    -0.273 OA
BRANCH   7  11
ATOM     11  C   LIG    1       26.281 -32.027   4.093  0.00  0.00    +0.201 C 
BRANCH  11  12
ATOM     12  O   LIG    1       27.251 -33.045   4.333  0.00  0.00    -0.383 OA
ATOM     13  H   LIG    1       27.177 -33.252   5.284  0.00  0.00    +0.210 HD
ENDBRANCH  11  12
BRANCH  11  14
ATOM     14  C   LIG    1       25.021 -32.607   3.429  0.00  0.00    +0.056 C 
BRANCH  14  15
ATOM     15  C   LIG    1       24.245 -33.649   4.230  0.00  0.00    +0.080 C 
BRANCH  15  16
ATOM     16  N   LIG    1       23.208 -33.053   5.070  0.00  0.00    -0.330 NA
ATOM     17  H   LIG    1       23.627 -32.871   5.986  0.00  0.00    +0.118 HD
ATOM     18  H   LIG    1       23.028 -32.087   4.746  0.00  0.00    +0.118 HD
ENDBRANCH  15  16
ENDBRANCH  14  15
ENDBRANCH  11  14
ENDBRANCH   7  11
ENDBRANCH   1   8
BRANCH   5  19
ATOM     19  N   LIG    1       23.261 -25.782   5.422  0.00  0.00    -0.325 NA
ATOM     20  H   LIG    1       22.373 -25.768   5.917  0.00  0.00    +0.118 HD
ATOM     21  H   LIG    1       23.032 -26.284   4.560  0.00  0.00    +0.118 HD
ENDBRANCH   5  19
BRANCH   3  22
ATOM     22  O   LIG    1       27.364 -27.437   5.015  0.00  0.00    -0.387 OA
ATOM     23  H   LIG    1       26.916 -28.256   4.720  0.00  0.00    +0.210 HD
ENDBRANCH   3  22
BRANCH   4  24
ATOM     24  O   LIG    1       26.009 -24.852   6.929  0.00  0.00    -0.341 OA
BRANCH  24  25
ATOM     25  C   LIG    1       25.806 -23.530   6.421  0.00  0.00    +0.282 C 
ATOM     26  C   LIG    1       26.578 -22.488   7.273  0.00  0.00    +0.201 C 
ATOM     27  C   LIG    1       26.203 -21.043   6.924  0.00  0.00    +0.179 C 
ATOM     28  C   LIG    1       24.683 -20.869   6.776  0.00  0.00    +0.175 C 
ATOM     29  C   LIG    1       24.064 -21.959   5.887  0.00  0.00    +0.166 C 
ATOM     30  O   LIG    1       24.399 -23.256   6.428  0.00  0.00    -0.342 OA
BRANCH  28  31
ATOM     31  O   LIG    1       24.055 -20.931   8.066  0.00  0.00    -0.387 OA
ATOM     32  H   LIG    1       24.179 -21.847   8.395  0.00  0.00    +0.210 HD
ENDBRANCH  28  31
BRANCH  27  33
ATOM     33  O   LIG    1       26.867 -20.649   5.719  0.00  0.00    -0.386 OA
ATOM     34  H   LIG    1       26.472 -21.172   4.993  0.00  0.00    +0.210 HD
ENDBRANCH  27  33
BRANCH  26  35
ATOM     35  O   LIG    1       26.324 -22.712   8.673  0.00  0.00    -0.384 OA
ATOM     36  H   LIG    1       26.310 -23.686   8.795  0.00  0.00    +0.210 HD
ENDBRANCH  26  35
BRANCH  29  37
ATOM     37  C   LIG    1       24.426 -21.794   4.388  0.00  0.00    +0.112 C 
BRANCH  37  38
ATOM     38  N   LIG    1       24.334 -20.403   3.931  0.00  0.00    -0.328 NA
ATOM     39  H   LIG    1       24.037 -20.398   2.952  0.00  0.00    +0.118 HD
ATOM     40  H   LIG    1       23.570 -19.943   4.428  0.00  0.00    +0.118 HD
ENDBRANCH  37  38
ENDBRANCH  29  37
ENDBRANCH  24  25
ENDBRANCH   4  24
BRANCH   2  41
ATOM     41  O   LIG    1       25.726 -27.772   8.353  0.00  0.00    -0.341 OA
BRANCH  41  42
ATOM     42  C   LIG    1       25.215 -28.751   9.285  0.00  0.00    +0.281 C 
ATOM     43  C   LIG    1       26.377 -29.028  10.272  0.00  0.00    +0.189 C 
ATOM     44  C   LIG    1       26.078 -30.175  11.259  0.00  0.00    +0.116 C 
ATOM     45  C   LIG    1       25.519 -31.388  10.478  0.00  0.00    +0.165 C 
ATOM     46  C   LIG    1       24.342 -30.994   9.559  0.00  0.00    +0.177 C 
ATOM     47  O   LIG    1       24.751 -29.943   8.652  0.00  0.00    -0.341 OA
BRANCH  44  48
ATOM     48  N   LIG    1       25.203 -29.784  12.383  0.00  0.00    -0.323 NA
ATOM     49  H   LIG    1       25.741 -29.878  13.250  0.00  0.00    +0.119 HD
ATOM     50  H   LIG    1       25.015 -28.779  12.316  0.00  0.00    +0.119 HD
ENDBRANCH  44  48
BRANCH  45  51
ATOM     51  O   LIG    1       26.588 -31.930   9.681  0.00  0.00    -0.388 OA
ATOM     52  H   LIG    1       26.288 -31.961   8.755  0.00  0.00    +0.210 HD
ENDBRANCH  45  51
BRANCH  43  53
ATOM     53  O   LIG    1       27.588 -29.360   9.565  0.00  0.00    -0.385 OA
ATOM     54  H   LIG    1       27.359 -30.125   8.996  0.00  0.00    +0.210 HD
ENDBRANCH  43  53
BRANCH  46  55
ATOM     55  C   LIG    1       23.056 -30.700  10.363  0.00  0.00    +0.190 C 
BRANCH  55  56
ATOM     56  O   LIG    1       22.892 -31.623  11.438  0.00  0.00    -0.392 OA
ATOM     57  H   LIG    1       21.981 -31.960  11.380  0.00  0.00    +0.209 HD
ENDBRANCH  55  56
ENDBRANCH  46  55
ENDBRANCH  41  42
ENDBRANCH   2  41
TORSDOF 22
ENDMDL
MODEL 4
REMARK VINA RESULT:      -5.5      3.393      7.998
REMARK  Name = *****
REMARK                            x       y       z     vdW  Elec       q    Type
REMARK                         _______ _______ _______ _____ _____    ______ ____
ROOT
ATOM      1  C   LIG    1       25.966 -30.080   8.358  0.00  0.00    +0.106 C 
ATOM      2  C   LIG    1       25.505 -29.611   9.766  0.00  0.00    +0.172 C 
ATOM      3  C   LIG    1       24.178 -30.346  10.128  0.00  0.00    +0.175 C 
ATOM      4  C   LIG    1       24.358 -31.881  10.304  0.00  0.00    +0.169 C 
ATOM      5  C   LIG    1       25.634 -32.384   9.556  0.00  0.00    +0.084 C 
ATOM      6  C   LIG    1       25.830 -31.618   8.227  0.00  0.00    +0.046 C 
ENDROOT
BRANCH   1   8
ATOM      7  C   LIG    1       25.366 -28.140   6.810  0.00  0.00    +0.242 C 
ATOM      8  N   LIG    1       25.243 -29.454   7.185  0.00  0.00    -0.308 N 
ATOM      9  H   LIG    1       25.163 -30.100   6.387  0.00  0.00    +0.149 HD
ATOM     10  O   LIG    1       25.920 -27.265   7.476  0.00  0.00    -0.273 OA
BRANCH   7  11
ATOM     11  C   LIG    1       24.785 -27.786   5.465  0.00  0.00    +0.201 C 
BRANCH  11  12
ATOM     12  O   LIG    1       23.815 -28.757   5.073  0.00  0.00    -0.383 OA
ATOM     13  H   LIG    1       24.122 -29.599   5.460  0.00  0.00    +0.210 HD
ENDBRANCH  11  12
BRANCH  11  14
ATOM     14  C   LIG    1       24.212 -26.362   5.374  0.00  0.00    +0.056 C 
BRANCH  14  15
ATOM     15  C   LIG    1       25.120 -25.299   4.763  0.00  0.00    +0.080 C 
BRANCH  15  16
ATOM     16  N   LIG    1       25.979 -24.656   5.755  0.00  0.00    -0.330 NA
ATOM     17  H   LIG    1       26.254 -25.376   6.430  0.00  0.00    +0.118 HD
ATOM     18  H   LIG    1       26.892 -24.441   5.320  0.00  0.00    +0.118 HD
ENDBRANCH  15  16
ENDBRANCH  14  15
ENDBRANCH  11  14
ENDBRANCH   7  11
ENDBRANCH   1   8
BRANCH   5  19
ATOM     19  N   LIG    1       25.586 -33.825   9.207  0.00  0.00    -0.325 NA
ATOM     20  H   LIG    1       24.712 -34.256   9.500  0.00  0.00    +0.118 HD
ATOM     21  H   LIG    1       26.282 -34.321   9.769  0.00  0.00    +0.118 HD
ENDBRANCH   5  19
BRANCH   3  22
ATOM     22  O   LIG    1       23.138 -30.118   9.152  0.00  0.00    -0.387 OA
ATOM     23  H   LIG    1       23.424 -29.404   8.547  0.00  0.00    +0.210 HD
ENDBRANCH   3  22
BRANCH   4  24
ATOM     24  O   LIG    1       24.336 -32.153  11.722  0.00  0.00    -0.341 OA
BRANCH  24  25
ATOM     25  C   LIG    1       23.331 -31.490  12.497  0.00  0.00    +0.282 C 
ATOM     26  C   LIG    1       23.363 -31.974  13.970  0.00  0.00    +0.201 C 
ATOM     27  C   LIG    1       22.159 -31.483  14.781  0.00  0.00    +0.179 C 
ATOM     28  C   LIG    1       20.844 -31.638  14.001  0.00  0.00    +0.175 C 
ATOM     29  C   LIG    1       20.959 -31.093  12.568  0.00  0.00    +0.166 C 
ATOM     30  O   LIG    1       22.055 -31.754  11.898  0.00  0.00    -0.342 OA
BRANCH  28  31
ATOM     31  O   LIG    1       20.480 -33.025  13.926  0.00  0.00    -0.387 OA
ATOM     32  H   LIG    1       20.088 -33.259  14.795  0.00  0.00    +0.210 HD
ENDBRANCH  28  31
BRANCH  27  33
ATOM     33  O   LIG    1       22.355 -30.115  15.156  0.00  0.00    -0.386 OA
ATOM     34  H   LIG    1       21.567 -29.622  14.852  0.00  0.00    +0.210 HD
ENDBRANCH  27  33
BRANCH  26  35
ATOM     35  O   LIG    1       23.400 -33.414  14.014  0.00  0.00    -0.384 OA
ATOM     36  H   LIG    1       22.695 -33.723  13.405  0.00  0.00    +0.210 HD
ENDBRANCH  26  35
BRANCH  29  37
ATOM     37  C   LIG    1       21.036 -29.545  12.514  0.00  0.00    +0.112 C 
BRANCH  37  38
ATOM     38  N   LIG    1       19.993 -28.896  13.315  0.00  0.00    -0.328 NA
ATOM     39  H   LIG    1       20.159 -29.107  14.303  0.00  0.00    +0.118 HD
ATOM     40  H   LIG    1       20.109 -27.884  13.251  0.00  0.00    +0.118 HD
ENDBRANCH  37  38
ENDBRANCH  29  37
ENDBRANCH  24  25
ENDBRANCH   4  24
BRANCH   2  41
ATOM     41  O   LIG    1       26.497 -29.905  10.767  0.00  0.00    -0.341 OA
BRANCH  41  42
ATOM     42  C   LIG    1       26.732 -28.917  11.795  0.00  0.00    +0.281 C 
ATOM     43  C   LIG    1       27.369 -29.693  12.976  0.00  0.00    +0.189 C 
ATOM     44  C   LIG    1       27.551 -28.832  14.243  0.00  0.00    +0.116 C 
ATOM     45  C   LIG    1       26.238 -28.068  14.534  0.00  0.00    +0.165 C 
ATOM     46  C   LIG    1       25.723 -27.304  13.295  0.00  0.00    +0.177 C 
ATOM     47  O   LIG    1       25.551 -28.218  12.185  0.00  0.00    -0.341 OA
BRANCH  44  48
ATOM     48  N   LIG    1       28.721 -27.931  14.190  0.00  0.00    -0.323 NA
ATOM     49  H   LIG    1       28.654 -27.376  13.331  0.00  0.00    +0.119 HD
ATOM     50  H   LIG    1       28.634 -27.239  14.940  0.00  0.00    +0.119 HD
ENDBRANCH  44  48
BRANCH  45  51
ATOM     51  O   LIG    1       25.251 -29.031  14.947  0.00  0.00    -0.388 OA
ATOM     52  H   LIG    1       25.149 -29.684  14.232  0.00  0.00    +0.210 HD
ENDBRANCH  45  51
BRANCH  43  53
ATOM     53  O   LIG    1       26.571 -30.838  13.332  0.00  0.00    -0.385 OA
ATOM     54  H   LIG    1       26.302 -30.692  14.264  0.00  0.00    +0.210 HD
ENDBRANCH  43  53
BRANCH  46  55
ATOM     55  C   LIG    1       26.582 -26.058  12.988  0.00  0.00    +0.190 C 
BRANCH  55  56
ATOM     56  O   LIG    1       25.864 -24.854  13.250  0.00  0.00    -0.392 OA
ATOM     57  H   LIG    1       26.501 -24.226  13.634  0.00  0.00    +0.209 HD
ENDBRANCH  55  56
ENDBRANCH  46  55
ENDBRANCH  41  42
ENDBRANCH   2  41
TORSDOF 22
ENDMDL
MODEL 5
REMARK VINA RESULT:      -5.4      2.415      6.898
REMARK  Name = *****
REMARK                            x       y       z     vdW  Elec       q    Type
REMARK                         _______ _______ _______ _____ _____    ______ ____
ROOT
ATOM      1  C   LIG    1       25.221 -31.570   7.935  0.00  0.00    +0.106 C 
ATOM      2  C   LIG    1       24.463 -30.223   8.098  0.00  0.00    +0.172 C 
ATOM      3  C   LIG    1       23.438 -30.364   9.265  0.00  0.00    +0.175 C 
ATOM      4  C   LIG    1       24.115 -30.564  10.652  0.00  0.00    +0.169 C 
ATOM      5  C   LIG    1       25.566 -31.123  10.491  0.00  0.00    +0.084 C 
ATOM      6  C   LIG    1       25.640 -32.128   9.318  0.00  0.00    +0.046 C 
ENDROOT
BRANCH   1   8
ATOM      7  C   LIG    1       23.654 -32.458   6.124  0.00  0.00    +0.242 C 
ATOM      8  N   LIG    1       24.469 -32.665   7.209  0.00  0.00    -0.308 N 
ATOM      9  H   LIG    1       25.013 -33.538   7.148  0.00  0.00    +0.149 HD
ATOM     10  O   LIG    1       23.281 -31.356   5.722  0.00  0.00    -0.273 OA
BRANCH   7  11
ATOM     11  C   LIG    1       23.223 -33.698   5.383  0.00  0.00    +0.201 C 
BRANCH  11  12
ATOM     12  O   LIG    1       21.802 -33.825   5.411  0.00  0.00    -0.383 OA
ATOM     13  H   LIG    1       21.556 -34.163   4.528  0.00  0.00    +0.210 HD
ENDBRANCH  11  12
BRANCH  11  14
ATOM     14  C   LIG    1       23.761 -33.799   3.945  0.00  0.00    +0.056 C 
BRANCH  14  15
ATOM     15  C   LIG    1       25.256 -33.564   3.757  0.00  0.00    +0.080 C 
BRANCH  15  16
ATOM     16  N   LIG    1       25.646 -32.183   4.036  0.00  0.00    -0.330 NA
ATOM     17  H   LIG    1       26.562 -32.033   3.603  0.00  0.00    +0.118 HD
ATOM     18  H   LIG    1       25.059 -31.548   3.470  0.00  0.00    +0.118 HD
ENDBRANCH  15  16
ENDBRANCH  14  15
ENDBRANCH  11  14
ENDBRANCH   7  11
ENDBRANCH   1   8
BRANCH   5  19
ATOM     19  N   LIG    1       26.059 -31.840  11.691  0.00  0.00    -0.325 NA
ATOM     20  H   LIG    1       25.907 -31.303  12.542  0.00  0.00    +0.118 HD
ATOM     21  H   LIG    1       27.080 -31.900  11.640  0.00  0.00    +0.118 HD
ENDBRANCH   5  19
BRANCH   3  22
ATOM     22  O   LIG    1       22.507 -31.447   9.053  0.00  0.00    -0.387 OA
ATOM     23  H   LIG    1       21.599 -31.082   9.030  0.00  0.00    +0.210 HD
ENDBRANCH   3  22
BRANCH   4  24
ATOM     24  O   LIG    1       24.021 -29.307  11.357  0.00  0.00    -0.341 OA
BRANCH  24  25
ATOM     25  C   LIG    1       25.095 -28.975  12.243  0.00  0.00    +0.282 C 
ATOM     26  C   LIG    1       24.561 -28.255  13.509  0.00  0.00    +0.201 C 
ATOM     27  C   LIG    1       25.681 -27.663  14.371  0.00  0.00    +0.179 C 
ATOM     28  C   LIG    1       26.733 -26.936  13.519  0.00  0.00    +0.175 C 
ATOM     29  C   LIG    1       27.182 -27.781  12.317  0.00  0.00    +0.166 C 
ATOM     30  O   LIG    1       26.023 -28.144  11.534  0.00  0.00    -0.342 OA
BRANCH  28  31
ATOM     31  O   LIG    1       26.192 -25.702  13.023  0.00  0.00    -0.387 OA
ATOM     32  H   LIG    1       26.087 -25.109  13.798  0.00  0.00    +0.210 HD
ENDBRANCH  28  31
BRANCH  27  33
ATOM     33  O   LIG    1       26.299 -28.702  15.140  0.00  0.00    -0.386 OA
ATOM     34  H   LIG    1       27.116 -28.957  14.667  0.00  0.00    +0.210 HD
ENDBRANCH  27  33
BRANCH  26  35
ATOM     35  O   LIG    1       23.656 -27.200  13.131  0.00  0.00    -0.384 OA
ATOM     36  H   LIG    1       24.196 -26.380  13.090  0.00  0.00    +0.210 HD
ENDBRANCH  26  35
BRANCH  29  37
ATOM     37  C   LIG    1       28.065 -28.990  12.723  0.00  0.00    +0.112 C 
BRANCH  37  38
ATOM     38  N   LIG    1       28.920 -29.462  11.629  0.00  0.00    -0.328 NA
ATOM     39  H   LIG    1       29.254 -28.651  11.101  0.00  0.00    +0.118 HD
ATOM     40  H   LIG    1       29.767 -29.870  12.025  0.00  0.00    +0.118 HD
ENDBRANCH  37  38
ENDBRANCH  29  37
ENDBRANCH  24  25
ENDBRANCH   4  24
BRANCH   2  41
ATOM     41  O   LIG    1       25.370 -29.145   8.392  0.00  0.00    -0.341 OA
BRANCH  41  42
ATOM     42  C   LIG    1       25.281 -27.950   7.585  0.00  0.00    +0.281 C 
ATOM     43  C   LIG    1       24.861 -28.434   6.174  0.00  0.00    +0.189 C 
ATOM     44  C   LIG    1       24.867 -27.310   5.117  0.00  0.00    +0.116 C 
ATOM     45  C   LIG    1       26.194 -26.519   5.219  0.00  0.00    +0.165 C 
ATOM     46  C   LIG    1       26.484 -26.058   6.664  0.00  0.00    +0.177 C 
ATOM     47  O   LIG    1       26.494 -27.199   7.557  0.00  0.00    -0.341 OA
BRANCH  44  48
ATOM     48  N   LIG    1       23.685 -26.427   5.177  0.00  0.00    -0.323 NA
ATOM     49  H   LIG    1       23.760 -25.746   4.415  0.00  0.00    +0.119 HD
ATOM     50  H   LIG    1       22.855 -26.976   4.937  0.00  0.00    +0.119 HD
ENDBRANCH  44  48
BRANCH  45  51
ATOM     51  O   LIG    1       27.255 -27.380   4.770  0.00  0.00    -0.388 OA
ATOM     52  H   LIG    1       27.494 -27.117   3.864  0.00  0.00    +0.210 HD
ENDBRANCH  45  51
BRANCH  43  53
ATOM     53  O   LIG    1       25.732 -29.482   5.707  0.00  0.00    -0.385 OA
ATOM     54  H   LIG    1       26.596 -29.051   5.536  0.00  0.00    +0.210 HD
ENDBRANCH  43  53
BRANCH  46  55
ATOM     55  C   LIG    1       25.558 -24.899   7.096  0.00  0.00    +0.190 C 
BRANCH  55  56
ATOM     56  O   LIG    1       25.350 -23.975   6.030  0.00  0.00    -0.392 OA
ATOM     57  H   LIG    1       26.063 -24.127   5.385  0.00  0.00    +0.209 HD
ENDBRANCH  55  56
ENDBRANCH  46  55
ENDBRANCH  41  42
ENDBRANCH   2  41
TORSDOF 22
ENDMDL
MODEL 6
REMARK VINA RESULT:      -5.4      4.376      8.633
REMARK  Name = *****
REMARK                            x       y       z     vdW  Elec       q    Type
REMARK                         _______ _______ _______ _____ _____    ______ ____
ROOT
ATOM      1  C   LIG    1       25.828 -30.118  13.876  0.00  0.00    +0.106 C 
ATOM      2  C   LIG    1       24.327 -29.947  13.509  0.00  0.00    +0.172 C 
ATOM      3  C   LIG    1       24.225 -29.089  12.210  0.00  0.00    +0.175 C 
ATOM      4  C   LIG    1       24.821 -29.800  10.960  0.00  0.00    +0.169 C 
ATOM      5  C   LIG    1       25.844 -30.904  11.379  0.00  0.00    +0.084 C 
ATOM      6  C   LIG    1       26.661 -30.457  12.614  0.00  0.00    +0.046 C 
ENDROOT
BRANCH   1   8
ATOM      7  C   LIG    1       27.723 -28.956  15.133  0.00  0.00    +0.242 C 
ATOM      8  N   LIG    1       26.481 -28.930  14.550  0.00  0.00    -0.308 N 
ATOM      9  H   LIG    1       26.277 -28.045  14.065  0.00  0.00    +0.149 HD
ATOM     10  O   LIG    1       28.380 -29.974  15.350  0.00  0.00    -0.273 OA
BRANCH   7  11
ATOM     11  C   LIG    1       28.301 -27.613  15.500  0.00  0.00    +0.201 C 
BRANCH  11  12
ATOM     12  O   LIG    1       29.502 -27.372  14.767  0.00  0.00    -0.383 OA
ATOM     13  H   LIG    1       29.535 -28.075  14.090  0.00  0.00    +0.210 HD
ENDBRANCH  11  12
BRANCH  11  14
ATOM     14  C   LIG    1       27.320 -26.437  15.357  0.00  0.00    +0.056 C 
BRANCH  14  15
ATOM     15  C   LIG    1       27.473 -25.568  14.112  0.00  0.00    +0.080 C 
BRANCH  15  16
ATOM     16  N   LIG    1       27.378 -26.338  12.874  0.00  0.00    -0.330 NA
ATOM     17  H   LIG    1       26.385 -26.405  12.633  0.00  0.00    +0.118 HD
ATOM     18  H   LIG    1       27.727 -25.759  12.091  0.00  0.00    +0.118 HD
ENDBRANCH  15  16
ENDBRANCH  14  15
ENDBRANCH  11  14
ENDBRANCH   7  11
ENDBRANCH   1   8
BRANCH   5  19
ATOM     19  N   LIG    1       26.830 -31.229  10.319  0.00  0.00    -0.325 NA
ATOM     20  H   LIG    1       26.536 -30.880   9.410  0.00  0.00    +0.118 HD
ATOM     21  H   LIG    1       26.838 -32.243  10.181  0.00  0.00    +0.118 HD
ENDBRANCH   5  19
BRANCH   3  22
ATOM     22  O   LIG    1       24.863 -27.801  12.349  0.00  0.00    -0.387 OA
ATOM     23  H   LIG    1       25.318 -27.582  11.511  0.00  0.00    +0.210 HD
ENDBRANCH   3  22
BRANCH   4  24
ATOM     24  O   LIG    1       23.709 -30.268  10.167  0.00  0.00    -0.341 OA
BRANCH  24  25
ATOM     25  C   LIG    1       23.854 -30.213   8.744  0.00  0.00    +0.282 C 
ATOM     26  C   LIG    1       23.833 -31.638   8.132  0.00  0.00    +0.201 C 
ATOM     27  C   LIG    1       24.227 -31.652   6.651  0.00  0.00    +0.179 C 
ATOM     28  C   LIG    1       25.456 -30.771   6.380  0.00  0.00    +0.175 C 
ATOM     29  C   LIG    1       25.323 -29.384   7.028  0.00  0.00    +0.166 C 
ATOM     30  O   LIG    1       25.087 -29.545   8.444  0.00  0.00    -0.342 OA
BRANCH  28  31
ATOM     31  O   LIG    1       26.635 -31.400   6.905  0.00  0.00    -0.387 OA
ATOM     32  H   LIG    1       26.983 -31.983   6.196  0.00  0.00    +0.210 HD
ENDBRANCH  28  31
BRANCH  27  33
ATOM     33  O   LIG    1       23.121 -31.220   5.852  0.00  0.00    -0.386 OA
ATOM     34  H   LIG    1       23.347 -31.421   4.922  0.00  0.00    +0.210 HD
ENDBRANCH  27  33
BRANCH  26  35
ATOM     35  O   LIG    1       24.726 -32.500   8.862  0.00  0.00    -0.384 OA
ATOM     36  H   LIG    1       24.999 -31.998   9.660  0.00  0.00    +0.210 HD
ENDBRANCH  26  35
BRANCH  29  37
ATOM     37  C   LIG    1       24.277 -28.483   6.319  0.00  0.00    +0.112 C 
BRANCH  37  38
ATOM     38  N   LIG    1       24.221 -28.711   4.871  0.00  0.00    -0.328 NA
ATOM     39  H   LIG    1       25.168 -28.638   4.490  0.00  0.00    +0.118 HD
ATOM     40  H   LIG    1       23.955 -29.682   4.700  0.00  0.00    +0.118 HD
ENDBRANCH  37  38
ENDBRANCH  29  37
ENDBRANCH  24  25
ENDBRANCH   4  24
BRANCH   2  41
ATOM     41  O   LIG    1       23.695 -31.220  13.286  0.00  0.00    -0.341 OA
BRANCH  41  42
ATOM     42  C   LIG    1       22.256 -31.246  13.156  0.00  0.00    +0.281 C 
ATOM     43  C   LIG    1       21.935 -32.541  12.368  0.00  0.00    +0.189 C 
ATOM     44  C   LIG    1       20.445 -32.668  11.987  0.00  0.00    +0.116 C 
ATOM     45  C   LIG    1       19.959 -31.335  11.370  0.00  0.00    +0.165 C 
ATOM     46  C   LIG    1       20.303 -30.124  12.264  0.00  0.00    +0.177 C 
ATOM     47  O   LIG    1       21.728 -30.083  12.519  0.00  0.00    -0.341 OA
BRANCH  44  48
ATOM     48  N   LIG    1       19.580 -33.118  13.097  0.00  0.00    -0.323 NA
ATOM     49  H   LIG    1       18.972 -33.861  12.742  0.00  0.00    +0.119 HD
ATOM     50  H   LIG    1       20.164 -33.587  13.795  0.00  0.00    +0.119 HD
ENDBRANCH  44  48
BRANCH  45  51
ATOM     51  O   LIG    1       20.600 -31.182  10.091  0.00  0.00    -0.388 OA
ATOM     52  H   LIG    1       21.405 -30.650  10.218  0.00  0.00    +0.210 HD
ENDBRANCH  45  51
BRANCH  43  53
ATOM     53  O   LIG    1       22.708 -32.612  11.154  0.00  0.00    -0.385 OA
ATOM     54  H   LIG    1       23.596 -32.926  11.425  0.00  0.00    +0.210 HD
ENDBRANCH  43  53
BRANCH  46  55
ATOM     55  C   LIG    1       19.411 -30.066  13.524  0.00  0.00    +0.190 C 
BRANCH  55  56
ATOM     56  O   LIG    1       18.041 -30.298  13.202  0.00  0.00    -0.392 OA
ATOM     57  H   LIG    1       17.557 -30.333  14.046  0.00  0.00    +0.209 HD
ENDBRANCH  55  56
ENDBRANCH  46  55
ENDBRANCH  41  42
ENDBRANCH   2  41
TORSDOF 22
ENDMDL
MODEL 7
REMARK VINA RESULT:      -5.3      3.481      7.728
REMARK  Name = *****
REMARK                            x       y       z     vdW  Elec       q    Type
REMARK                         _______ _______ _______ _____ _____    ______ ____
ROOT
ATOM      1  C   LIG    1       23.883 -22.829   6.868  0.00  0.00    +0.106 C 
ATOM      2  C   LIG    1       25.180 -23.410   6.239  0.00  0.00    +0.172 C 
ATOM      3  C   LIG    1       26.147 -22.232   5.910  0.00  0.00    +0.175 C 
ATOM      4  C   LIG    1       26.664 -21.494   7.179  0.00  0.00    +0.169 C 
ATOM      5  C   LIG    1       25.701 -21.719   8.389  0.00  0.00    +0.084 C 
ATOM      6  C   LIG    1       24.227 -21.746   7.921  0.00  0.00    +0.046 C 
ENDROOT
BRANCH   1   8
ATOM      7  C   LIG    1       22.714 -20.875   5.710  0.00  0.00    +0.242 C 
ATOM      8  N   LIG    1       22.893 -22.223   5.895  0.00  0.00    -0.308 N 
ATOM      9  H   LIG    1       22.821 -22.767   5.023  0.00  0.00    +0.149 HD
ATOM     10  O   LIG    1       23.186 -19.995   6.430  0.00  0.00    -0.273 OA
BRANCH   7  11
ATOM     11  C   LIG    1       21.889 -20.484   4.510  0.00  0.00    +0.201 C 
BRANCH  11  12
ATOM     12  O   LIG    1       20.666 -21.218   4.488  0.00  0.00    -0.383 OA
ATOM     13  H   LIG    1       20.324 -21.176   5.402  0.00  0.00    +0.210 HD
ENDBRANCH  11  12
BRANCH  11  14
ATOM     14  C   LIG    1       21.632 -18.973   4.381  0.00  0.00    +0.056 C 
BRANCH  14  15
ATOM     15  C   LIG    1       22.810 -18.115   3.928  0.00  0.00    +0.080 C 
BRANCH  15  16
ATOM     16  N   LIG    1       23.989 -18.912   3.596  0.00  0.00    -0.330 NA
ATOM     17  H   LIG    1       23.679 -19.673   2.986  0.00  0.00    +0.118 HD
ATOM     18  H   LIG    1       24.585 -18.373   2.945  0.00  0.00    +0.118 HD
ENDBRANCH  15  16
ENDBRANCH  14  15
ENDBRANCH  11  14
ENDBRANCH   7  11
ENDBRANCH   1   8
BRANCH   5  19
ATOM     19  N   LIG    1       25.794 -20.660   9.423  0.00  0.00    -0.325 NA
ATOM     20  H   LIG    1       26.117 -21.030  10.315  0.00  0.00    +0.118 HD
ATOM     21  H   LIG    1       24.849 -20.335   9.643  0.00  0.00    +0.118 HD
ENDBRANCH   5  19
BRANCH   3  22
ATOM     22  O   LIG    1       25.550 -21.258   5.028  0.00  0.00    -0.387 OA
ATOM     23  H   LIG    1       24.582 -21.401   5.009  0.00  0.00    +0.210 HD
ENDBRANCH   3  22
BRANCH   4  24
ATOM     24  O   LIG    1       28.026 -21.922   7.396  0.00  0.00    -0.341 OA
BRANCH  24  25
ATOM     25  C   LIG    1       29.051 -20.934   7.252  0.00  0.00    +0.282 C 
ATOM     26  C   LIG    1       30.233 -21.222   8.215  0.00  0.00    +0.201 C 
ATOM     27  C   LIG    1       31.240 -20.068   8.277  0.00  0.00    +0.179 C 
ATOM     28  C   LIG    1       30.539 -18.705   8.386  0.00  0.00    +0.175 C 
ATOM     29  C   LIG    1       29.408 -18.556   7.356  0.00  0.00    +0.166 C 
ATOM     30  O   LIG    1       28.475 -19.648   7.518  0.00  0.00    -0.342 OA
BRANCH  28  31
ATOM     31  O   LIG    1       29.975 -18.547   9.697  0.00  0.00    -0.387 OA
ATOM     32  H   LIG    1       30.013 -19.428  10.127  0.00  0.00    +0.210 HD
ENDBRANCH  28  31
BRANCH  27  33
ATOM     33  O   LIG    1       32.085 -20.100   7.122  0.00  0.00    -0.386 OA
ATOM     34  H   LIG    1       32.645 -19.300   7.158  0.00  0.00    +0.210 HD
ENDBRANCH  27  33
BRANCH  26  35
ATOM     35  O   LIG    1       29.736 -21.480   9.542  0.00  0.00    -0.384 OA
ATOM     36  H   LIG    1       28.907 -21.995   9.427  0.00  0.00    +0.210 HD
ENDBRANCH  26  35
BRANCH  29  37
ATOM     37  C   LIG    1       29.930 -18.392   5.904  0.00  0.00    +0.112 C 
BRANCH  37  38
ATOM     38  N   LIG    1       28.865 -18.053   4.954  0.00  0.00    -0.328 NA
ATOM     39  H   LIG    1       29.241 -17.403   4.258  0.00  0.00    +0.118 HD
ATOM     40  H   LIG    1       28.627 -18.887   4.415  0.00  0.00    +0.118 HD
ENDBRANCH  37  38
ENDBRANCH  29  37
ENDBRANCH  24  25
ENDBRANCH   4  24
BRANCH   2  41
ATOM     41  O   LIG    1       25.834 -24.323   7.140  0.00  0.00    -0.341 OA
BRANCH  41  42
ATOM     42  C   LIG    1       25.915 -25.712   6.752  0.00  0.00    +0.281 C 
ATOM     43  C   LIG    1       26.023 -25.704   5.206  0.00  0.00    +0.189 C 
ATOM     44  C   LIG    1       25.960 -27.114   4.583  0.00  0.00    +0.116 C 
ATOM     45  C   LIG    1       24.772 -27.891   5.197  0.00  0.00    +0.165 C 
ATOM     46  C   LIG    1       24.795 -27.860   6.741  0.00  0.00    +0.177 C 
ATOM     47  O   LIG    1       24.810 -26.490   7.210  0.00  0.00    -0.341 OA
BRANCH  44  48
ATOM     48  N   LIG    1       27.229 -27.866   4.677  0.00  0.00    -0.323 NA
ATOM     49  H   LIG    1       27.317 -28.443   3.836  0.00  0.00    +0.119 HD
ATOM     50  H   LIG    1       28.007 -27.204   4.606  0.00  0.00    +0.119 HD
ENDBRANCH  44  48
BRANCH  45  51
ATOM     51  O   LIG    1       23.557 -27.284   4.724  0.00  0.00    -0.388 OA
ATOM     52  H   LIG    1       23.065 -26.952   5.496  0.00  0.00    +0.210 HD
ENDBRANCH  45  51
BRANCH  43  53
ATOM     53  O   LIG    1       24.969 -24.916   4.619  0.00  0.00    -0.385 OA
ATOM     54  H   LIG    1       25.385 -24.062   4.372  0.00  0.00    +0.210 HD
ENDBRANCH  43  53
BRANCH  46  55
ATOM     55  C   LIG    1       25.908 -28.761   7.319  0.00  0.00    +0.190 C 
BRANCH  55  56
ATOM     56  O   LIG    1       25.935 -30.033   6.675  0.00  0.00    -0.392 OA
ATOM     57  H   LIG    1       25.659 -30.690   7.339  0.00  0.00    +0.209 HD
ENDBRANCH  55  56
ENDBRANCH  46  55
ENDBRANCH  41  42
ENDBRANCH   2  41
TORSDOF 22
ENDMDL
MODEL 8
REMARK VINA RESULT:      -5.2      2.898      7.389
REMARK  Name = *****
REMARK                            x       y       z     vdW  Elec       q    Type
REMARK                         _______ _______ _______ _____ _____    ______ ____
ROOT
ATOM      1  C   LIG    1       25.311 -31.561   7.892  0.00  0.00    +0.106 C 
ATOM      2  C   LIG    1       24.510 -30.240   8.066  0.00  0.00    +0.172 C 
ATOM      3  C   LIG    1       23.465 -30.436   9.207  0.00  0.00    +0.175 C 
ATOM      4  C   LIG    1       24.117 -30.646  10.604  0.00  0.00    +0.169 C 
ATOM      5  C   LIG    1       25.587 -31.159  10.464  0.00  0.00    +0.084 C 
ATOM      6  C   LIG    1       25.716 -32.137   9.272  0.00  0.00    +0.046 C 
ENDROOT
BRANCH   1   8
ATOM      7  C   LIG    1       23.736 -32.448   6.088  0.00  0.00    +0.242 C 
ATOM      8  N   LIG    1       24.608 -32.662   7.126  0.00  0.00    -0.308 N 
ATOM      9  H   LIG    1       25.207 -33.488   6.991  0.00  0.00    +0.149 HD
ATOM     10  O   LIG    1       23.272 -31.354   5.770  0.00  0.00    -0.273 OA
BRANCH   7  11
ATOM     11  C   LIG    1       23.363 -33.670   5.286  0.00  0.00    +0.201 C 
BRANCH  11  12
ATOM     12  O   LIG    1       21.944 -33.825   5.251  0.00  0.00    -0.383 OA
ATOM     13  H   LIG    1       21.700 -34.160   6.135  0.00  0.00    +0.210 HD
ENDBRANCH  11  12
BRANCH  11  14
ATOM     14  C   LIG    1       23.960 -33.708   3.869  0.00  0.00    +0.056 C 
BRANCH  14  15
ATOM     15  C   LIG    1       25.423 -33.299   3.734  0.00  0.00    +0.080 C 
BRANCH  15  16
ATOM     16  N   LIG    1       25.901 -33.368   2.355  0.00  0.00    -0.330 NA
ATOM     17  H   LIG    1       25.153 -33.788   1.795  0.00  0.00    +0.118 HD
ATOM     18  H   LIG    1       25.924 -32.413   1.959  0.00  0.00    +0.118 HD
ENDBRANCH  15  16
ENDBRANCH  14  15
ENDBRANCH  11  14
ENDBRANCH   7  11
ENDBRANCH   1   8
BRANCH   5  19
ATOM     19  N   LIG    1       26.075 -31.888  11.660  0.00  0.00    -0.325 NA
ATOM     20  H   LIG    1       25.464 -31.750  12.462  0.00  0.00    +0.118 HD
ATOM     21  H   LIG    1       26.952 -31.461  11.967  0.00  0.00    +0.118 HD
ENDBRANCH   5  19
BRANCH   3  22
ATOM     22  O   LIG    1       22.570 -31.540   8.951  0.00  0.00    -0.387 OA
ATOM     23  H   LIG    1       21.695 -31.333   9.335  0.00  0.00    +0.210 HD
ENDBRANCH   3  22
BRANCH   4  24
ATOM     24  O   LIG    1       23.971 -29.408  11.333  0.00  0.00    -0.341 OA
BRANCH  24  25
ATOM     25  C   LIG    1       22.723 -29.187  11.998  0.00  0.00    +0.282 C 
ATOM     26  C   LIG    1       22.709 -27.802  12.696  0.00  0.00    +0.201 C 
ATOM     27  C   LIG    1       21.501 -27.617  13.621  0.00  0.00    +0.179 C 
ATOM     28  C   LIG    1       21.250 -28.861  14.486  0.00  0.00    +0.175 C 
ATOM     29  C   LIG    1       21.269 -30.153  13.654  0.00  0.00    +0.166 C 
ATOM     30  O   LIG    1       22.528 -30.242  12.948  0.00  0.00    -0.342 OA
BRANCH  28  31
ATOM     31  O   LIG    1       22.261 -28.965  15.500  0.00  0.00    -0.387 OA
ATOM     32  H   LIG    1       22.689 -29.840  15.381  0.00  0.00    +0.210 HD
ENDBRANCH  28  31
BRANCH  27  33
ATOM     33  O   LIG    1       20.339 -27.311  12.842  0.00  0.00    -0.386 OA
ATOM     34  H   LIG    1       19.629 -27.912  13.145  0.00  0.00    +0.210 HD
ENDBRANCH  27  33
BRANCH  26  35
ATOM     35  O   LIG    1       23.916 -27.625  13.463  0.00  0.00    -0.384 OA
ATOM     36  H   LIG    1       23.969 -28.396  14.069  0.00  0.00    +0.210 HD
ENDBRANCH  26  35
BRANCH  29  37
ATOM     37  C   LIG    1       20.028 -30.300  12.735  0.00  0.00    +0.112 C 
BRANCH  37  38
ATOM     38  N   LIG    1       18.786 -29.869  13.387  0.00  0.00    -0.328 NA
ATOM     39  H   LIG    1       17.996 -30.118  12.785  0.00  0.00    +0.118 HD
ATOM     40  H   LIG    1       18.645 -30.427  14.230  0.00  0.00    +0.118 HD
ENDBRANCH  37  38
ENDBRANCH  29  37
ENDBRANCH  24  25
ENDBRANCH   4  24
BRANCH   2  41
ATOM     41  O   LIG    1       25.379 -29.143   8.403  0.00  0.00    -0.341 OA
BRANCH  41  42
ATOM     42  C   LIG    1       25.281 -27.938   7.612  0.00  0.00    +0.281 C 
ATOM     43  C   LIG    1       24.846 -28.405   6.199  0.00  0.00    +0.189 C 
ATOM     44  C   LIG    1       24.840 -27.267   5.157  0.00  0.00    +0.116 C 
ATOM     45  C   LIG    1       26.167 -26.477   5.256  0.00  0.00    +0.165 C 
ATOM     46  C   LIG    1       26.472 -26.034   6.703  0.00  0.00    +0.177 C 
ATOM     47  O   LIG    1       26.493 -27.185   7.581  0.00  0.00    -0.341 OA
BRANCH  44  48
ATOM     48  N   LIG    1       23.657 -26.386   5.241  0.00  0.00    -0.323 NA
ATOM     49  H   LIG    1       23.864 -25.643   5.915  0.00  0.00    +0.119 HD
ATOM     50  H   LIG    1       23.556 -25.891   4.350  0.00  0.00    +0.119 HD
ENDBRANCH  44  48
BRANCH  45  51
ATOM     51  O   LIG    1       27.224 -27.331   4.784  0.00  0.00    -0.388 OA
ATOM     52  H   LIG    1       26.896 -27.817   4.007  0.00  0.00    +0.210 HD
ENDBRANCH  45  51
BRANCH  43  53
ATOM     53  O   LIG    1       25.713 -29.446   5.710  0.00  0.00    -0.385 OA
ATOM     54  H   LIG    1       26.589 -29.273   6.116  0.00  0.00    +0.210 HD
ENDBRANCH  43  53
BRANCH  46  55
ATOM     55  C   LIG    1       25.550 -24.881   7.160  0.00  0.00    +0.190 C 
BRANCH  55  56
ATOM     56  O   LIG    1       25.961 -23.635   6.602  0.00  0.00    -0.392 OA
ATOM     57  H   LIG    1       26.115 -23.789   5.653  0.00  0.00    +0.209 HD
ENDBRANCH  55  56
ENDBRANCH  46  55
ENDBRANCH  41  42
ENDBRANCH   2  41
TORSDOF 22
ENDMDL
MODEL 9
REMARK VINA RESULT:      -5.1      4.513      8.422
REMARK  Name = *****
REMARK                            x       y       z     vdW  Elec       q    Type
REMARK                         _______ _______ _______ _____ _____    ______ ____
ROOT
ATOM      1  C   LIG    1       21.765 -31.430  11.450  0.00  0.00    +0.106 C 
ATOM      2  C   LIG    1       22.558 -30.275  10.776  0.00  0.00    +0.172 C 
ATOM      3  C   LIG    1       22.922 -29.219  11.864  0.00  0.00    +0.175 C 
ATOM      4  C   LIG    1       23.916 -29.760  12.933  0.00  0.00    +0.169 C 
ATOM      5  C   LIG    1       23.874 -31.320  12.997  0.00  0.00    +0.084 C 
ATOM      6  C   LIG    1       22.432 -31.840  12.787  0.00  0.00    +0.046 C 
ENDROOT
BRANCH   1   8
ATOM      7  C   LIG    1       19.258 -31.777  11.109  0.00  0.00    +0.242 C 
ATOM      8  N   LIG    1       20.305 -31.148  11.735  0.00  0.00    -0.308 N 
ATOM      9  H   LIG    1       20.131 -30.962  12.733  0.00  0.00    +0.149 HD
ATOM     10  O   LIG    1       19.359 -32.501  10.120  0.00  0.00    -0.273 OA
BRANCH   7  11
ATOM     11  C   LIG    1       17.900 -31.555  11.726  0.00  0.00    +0.201 C 
BRANCH  11  12
ATOM     12  O   LIG    1       17.080 -32.709  11.548  0.00  0.00    -0.383 OA
ATOM     13  H   LIG    1       17.593 -33.450  11.923  0.00  0.00    +0.210 HD
ENDBRANCH  11  12
BRANCH  11  14
ATOM     14  C   LIG    1       17.934 -31.122  13.202  0.00  0.00    +0.056 C 
BRANCH  14  15
ATOM     15  C   LIG    1       16.643 -30.546  13.775  0.00  0.00    +0.080 C 
BRANCH  15  16
ATOM     16  N   LIG    1       15.776 -29.977  12.745  0.00  0.00    -0.330 NA
ATOM     17  H   LIG    1       16.055 -29.000  12.619  0.00  0.00    +0.118 HD
ATOM     18  H   LIG    1       16.043 -30.372  11.827  0.00  0.00    +0.118 HD
ENDBRANCH  15  16
ENDBRANCH  14  15
ENDBRANCH  11  14
ENDBRANCH   7  11
ENDBRANCH   1   8
BRANCH   5  19
ATOM     19  N   LIG    1       24.334 -31.871  14.295  0.00  0.00    -0.325 NA
ATOM     20  H   LIG    1       25.302 -32.180  14.252  0.00  0.00    +0.118 HD
ATOM     21  H   LIG    1       23.827 -32.741  14.479  0.00  0.00    +0.118 HD
ENDBRANCH   5  19
BRANCH   3  22
ATOM     22  O   LIG    1       21.757 -28.703  12.544  0.00  0.00    -0.387 OA
ATOM     23  H   LIG    1       21.987 -27.848  12.959  0.00  0.00    +0.210 HD
ENDBRANCH   3  22
BRANCH   4  24
ATOM     24  O   LIG    1       25.211 -29.196  12.633  0.00  0.00    -0.341 OA
BRANCH  24  25
ATOM     25  C   LIG    1       25.489 -27.890  13.147  0.00  0.00    +0.282 C 
ATOM     26  C   LIG    1       26.636 -27.216  12.350  0.00  0.00    +0.201 C 
ATOM     27  C   LIG    1       27.135 -25.925  13.008  0.00  0.00    +0.179 C 
ATOM     28  C   LIG    1       27.314 -26.090  14.525  0.00  0.00    +0.175 C 
ATOM     29  C   LIG    1       26.089 -26.749  15.179  0.00  0.00    +0.166 C 
ATOM     30  O   LIG    1       25.833 -28.016  14.533  0.00  0.00    -0.342 OA
BRANCH  28  31
ATOM     31  O   LIG    1       28.462 -26.908  14.797  0.00  0.00    -0.387 OA
ATOM     32  H   LIG    1       28.247 -27.438  15.594  0.00  0.00    +0.210 HD
ENDBRANCH  28  31
BRANCH  27  33
ATOM     33  O   LIG    1       26.224 -24.857  12.729  0.00  0.00    -0.386 OA
ATOM     34  H   LIG    1       25.961 -24.476  13.591  0.00  0.00    +0.210 HD
ENDBRANCH  27  33
BRANCH  26  35
ATOM     35  O   LIG    1       27.742 -28.128  12.213  0.00  0.00    -0.384 OA
ATOM     36  H   LIG    1       27.641 -28.789  12.933  0.00  0.00    +0.210 HD
ENDBRANCH  26  35
BRANCH  29  37
ATOM     37  C   LIG    1       24.853 -25.813  15.229  0.00  0.00    +0.112 C 
BRANCH  37  38
ATOM     38  N   LIG    1       25.210 -24.416  15.500  0.00  0.00    -0.328 NA
ATOM     39  H   LIG    1       25.691 -24.369  16.402  0.00  0.00    +0.118 HD
ATOM     40  H   LIG    1       25.914 -24.118  14.824  0.00  0.00    +0.118 HD
ENDBRANCH  37  38
ENDBRANCH  29  37
ENDBRANCH  24  25
ENDBRANCH   4  24
BRANCH   2  41
ATOM     41  O   LIG    1       23.767 -30.760  10.163  0.00  0.00    -0.341 OA
BRANCH  41  42
ATOM     42  C   LIG    1       23.922 -30.574   8.739  0.00  0.00    +0.281 C 
ATOM     43  C   LIG    1       24.060 -32.000   8.148  0.00  0.00    +0.189 C 
ATOM     44  C   LIG    1       24.397 -32.006   6.642  0.00  0.00    +0.116 C 
ATOM     45  C   LIG    1       25.560 -31.021   6.375  0.00  0.00    +0.165 C 
ATOM     46  C   LIG    1       25.289 -29.626   6.977  0.00  0.00    +0.177 C 
ATOM     47  O   LIG    1       25.029 -29.740   8.397  0.00  0.00    -0.341 OA
BRANCH  44  48
ATOM     48  N   LIG    1       23.233 -31.746   5.769  0.00  0.00    -0.323 NA
ATOM     49  H   LIG    1       23.572 -31.278   4.923  0.00  0.00    +0.119 HD
ATOM     50  H   LIG    1       22.874 -32.643   5.429  0.00  0.00    +0.119 HD
ENDBRANCH  44  48
BRANCH  45  51
ATOM     51  O   LIG    1       26.750 -31.575   6.965  0.00  0.00    -0.388 OA
ATOM     52  H   LIG    1       27.384 -31.760   6.250  0.00  0.00    +0.210 HD
ENDBRANCH  45  51
BRANCH  43  53
ATOM     53  O   LIG    1       25.087 -32.744   8.832  0.00  0.00    -0.385 OA
ATOM     54  H   LIG    1       24.853 -32.704   9.783  0.00  0.00    +0.210 HD
ENDBRANCH  43  53
BRANCH  46  55
ATOM     55  C   LIG    1       24.220 -28.850   6.177  0.00  0.00    +0.190 C 
BRANCH  55  56
ATOM     56  O   LIG    1       24.349 -29.082   4.776  0.00  0.00    -0.392 OA
ATOM     57  H   LIG    1       23.769 -29.834   4.561  0.00  0.00    +0.209 HD
ENDBRANCH  55  56
ENDBRANCH  46  55
ENDBRANCH  41  42
ENDBRANCH   2  41
TORSDOF 22
ENDMDL
