MODEL 1
REMARK VINA RESULT:      -7.7      0.000      0.000
REMARK  Name = *****
REMARK                            x       y       z     vdW  Elec       q    Type
REMARK                         _______ _______ _______ _____ _____    ______ ____
ROOT
ATOM      1  C   LIG    1       29.181 -19.666   7.130  0.00  0.00    +0.125 C 
ATOM      2  C   LIG    1       28.231 -20.886   6.928  0.00  0.00    +0.104 C 
ATOM      3  N   LIG    1       27.920 -20.327   5.585  0.00  0.00    -0.260 N 
ATOM      4  C   LIG    1       26.543 -20.276   5.426  0.00  0.00    +0.131 C 
ATOM      5  C   LIG    1       25.884 -20.714   6.515  0.00  0.00    +0.019 C 
ATOM      6  C   LIG    1       26.868 -21.082   7.610  0.00  0.00    +0.046 C 
ATOM      7  C   LIG    1       26.748 -20.247   8.880  0.00  0.00    +0.015 C 
ATOM      8  C   LIG    1       28.615 -19.170   5.798  0.00  0.00    +0.228 C 
ATOM      9  O   LIG    1       28.612 -18.095   5.217  0.00  0.00    -0.275 OA
ENDROOT
BRANCH   1  11
ATOM     10  C   LIG    1       31.444 -18.819   7.787  0.00  0.00    +0.038 C 
ATOM     11  C   LIG    1       30.666 -19.976   7.176  0.00  0.00    +0.125 C 
BRANCH  11  12
ATOM     12  O   LIG    1       30.831 -21.143   7.984  0.00  0.00    -0.391 OA
ATOM     13  H   LIG    1       31.125 -20.863   8.869  0.00  0.00    +0.210 HD
ENDBRANCH  11  12
ENDBRANCH   1  11
BRANCH   4  14
ATOM     14  C   LIG    1       25.971 -19.711   4.176  0.00  0.00    +0.352 C 
ATOM     15  O   LIG    1       25.213 -20.245   3.387  0.00  0.00    -0.244 OA
BRANCH  14  16
ATOM     16  O   LIG    1       26.429 -18.462   3.946  0.00  0.00    -0.476 OA
ATOM     17  H   LIG    1       25.805 -17.892   4.440  0.00  0.00    +0.295 HD
ENDBRANCH  14  16
ENDBRANCH   4  14
BRANCH   5  18
ATOM     18  S   LIG    1       24.180 -20.673   6.778  0.00  0.00    -0.122 S 
BRANCH  18  19
ATOM     19  C   LIG    1       23.516 -22.100   5.848  0.00  0.00    +0.067 C 
ATOM     20  C   LIG    1       24.549 -23.072   5.301  0.00  0.00    +0.044 C 
ATOM     21  C   LIG    1       24.146 -24.478   5.741  0.00  0.00    +0.142 C 
ATOM     22  N   LIG    1       22.832 -24.360   6.405  0.00  0.00    -0.305 NA
ATOM     23  H   LIG    1       22.103 -24.649   5.756  0.00  0.00    +0.123 HD
ATOM     24  C   LIG    1       22.635 -22.952   6.762  0.00  0.00    +0.096 C 
BRANCH  21  25
ATOM     25  C   LIG    1       25.220 -25.127   6.660  0.00  0.00    +0.232 C 
ATOM     26  N   LIG    1       25.351 -26.512   6.668  0.00  0.00    -0.306 N 
ATOM     27  C   LIG    1       24.462 -27.453   6.009  0.00  0.00    +0.131 C 
ATOM     28  C   LIG    1       26.401 -27.106   7.479  0.00  0.00    +0.131 C 
ATOM     29  O   LIG    1       26.007 -24.423   7.304  0.00  0.00    -0.274 OA
ENDBRANCH  21  25
ENDBRANCH  18  19
ENDBRANCH   5  18
TORSDOF 7
ENDMDL
MODEL 2
REMARK VINA RESULT:      -7.2      3.073      7.690
REMARK  Name = *****
REMARK                            x       y       z     vdW  Elec       q    Type
REMARK                         _______ _______ _______ _____ _____    ______ ____
ROOT
ATOM      1  C   LIG    1       24.288 -21.475   6.384  0.00  0.00    +0.125 C 
ATOM      2  C   LIG    1       25.075 -20.637   7.439  0.00  0.00    +0.104 C 
ATOM      3  N   LIG    1       25.783 -20.002   6.294  0.00  0.00    -0.260 N 
ATOM      4  C   LIG    1       27.149 -20.051   6.527  0.00  0.00    +0.131 C 
ATOM      5  C   LIG    1       27.451 -20.668   7.685  0.00  0.00    +0.019 C 
ATOM      6  C   LIG    1       26.186 -21.168   8.357  0.00  0.00    +0.046 C 
ATOM      7  C   LIG    1       26.108 -22.682   8.519  0.00  0.00    +0.015 C 
ATOM      8  C   LIG    1       25.228 -20.834   5.363  0.00  0.00    +0.228 C 
ATOM      9  O   LIG    1       25.528 -21.079   4.204  0.00  0.00    -0.275 OA
ENDROOT
BRANCH   1  11
ATOM     10  C   LIG    1       22.591 -19.911   5.414  0.00  0.00    +0.038 C 
ATOM     11  C   LIG    1       22.809 -21.163   6.252  0.00  0.00    +0.125 C 
BRANCH  11  12
ATOM     12  O   LIG    1       22.195 -22.281   5.609  0.00  0.00    -0.391 OA
ATOM     13  H   LIG    1       21.866 -21.992   4.739  0.00  0.00    +0.210 HD
ENDBRANCH  11  12
ENDBRANCH   1  11
BRANCH   4  14
ATOM     14  C   LIG    1       28.086 -19.517   5.504  0.00  0.00    +0.352 C 
ATOM     15  O   LIG    1       28.217 -18.365   5.133  0.00  0.00    -0.244 OA
BRANCH  14  16
ATOM     16  O   LIG    1       28.816 -20.504   4.942  0.00  0.00    -0.476 OA
ATOM     17  H   LIG    1       28.148 -21.051   4.481  0.00  0.00    +0.295 HD
ENDBRANCH  14  16
ENDBRANCH   4  14
BRANCH   5  18
ATOM     18  S   LIG    1       29.025 -21.065   8.265  0.00  0.00    -0.122 S 
BRANCH  18  19
ATOM     19  C   LIG    1       30.094 -19.677   7.742  0.00  0.00    +0.067 C 
ATOM     20  C   LIG    1       29.855 -18.354   8.453  0.00  0.00    +0.044 C 
ATOM     21  C   LIG    1       31.202 -17.852   8.972  0.00  0.00    +0.142 C 
ATOM     22  N   LIG    1       32.232 -18.778   8.456  0.00  0.00    -0.305 NA
ATOM     23  H   LIG    1       32.691 -18.352   7.653  0.00  0.00    +0.123 HD
ATOM     24  C   LIG    1       31.558 -20.009   8.034  0.00  0.00    +0.096 C 
BRANCH  21  25
ATOM     25  C   LIG    1       31.221 -17.747  10.523  0.00  0.00    +0.232 C 
ATOM     26  N   LIG    1       31.980 -16.745  11.119  0.00  0.00    -0.306 N 
ATOM     27  C   LIG    1       32.907 -15.861  10.436  0.00  0.00    +0.131 C 
ATOM     28  C   LIG    1       31.940 -16.612  12.567  0.00  0.00    +0.131 C 
ATOM     29  O   LIG    1       30.503 -18.480  11.214  0.00  0.00    -0.274 OA
ENDBRANCH  21  25
ENDBRANCH  18  19
ENDBRANCH   5  18
TORSDOF 7
ENDMDL
MODEL 3
REMARK VINA RESULT:      -7.1      4.492      9.461
REMARK  Name = *****
REMARK                            x       y       z     vdW  Elec       q    Type
REMARK                         _______ _______ _______ _____ _____    ______ ____
ROOT
ATOM      1  C   LIG    1       25.414 -31.747   9.506  0.00  0.00    +0.125 C 
ATOM      2  C   LIG    1       24.752 -30.337   9.422  0.00  0.00    +0.104 C 
ATOM      3  N   LIG    1       24.379 -30.679   8.023  0.00  0.00    -0.260 N 
ATOM      4  C   LIG    1       24.763 -29.641   7.188  0.00  0.00    +0.131 C 
ATOM      5  C   LIG    1       25.377 -28.646   7.855  0.00  0.00    +0.019 C 
ATOM      6  C   LIG    1       25.502 -29.000   9.325  0.00  0.00    +0.046 C 
ATOM      7  C   LIG    1       26.936 -29.120   9.830  0.00  0.00    +0.015 C 
ATOM      8  C   LIG    1       25.088 -31.847   8.016  0.00  0.00    +0.228 C 
ATOM      9  O   LIG    1       25.459 -32.572   7.105  0.00  0.00    -0.275 OA
ENDROOT
BRANCH   1  11
ATOM     10  C   LIG    1       23.722 -32.057  11.325  0.00  0.00    +0.038 C 
ATOM     11  C   LIG    1       24.741 -32.747  10.429  0.00  0.00    +0.125 C 
BRANCH  11  12
ATOM     12  O   LIG    1       24.081 -33.708   9.604  0.00  0.00    -0.391 OA
ATOM     13  H   LIG    1       23.133 -33.487   9.575  0.00  0.00    +0.210 HD
ENDBRANCH  11  12
ENDBRANCH   1  11
BRANCH   4  14
ATOM     14  C   LIG    1       24.539 -29.758   5.723  0.00  0.00    +0.352 C 
ATOM     15  O   LIG    1       25.354 -30.011   4.856  0.00  0.00    -0.244 OA
BRANCH  14  16
ATOM     16  O   LIG    1       23.253 -29.503   5.400  0.00  0.00    -0.476 OA
ATOM     17  H   LIG    1       22.885 -29.107   6.216  0.00  0.00    +0.295 HD
ENDBRANCH  14  16
ENDBRANCH   4  14
BRANCH   5  18
ATOM     18  S   LIG    1       26.134 -27.256   7.171  0.00  0.00    -0.122 S 
BRANCH  18  19
ATOM     19  C   LIG    1       24.828 -26.429   6.195  0.00  0.00    +0.067 C 
ATOM     20  C   LIG    1       24.287 -25.133   6.777  0.00  0.00    +0.044 C 
ATOM     21  C   LIG    1       24.350 -24.067   5.684  0.00  0.00    +0.142 C 
ATOM     22  N   LIG    1       24.780 -24.748   4.445  0.00  0.00    -0.305 NA
ATOM     23  H   LIG    1       23.966 -24.914   3.856  0.00  0.00    +0.123 HD
ATOM     24  C   LIG    1       25.376 -26.033   4.823  0.00  0.00    +0.096 C 
BRANCH  21  25
ATOM     25  C   LIG    1       25.294 -22.894   6.074  0.00  0.00    +0.232 C 
ATOM     26  N   LIG    1       25.063 -21.636   5.528  0.00  0.00    -0.306 N 
ATOM     27  C   LIG    1       24.105 -21.326   4.481  0.00  0.00    +0.131 C 
ATOM     28  C   LIG    1       25.909 -20.530   5.949  0.00  0.00    +0.131 C 
ATOM     29  O   LIG    1       26.177 -23.052   6.925  0.00  0.00    -0.274 OA
ENDBRANCH  21  25
ENDBRANCH  18  19
ENDBRANCH   5  18
TORSDOF 7
ENDMDL
MODEL 4
REMARK VINA RESULT:      -6.7      2.332      4.577
REMARK  Name = *****
REMARK                            x       y       z     vdW  Elec       q    Type
REMARK                         _______ _______ _______ _____ _____    ______ ____
ROOT
ATOM      1  C   LIG    1       24.868 -20.256   4.075  0.00  0.00    +0.125 C 
ATOM      2  C   LIG    1       24.263 -20.949   5.335  0.00  0.00    +0.104 C 
ATOM      3  N   LIG    1       25.406 -20.385   6.102  0.00  0.00    -0.260 N 
ATOM      4  C   LIG    1       25.996 -21.398   6.842  0.00  0.00    +0.131 C 
ATOM      5  C   LIG    1       25.400 -22.590   6.647  0.00  0.00    +0.019 C 
ATOM      6  C   LIG    1       24.287 -22.458   5.625  0.00  0.00    +0.046 C 
ATOM      7  C   LIG    1       24.492 -23.273   4.352  0.00  0.00    +0.015 C 
ATOM      8  C   LIG    1       26.042 -19.906   4.991  0.00  0.00    +0.228 C 
ATOM      9  O   LIG    1       27.187 -19.524   4.806  0.00  0.00    -0.275 OA
ENDROOT
BRANCH   1  11
ATOM     10  C   LIG    1       22.813 -18.847   4.324  0.00  0.00    +0.038 C 
ATOM     11  C   LIG    1       24.070 -19.098   3.503  0.00  0.00    +0.125 C 
BRANCH  11  12
ATOM     12  O   LIG    1       24.909 -17.942   3.545  0.00  0.00    -0.391 OA
ATOM     13  H   LIG    1       24.340 -17.151   3.547  0.00  0.00    +0.210 HD
ENDBRANCH  11  12
ENDBRANCH   1  11
BRANCH   4  14
ATOM     14  C   LIG    1       27.195 -21.100   7.668  0.00  0.00    +0.352 C 
ATOM     15  O   LIG    1       28.349 -21.426   7.462  0.00  0.00    -0.244 OA
BRANCH  14  16
ATOM     16  O   LIG    1       26.867 -20.409   8.781  0.00  0.00    -0.476 OA
ATOM     17  H   LIG    1       26.804 -19.484   8.468  0.00  0.00    +0.295 HD
ENDBRANCH  14  16
ENDBRANCH   4  14
BRANCH   5  18
ATOM     18  S   LIG    1       25.918 -24.117   7.258  0.00  0.00    -0.122 S 
BRANCH  18  19
ATOM     19  C   LIG    1       25.443 -25.333   5.979  0.00  0.00    +0.067 C 
ATOM     20  C   LIG    1       26.271 -26.607   5.938  0.00  0.00    +0.044 C 
ATOM     21  C   LIG    1       25.307 -27.792   5.964  0.00  0.00    +0.142 C 
ATOM     22  N   LIG    1       23.941 -27.236   5.875  0.00  0.00    -0.305 NA
ATOM     23  H   LIG    1       23.603 -27.333   4.920  0.00  0.00    +0.123 HD
ATOM     24  C   LIG    1       24.012 -25.814   6.224  0.00  0.00    +0.096 C 
BRANCH  21  25
ATOM     25  C   LIG    1       25.508 -28.674   7.230  0.00  0.00    +0.232 C 
ATOM     26  N   LIG    1       25.267 -30.041   7.143  0.00  0.00    -0.306 N 
ATOM     27  C   LIG    1       24.681 -30.730   6.006  0.00  0.00    +0.131 C 
ATOM     28  C   LIG    1       25.522 -30.867   8.312  0.00  0.00    +0.131 C 
ATOM     29  O   LIG    1       25.961 -28.186   8.272  0.00  0.00    -0.274 OA
ENDBRANCH  21  25
ENDBRANCH  18  19
ENDBRANCH   5  18
TORSDOF 7
ENDMDL
MODEL 5
REMARK VINA RESULT:      -6.0      5.490      9.946
REMARK  Name = *****
REMARK                            x       y       z     vdW  Elec       q    Type
REMARK                         _______ _______ _______ _____ _____    ______ ____
ROOT
ATOM      1  C   LIG    1       25.656 -29.453  13.030  0.00  0.00    +0.125 C 
ATOM      2  C   LIG    1       25.392 -28.806  11.636  0.00  0.00    +0.104 C 
ATOM      3  N   LIG    1       24.175 -29.658  11.555  0.00  0.00    -0.260 N 
ATOM      4  C   LIG    1       24.167 -30.317  10.334  0.00  0.00    +0.131 C 
ATOM      5  C   LIG    1       25.250 -30.029   9.588  0.00  0.00    +0.019 C 
ATOM      6  C   LIG    1       26.178 -29.101  10.349  0.00  0.00    +0.046 C 
ATOM      7  C   LIG    1       27.554 -29.685  10.650  0.00  0.00    +0.015 C 
ATOM      8  C   LIG    1       24.468 -30.355  12.693  0.00  0.00    +0.228 C 
ATOM      9  O   LIG    1       24.039 -31.408  13.140  0.00  0.00    -0.275 OA
ENDROOT
BRANCH   1  11
ATOM     10  C   LIG    1       25.364 -27.085  13.790  0.00  0.00    +0.038 C 
ATOM     11  C   LIG    1       25.507 -28.535  14.231  0.00  0.00    +0.125 C 
BRANCH  11  12
ATOM     12  O   LIG    1       24.331 -28.940  14.932  0.00  0.00    -0.391 OA
ATOM     13  H   LIG    1       24.555 -29.042  15.874  0.00  0.00    +0.210 HD
ENDBRANCH  11  12
ENDBRANCH   1  11
BRANCH   4  14
ATOM     14  C   LIG    1       23.069 -31.270  10.024  0.00  0.00    +0.352 C 
ATOM     15  O   LIG    1       21.950 -31.021   9.616  0.00  0.00    -0.244 OA
BRANCH  14  16
ATOM     16  O   LIG    1       23.432 -32.543  10.292  0.00  0.00    -0.476 OA
ATOM     17  H   LIG    1       23.334 -32.997   9.430  0.00  0.00    +0.295 HD
ENDBRANCH  14  16
ENDBRANCH   4  14
BRANCH   5  18
ATOM     18  S   LIG    1       25.690 -30.749   8.084  0.00  0.00    -0.122 S 
BRANCH  18  19
ATOM     19  C   LIG    1       24.572 -29.999   6.847  0.00  0.00    +0.067 C 
ATOM     20  C   LIG    1       24.141 -28.568   7.127  0.00  0.00    +0.044 C 
ATOM     21  C   LIG    1       24.415 -27.743   5.870  0.00  0.00    +0.142 C 
ATOM     22  N   LIG    1       24.861 -28.689   4.826  0.00  0.00    -0.305 NA
ATOM     23  H   LIG    1       24.083 -28.882   4.198  0.00  0.00    +0.123 HD
ATOM     24  C   LIG    1       25.271 -29.930   5.489  0.00  0.00    +0.096 C 
BRANCH  21  25
ATOM     25  C   LIG    1       25.455 -26.617   6.134  0.00  0.00    +0.232 C 
ATOM     26  N   LIG    1       24.998 -25.343   6.456  0.00  0.00    -0.306 N 
ATOM     27  C   LIG    1       23.615 -24.901   6.419  0.00  0.00    +0.131 C 
ATOM     28  C   LIG    1       25.976 -24.312   6.766  0.00  0.00    +0.131 C 
ATOM     29  O   LIG    1       26.666 -26.867   6.147  0.00  0.00    -0.274 OA
ENDBRANCH  21  25
ENDBRANCH  18  19
ENDBRANCH   5  18
TORSDOF 7
ENDMDL
MODEL 6
REMARK VINA RESULT:      -5.7      4.302      9.872
REMARK  Name = *****
REMARK                            x       y       z     vdW  Elec       q    Type
REMARK                         _______ _______ _______ _____ _____    ______ ____
ROOT
ATOM      1  C   LIG    1       23.924 -31.785   6.326  0.00  0.00    +0.125 C 
ATOM      2  C   LIG    1       25.183 -30.934   5.973  0.00  0.00    +0.104 C 
ATOM      3  N   LIG    1       25.597 -31.095   7.392  0.00  0.00    -0.260 N 
ATOM      4  C   LIG    1       25.917 -29.849   7.912  0.00  0.00    +0.131 C 
ATOM      5  C   LIG    1       25.744 -28.859   7.016  0.00  0.00    +0.019 C 
ATOM      6  C   LIG    1       25.197 -29.419   5.716  0.00  0.00    +0.046 C 
ATOM      7  C   LIG    1       23.816 -28.900   5.332  0.00  0.00    +0.015 C 
ATOM      8  C   LIG    1       24.430 -31.700   7.767  0.00  0.00    +0.228 C 
ATOM      9  O   LIG    1       23.932 -31.908   8.862  0.00  0.00    -0.275 OA
ENDROOT
BRANCH   1  11
ATOM     10  C   LIG    1       22.512 -33.825   5.988  0.00  0.00    +0.038 C 
ATOM     11  C   LIG    1       23.853 -33.165   5.699  0.00  0.00    +0.125 C 
BRANCH  11  12
ATOM     12  O   LIG    1       24.011 -32.999   4.289  0.00  0.00    -0.391 OA
ATOM     13  H   LIG    1       24.772 -33.534   4.001  0.00  0.00    +0.210 HD
ENDBRANCH  11  12
ENDBRANCH   1  11
BRANCH   4  14
ATOM     14  C   LIG    1       26.322 -29.733   9.337  0.00  0.00    +0.352 C 
ATOM     15  O   LIG    1       27.428 -29.894   9.820  0.00  0.00    -0.244 OA
BRANCH  14  16
ATOM     16  O   LIG    1       25.266 -29.446  10.128  0.00  0.00    -0.476 OA
ATOM     17  H   LIG    1       24.568 -29.182   9.493  0.00  0.00    +0.295 HD
ENDBRANCH  14  16
ENDBRANCH   4  14
BRANCH   5  18
ATOM     18  S   LIG    1       25.885 -27.166   7.307  0.00  0.00    -0.122 S 
BRANCH  18  19
ATOM     19  C   LIG    1       24.775 -26.375   6.088  0.00  0.00    +0.067 C 
ATOM     20  C   LIG    1       24.072 -25.111   6.557  0.00  0.00    +0.044 C 
ATOM     21  C   LIG    1       24.316 -24.025   5.510  0.00  0.00    +0.142 C 
ATOM     22  N   LIG    1       25.020 -24.668   4.381  0.00  0.00    -0.305 NA
ATOM     23  H   LIG    1       24.352 -24.855   3.635  0.00  0.00    +0.123 HD
ATOM     24  C   LIG    1       25.578 -25.934   4.863  0.00  0.00    +0.096 C 
BRANCH  21  25
ATOM     25  C   LIG    1       25.108 -22.822   6.096  0.00  0.00    +0.232 C 
ATOM     26  N   LIG    1       24.978 -21.574   5.496  0.00  0.00    -0.306 N 
ATOM     27  C   LIG    1       24.285 -21.299   4.250  0.00  0.00    +0.131 C 
ATOM     28  C   LIG    1       25.670 -20.442   6.091  0.00  0.00    +0.131 C 
ATOM     29  O   LIG    1       25.771 -22.950   7.133  0.00  0.00    -0.274 OA
ENDBRANCH  21  25
ENDBRANCH  18  19
ENDBRANCH   5  18
TORSDOF 7
ENDMDL
MODEL 7
REMARK VINA RESULT:      -5.7      6.310      9.743
REMARK  Name = *****
REMARK                            x       y       z     vdW  Elec       q    Type
REMARK                         _______ _______ _______ _____ _____    ______ ____
ROOT
ATOM      1  C   LIG    1       25.189 -27.727   5.769  0.00  0.00    +0.125 C 
ATOM      2  C   LIG    1       24.384 -28.945   6.319  0.00  0.00    +0.104 C 
ATOM      3  N   LIG    1       24.911 -28.589   7.664  0.00  0.00    -0.260 N 
ATOM      4  C   LIG    1       25.445 -29.725   8.255  0.00  0.00    +0.131 C 
ATOM      5  C   LIG    1       25.363 -30.805   7.455  0.00  0.00    +0.019 C 
ATOM      6  C   LIG    1       24.750 -30.424   6.120  0.00  0.00    +0.046 C 
ATOM      7  C   LIG    1       25.670 -30.620   4.920  0.00  0.00    +0.015 C 
ATOM      8  C   LIG    1       25.750 -27.621   7.188  0.00  0.00    +0.228 C 
ATOM      9  O   LIG    1       26.702 -27.046   7.690  0.00  0.00    -0.275 OA
ENDROOT
BRANCH   1  11
ATOM     10  C   LIG    1       24.000 -25.617   6.403  0.00  0.00    +0.038 C 
ATOM     11  C   LIG    1       24.365 -26.557   5.263  0.00  0.00    +0.125 C 
BRANCH  11  12
ATOM     12  O   LIG    1       25.163 -25.860   4.304  0.00  0.00    -0.391 OA
ATOM     13  H   LIG    1       26.092 -26.123   4.430  0.00  0.00    +0.210 HD
ENDBRANCH  11  12
ENDBRANCH   1  11
BRANCH   4  14
ATOM     14  C   LIG    1       26.078 -29.625   9.595  0.00  0.00    +0.352 C 
ATOM     15  O   LIG    1       25.536 -29.626  10.685  0.00  0.00    -0.244 OA
BRANCH  14  16
ATOM     16  O   LIG    1       27.417 -29.481   9.497  0.00  0.00    -0.476 OA
ATOM     17  H   LIG    1       27.527 -28.570   9.156  0.00  0.00    +0.295 HD
ENDBRANCH  14  16
ENDBRANCH   4  14
BRANCH   5  18
ATOM     18  S   LIG    1       26.040 -32.363   7.751  0.00  0.00    -0.122 S 
BRANCH  18  19
ATOM     19  C   LIG    1       24.706 -33.322   8.553  0.00  0.00    +0.067 C 
ATOM     20  C   LIG    1       24.361 -32.912   9.976  0.00  0.00    +0.044 C 
ATOM     21  C   LIG    1       22.850 -32.696  10.047  0.00  0.00    +0.142 C 
ATOM     22  N   LIG    1       22.296 -33.109   8.740  0.00  0.00    -0.305 NA
ATOM     23  H   LIG    1       21.892 -34.039   8.828  0.00  0.00    +0.123 HD
ATOM     24  C   LIG    1       23.400 -33.147   7.777  0.00  0.00    +0.096 C 
BRANCH  21  25
ATOM     25  C   LIG    1       22.491 -31.226  10.406  0.00  0.00    +0.232 C 
ATOM     26  N   LIG    1       22.332 -30.881  11.744  0.00  0.00    -0.306 N 
ATOM     27  C   LIG    1       22.310 -31.806  12.864  0.00  0.00    +0.131 C 
ATOM     28  C   LIG    1       22.064 -29.490  12.075  0.00  0.00    +0.131 C 
ATOM     29  O   LIG    1       22.439 -30.357   9.528  0.00  0.00    -0.274 OA
ENDBRANCH  21  25
ENDBRANCH  18  19
ENDBRANCH   5  18
TORSDOF 7
ENDMDL
MODEL 8
REMARK VINA RESULT:      -5.7      5.832     10.797
REMARK  Name = *****
REMARK                            x       y       z     vdW  Elec       q    Type
REMARK                         _______ _______ _______ _____ _____    ______ ____
ROOT
ATOM      1  C   LIG    1       23.083 -31.327  11.801  0.00  0.00    +0.125 C 
ATOM      2  C   LIG    1       24.177 -32.279  11.227  0.00  0.00    +0.104 C 
ATOM      3  N   LIG    1       25.157 -31.193  11.500  0.00  0.00    -0.260 N 
ATOM      4  C   LIG    1       25.917 -30.974  10.361  0.00  0.00    +0.131 C 
ATOM      5  C   LIG    1       25.549 -31.770   9.339  0.00  0.00    +0.019 C 
ATOM      6  C   LIG    1       24.368 -32.632   9.744  0.00  0.00    +0.046 C 
ATOM      7  C   LIG    1       23.097 -32.389   8.939  0.00  0.00    +0.015 C 
ATOM      8  C   LIG    1       24.199 -30.284  11.855  0.00  0.00    +0.228 C 
ATOM      9  O   LIG    1       24.230 -29.069  11.975  0.00  0.00    -0.275 OA
ENDROOT
BRANCH   1  11
ATOM     10  C   LIG    1       22.962 -33.118  13.547  0.00  0.00    +0.038 C 
ATOM     11  C   LIG    1       22.463 -31.744  13.124  0.00  0.00    +0.125 C 
BRANCH  11  12
ATOM     12  O   LIG    1       22.850 -30.773  14.098  0.00  0.00    -0.391 OA
ATOM     13  H   LIG    1       22.269 -30.870  14.874  0.00  0.00    +0.210 HD
ENDBRANCH  11  12
ENDBRANCH   1  11
BRANCH   4  14
ATOM     14  C   LIG    1       26.945 -29.902  10.361  0.00  0.00    +0.352 C 
ATOM     15  O   LIG    1       28.116 -29.983  10.681  0.00  0.00    -0.244 OA
BRANCH  14  16
ATOM     16  O   LIG    1       26.421 -28.717   9.981  0.00  0.00    -0.476 OA
ATOM     17  H   LIG    1       26.389 -28.201  10.812  0.00  0.00    +0.295 HD
ENDBRANCH  14  16
ENDBRANCH   4  14
BRANCH   5  18
ATOM     18  S   LIG    1       26.136 -31.709   7.719  0.00  0.00    -0.122 S 
BRANCH  18  19
ATOM     19  C   LIG    1       24.840 -30.836   6.770  0.00  0.00    +0.067 C 
ATOM     20  C   LIG    1       24.319 -29.550   7.390  0.00  0.00    +0.044 C 
ATOM     21  C   LIG    1       24.396 -28.454   6.328  0.00  0.00    +0.142 C 
ATOM     22  N   LIG    1       24.813 -29.106   5.069  0.00  0.00    -0.305 NA
ATOM     23  H   LIG    1       23.995 -29.242   4.478  0.00  0.00    +0.123 HD
ATOM     24  C   LIG    1       25.391 -30.409   5.408  0.00  0.00    +0.096 C 
BRANCH  21  25
ATOM     25  C   LIG    1       25.357 -27.306   6.750  0.00  0.00    +0.232 C 
ATOM     26  N   LIG    1       25.082 -26.010   6.327  0.00  0.00    -0.306 N 
ATOM     27  C   LIG    1       24.052 -25.626   5.378  0.00  0.00    +0.131 C 
ATOM     28  C   LIG    1       25.947 -24.933   6.781  0.00  0.00    +0.131 C 
ATOM     29  O   LIG    1       26.297 -27.524   7.522  0.00  0.00    -0.274 OA
ENDBRANCH  21  25
ENDBRANCH  18  19
ENDBRANCH   5  18
TORSDOF 7
ENDMDL
MODEL 9
REMARK VINA RESULT:      -5.7      9.230     11.282
REMARK  Name = *****
REMARK                            x       y       z     vdW  Elec       q    Type
REMARK                         _______ _______ _______ _____ _____    ______ ____
ROOT
ATOM      1  C   LIG    1       24.900 -31.341   8.323  0.00  0.00    +0.125 C 
ATOM      2  C   LIG    1       24.182 -30.125   8.985  0.00  0.00    +0.104 C 
ATOM      3  N   LIG    1       25.493 -29.782   9.600  0.00  0.00    -0.260 N 
ATOM      4  C   LIG    1       25.313 -29.578  10.959  0.00  0.00    +0.131 C 
ATOM      5  C   LIG    1       24.036 -29.766  11.342  0.00  0.00    +0.019 C 
ATOM      6  C   LIG    1       23.192 -30.199  10.157  0.00  0.00    +0.046 C 
ATOM      7  C   LIG    1       22.578 -31.588  10.289  0.00  0.00    +0.015 C 
ATOM      8  C   LIG    1       26.106 -30.925   9.166  0.00  0.00    +0.228 C 
ATOM      9  O   LIG    1       27.147 -31.469   9.498  0.00  0.00    -0.275 OA
ENDROOT
BRANCH   1  11
ATOM     10  C   LIG    1       24.343 -30.068   6.240  0.00  0.00    +0.038 C 
ATOM     11  C   LIG    1       25.060 -31.282   6.814  0.00  0.00    +0.125 C 
BRANCH  11  12
ATOM     12  O   LIG    1       26.458 -31.186   6.539  0.00  0.00    -0.391 OA
ATOM     13  H   LIG    1       26.572 -31.017   5.586  0.00  0.00    +0.210 HD
ENDBRANCH  11  12
ENDBRANCH   1  11
BRANCH   4  14
ATOM     14  C   LIG    1       26.487 -29.263  11.815  0.00  0.00    +0.352 C 
ATOM     15  O   LIG    1       27.008 -28.180  12.007  0.00  0.00    -0.244 OA
BRANCH  14  16
ATOM     16  O   LIG    1       26.998 -30.378  12.379  0.00  0.00    -0.476 OA
ATOM     17  H   LIG    1       26.813 -31.077  11.719  0.00  0.00    +0.295 HD
ENDBRANCH  14  16
ENDBRANCH   4  14
BRANCH   5  18
ATOM     18  S   LIG    1       23.428 -29.757  12.955  0.00  0.00    -0.122 S 
BRANCH  18  19
ATOM     19  C   LIG    1       22.829 -28.052  13.234  0.00  0.00    +0.067 C 
ATOM     20  C   LIG    1       21.406 -27.769  12.780  0.00  0.00    +0.044 C 
ATOM     21  C   LIG    1       20.662 -27.127  13.950  0.00  0.00    +0.142 C 
ATOM     22  N   LIG    1       21.656 -26.902  15.020  0.00  0.00    -0.305 NA
ATOM     23  H   LIG    1       21.935 -25.923  15.015  0.00  0.00    +0.123 HD
ATOM     24  C   LIG    1       22.823 -27.741  14.731  0.00  0.00    +0.096 C 
BRANCH  21  25
ATOM     25  C   LIG    1       19.467 -28.002  14.425  0.00  0.00    +0.232 C 
ATOM     26  N   LIG    1       18.180 -27.479  14.352  0.00  0.00    -0.306 N 
ATOM     27  C   LIG    1       17.837 -26.108  14.016  0.00  0.00    +0.131 C 
ATOM     28  C   LIG    1       17.062 -28.328  14.735  0.00  0.00    +0.131 C 
ATOM     29  O   LIG    1       19.644 -29.174  14.776  0.00  0.00    -0.274 OA
ENDBRANCH  21  25
ENDBRANCH  18  19
ENDBRANCH   5  18
TORSDOF 7
ENDMDL
