MODEL 1
REMARK VINA RESULT:      -9.0      0.000      0.000
REMARK  Name = *****
REMARK                            x       y       z     vdW  Elec       q    Type
REMARK                         _______ _______ _______ _____ _____    ______ ____
ROOT
ATOM      1  C   LIG    1       25.186 -24.142   6.744  0.00  0.00    +0.162 C 
ENDROOT
BRANCH   1   7
ATOM      2  C   LIG    1       25.798 -18.467   3.512  0.00  0.00    +0.007 C 
ATOM      3  C   LIG    1       25.444 -19.867   4.003  0.00  0.00    -0.010 C 
ATOM      4  C   LIG    1       25.338 -20.041   5.580  0.00  0.00    +0.037 C 
ATOM      5  C   LIG    1       24.257 -21.074   6.045  0.00  0.00    +0.185 C 
ATOM      6  N   LIG    1       24.360 -22.249   5.065  0.00  0.00    -0.287 N 
ATOM      7  C   LIG    1       24.865 -23.560   5.297  0.00  0.00    +0.235 C 
ATOM      8  O   LIG    1       24.985 -24.325   4.323  0.00  0.00    -0.274 OA
ATOM      9  C   LIG    1       24.167 -21.881   3.580  0.00  0.00    +0.109 C 
ATOM     10  C   LIG    1       24.229 -20.383   3.257  0.00  0.00    +0.022 C 
BRANCH   5  11
ATOM     11  C   LIG    1       23.800 -21.094   7.611  0.00  0.00    +0.326 C 
ATOM     12  O   LIG    1       22.913 -21.760   8.135  0.00  0.00    -0.249 OA
BRANCH  11  13
ATOM     13  O   LIG    1       24.650 -20.469   8.431  0.00  0.00    -0.479 OA
ATOM     14  H   LIG    1       24.628 -20.897   9.323  0.00  0.00    +0.295 HD
ENDBRANCH  11  13
ENDBRANCH   5  11
ENDBRANCH   1   7
BRANCH   1  15
ATOM     15  N   LIG    1       25.974 -25.414   6.759  0.00  0.00    -0.178 NA
ATOM     16  H   LIG    1       26.980 -25.322   6.662  0.00  0.00    +0.149 HD
BRANCH  15  17
ATOM     17  S   LIG    1       25.399 -26.877   6.169  0.00  0.00    +0.061 S 
ATOM     18  O   LIG    1       26.019 -27.215   4.987  0.00  0.00    -0.153 OA
ATOM     19  O   LIG    1       23.905 -26.707   6.192  0.00  0.00    -0.153 OA
BRANCH  17  20
ATOM     20  C   LIG    1       25.749 -28.011   7.485  0.00  0.00    +0.126 A 
ATOM     21  C   LIG    1       25.274 -29.339   7.357  0.00  0.00    +0.057 A 
ATOM     22  N   LIG    1       24.529 -29.742   6.262  0.00  0.00    -0.342 N 
ATOM     23  H   LIG    1       24.800 -29.270   5.395  0.00  0.00    +0.146 HD
ATOM     24  C   LIG    1       23.982 -31.052   6.028  0.00  0.00    +0.105 C 
ATOM     25  C   LIG    1       23.921 -31.868   7.307  0.00  0.00    +0.007 C 
ATOM     26  C   LIG    1       25.054 -31.626   8.344  0.00  0.00    +0.041 C 
ATOM     27  C   LIG    1       23.821 -33.359   6.985  0.00  0.00    +0.009 C 
ATOM     28  C   LIG    1       25.522 -30.199   8.433  0.00  0.00    -0.024 A 
ATOM     29  C   LIG    1       26.247 -29.750   9.563  0.00  0.00    +0.005 A 
ATOM     30  C   LIG    1       26.688 -28.426   9.665  0.00  0.00    +0.002 A 
ATOM     31  C   LIG    1       26.417 -27.553   8.619  0.00  0.00    +0.030 A 
ENDBRANCH  17  20
ENDBRANCH  15  17
ENDBRANCH   1  15
BRANCH   1  32
ATOM     32  C   LIG    1       26.078 -23.171   7.693  0.00  0.00    +0.033 C 
BRANCH  32  33
ATOM     33  C   LIG    1       27.403 -22.422   6.945  0.00  0.00    +0.039 C 
BRANCH  33  34
ATOM     34  C   LIG    1       28.381 -21.289   7.693  0.00  0.00    +0.196 C 
BRANCH  34  35
ATOM     35  N   LIG    1       29.906 -21.511   7.790  0.00  0.00    -0.276 N 
ATOM     36  H   LIG    1       30.418 -21.453   6.914  0.00  0.00    +0.258 HD
BRANCH  35  37
ATOM     37  C   LIG    1       30.783 -21.519   8.872  0.00  0.00    +0.376 C 
ATOM     38  N   LIG    1       30.928 -22.282   9.898  0.00  0.00    -0.130 NA
ATOM     39  H   LIG    1       30.257 -23.036   9.943  0.00  0.00    +0.306 HD
BRANCH  37  40
ATOM     40  N   LIG    1       31.649 -20.469   8.976  0.00  0.00    -0.289 N 
ATOM     41  H   LIG    1       32.181 -20.470   8.094  0.00  0.00    +0.255 HD
ATOM     42  H   LIG    1       31.203 -19.558   8.992  0.00  0.00    +0.255 HD
ENDBRANCH  37  40
ENDBRANCH  35  37
ENDBRANCH  34  35
ENDBRANCH  33  34
ENDBRANCH  32  33
ENDBRANCH   1  32
TORSDOF 12
ENDMDL
MODEL 2
REMARK VINA RESULT:      -8.6      4.458      9.036
REMARK  Name = *****
REMARK                            x       y       z     vdW  Elec       q    Type
REMARK                         _______ _______ _______ _____ _____    ______ ____
ROOT
ATOM      1  C   LIG    1       25.834 -29.435   9.302  0.00  0.00    +0.162 C 
ENDROOT
BRANCH   1   7
ATOM      2  C   LIG    1       27.883 -33.556   4.627  0.00  0.00    +0.007 C 
ATOM      3  C   LIG    1       27.523 -32.844   5.927  0.00  0.00    -0.010 C 
ATOM      4  C   LIG    1       26.191 -31.976   5.893  0.00  0.00    +0.037 C 
ATOM      5  C   LIG    1       25.399 -31.953   7.244  0.00  0.00    +0.185 C 
ATOM      6  N   LIG    1       26.462 -31.838   8.344  0.00  0.00    -0.287 N 
ATOM      7  C   LIG    1       26.761 -30.724   9.179  0.00  0.00    +0.235 C 
ATOM      8  O   LIG    1       27.759 -30.796   9.918  0.00  0.00    -0.274 OA
ATOM      9  C   LIG    1       27.524 -32.956   8.346  0.00  0.00    +0.109 C 
ATOM     10  C   LIG    1       27.573 -33.824   7.083  0.00  0.00    +0.022 C 
BRANCH   5  11
ATOM     11  C   LIG    1       23.863 -31.407   7.254  0.00  0.00    +0.326 C 
ATOM     12  O   LIG    1       23.112 -31.267   8.215  0.00  0.00    -0.249 OA
BRANCH  11  13
ATOM     13  O   LIG    1       23.479 -30.846   6.103  0.00  0.00    -0.479 OA
ATOM     14  H   LIG    1       23.380 -31.544   5.409  0.00  0.00    +0.295 HD
ENDBRANCH  11  13
ENDBRANCH   5  11
ENDBRANCH   1   7
BRANCH   1  15
ATOM     15  N   LIG    1       25.781 -28.817  10.663  0.00  0.00    -0.178 NA
ATOM     16  H   LIG    1       26.580 -28.255  10.934  0.00  0.00    +0.149 HD
BRANCH  15  17
ATOM     17  S   LIG    1       25.006 -29.518  11.978  0.00  0.00    +0.061 S 
ATOM     18  O   LIG    1       25.913 -30.103  12.834  0.00  0.00    -0.153 OA
ATOM     19  O   LIG    1       23.936 -30.365  11.350  0.00  0.00    -0.153 OA
BRANCH  17  20
ATOM     20  C   LIG    1       24.139 -28.158  12.711  0.00  0.00    +0.126 A 
ATOM     21  C   LIG    1       24.908 -27.125  13.302  0.00  0.00    +0.057 A 
ATOM     22  N   LIG    1       26.291 -27.182  13.343  0.00  0.00    -0.342 N 
ATOM     23  H   LIG    1       26.700 -27.643  12.526  0.00  0.00    +0.146 HD
ATOM     24  C   LIG    1       27.175 -26.208  13.927  0.00  0.00    +0.105 C 
ATOM     25  C   LIG    1       26.441 -25.295  14.892  0.00  0.00    +0.007 C 
ATOM     26  C   LIG    1       24.963 -24.957  14.547  0.00  0.00    +0.041 C 
ATOM     27  C   LIG    1       27.231 -24.005  15.112  0.00  0.00    +0.009 C 
ATOM     28  C   LIG    1       24.197 -26.089  13.917  0.00  0.00    -0.024 A 
ATOM     29  C   LIG    1       22.782 -26.077  13.901  0.00  0.00    +0.005 A 
ATOM     30  C   LIG    1       22.052 -27.120  13.322  0.00  0.00    +0.002 A 
ATOM     31  C   LIG    1       22.746 -28.174  12.740  0.00  0.00    +0.030 A 
ENDBRANCH  17  20
ENDBRANCH  15  17
ENDBRANCH   1  15
BRANCH   1  32
ATOM     32  C   LIG    1       26.275 -28.180   8.369  0.00  0.00    +0.033 C 
BRANCH  32  33
ATOM     33  C   LIG    1       25.513 -28.080   6.857  0.00  0.00    +0.039 C 
BRANCH  33  34
ATOM     34  C   LIG    1       24.806 -26.688   6.258  0.00  0.00    +0.196 C 
BRANCH  34  35
ATOM     35  N   LIG    1       25.575 -25.348   6.272  0.00  0.00    -0.276 N 
ATOM     36  H   LIG    1       26.583 -25.416   6.162  0.00  0.00    +0.258 HD
BRANCH  35  37
ATOM     37  C   LIG    1       25.155 -24.027   6.143  0.00  0.00    +0.376 C 
ATOM     38  N   LIG    1       24.087 -23.471   5.688  0.00  0.00    -0.130 NA
ATOM     39  H   LIG    1       23.403 -24.127   5.337  0.00  0.00    +0.306 HD
BRANCH  37  40
ATOM     40  N   LIG    1       26.055 -23.055   6.469  0.00  0.00    -0.289 N 
ATOM     41  H   LIG    1       26.710 -23.017   5.675  0.00  0.00    +0.255 HD
ATOM     42  H   LIG    1       25.666 -22.120   6.512  0.00  0.00    +0.255 HD
ENDBRANCH  37  40
ENDBRANCH  35  37
ENDBRANCH  34  35
ENDBRANCH  33  34
ENDBRANCH  32  33
ENDBRANCH   1  32
TORSDOF 12
ENDMDL
MODEL 3
REMARK VINA RESULT:      -8.4      1.105      2.239
REMARK  Name = *****
REMARK                            x       y       z     vdW  Elec       q    Type
REMARK                         _______ _______ _______ _____ _____    ______ ____
ROOT
ATOM      1  C   LIG    1       24.960 -24.049   6.450  0.00  0.00    +0.162 C 
ENDROOT
BRANCH   1   7
ATOM      2  C   LIG    1       25.802 -18.264   3.472  0.00  0.00    +0.007 C 
ATOM      3  C   LIG    1       25.386 -19.667   3.905  0.00  0.00    -0.010 C 
ATOM      4  C   LIG    1       25.301 -19.910   5.474  0.00  0.00    +0.037 C 
ATOM      5  C   LIG    1       24.178 -20.908   5.914  0.00  0.00    +0.185 C 
ATOM      6  N   LIG    1       24.201 -22.039   4.879  0.00  0.00    -0.287 N 
ATOM      7  C   LIG    1       24.642 -23.383   5.038  0.00  0.00    +0.235 C 
ATOM      8  O   LIG    1       24.704 -24.106   4.028  0.00  0.00    -0.274 OA
ATOM      9  C   LIG    1       23.998 -21.591   3.417  0.00  0.00    +0.109 C 
ATOM     10  C   LIG    1       24.131 -20.084   3.162  0.00  0.00    +0.022 C 
BRANCH   5  11
ATOM     11  C   LIG    1       23.751 -20.978   7.487  0.00  0.00    +0.326 C 
ATOM     12  O   LIG    1       22.931 -21.721   8.019  0.00  0.00    -0.249 OA
BRANCH  11  13
ATOM     13  O   LIG    1       24.560 -20.292   8.300  0.00  0.00    -0.479 OA
ATOM     14  H   LIG    1       25.482 -20.305   7.940  0.00  0.00    +0.295 HD
ENDBRANCH  11  13
ENDBRANCH   5  11
ENDBRANCH   1   7
BRANCH   1  15
ATOM     15  N   LIG    1       24.773 -25.532   6.511  0.00  0.00    -0.178 NA
ATOM     16  H   LIG    1       24.348 -25.898   7.355  0.00  0.00    +0.149 HD
BRANCH  15  17
ATOM     17  S   LIG    1       25.803 -26.635   5.774  0.00  0.00    +0.061 S 
ATOM     18  O   LIG    1       27.111 -26.418   6.148  0.00  0.00    -0.153 OA
ATOM     19  O   LIG    1       25.432 -26.552   4.320  0.00  0.00    -0.153 OA
BRANCH  17  20
ATOM     20  C   LIG    1       25.177 -28.201   6.317  0.00  0.00    +0.126 A 
ATOM     21  C   LIG    1       25.525 -28.637   7.619  0.00  0.00    +0.057 A 
ATOM     22  N   LIG    1       26.355 -27.889   8.438  0.00  0.00    -0.342 N 
ATOM     23  H   LIG    1       26.244 -26.880   8.310  0.00  0.00    +0.146 HD
ATOM     24  C   LIG    1       26.791 -28.232   9.765  0.00  0.00    +0.105 C 
ATOM     25  C   LIG    1       26.608 -29.713  10.048  0.00  0.00    +0.007 C 
ATOM     26  C   LIG    1       25.384 -30.404   9.381  0.00  0.00    +0.041 C 
ATOM     27  C   LIG    1       26.593 -29.971  11.555  0.00  0.00    +0.009 C 
ATOM     28  C   LIG    1       25.058 -29.898   8.003  0.00  0.00    -0.024 A 
ATOM     29  C   LIG    1       24.248 -30.664   7.130  0.00  0.00    +0.005 A 
ATOM     30  C   LIG    1       23.936 -30.211   5.843  0.00  0.00    +0.002 A 
ATOM     31  C   LIG    1       24.424 -28.975   5.437  0.00  0.00    +0.030 A 
ENDBRANCH  17  20
ENDBRANCH  15  17
ENDBRANCH   1  15
BRANCH   1  32
ATOM     32  C   LIG    1       26.491 -23.872   6.964  0.00  0.00    +0.033 C 
BRANCH  32  33
ATOM     33  C   LIG    1       26.782 -22.543   7.976  0.00  0.00    +0.039 C 
BRANCH  33  34
ATOM     34  C   LIG    1       27.858 -21.313   7.617  0.00  0.00    +0.196 C 
BRANCH  34  35
ATOM     35  N   LIG    1       29.375 -21.593   7.550  0.00  0.00    -0.276 N 
ATOM     36  H   LIG    1       29.750 -21.778   6.624  0.00  0.00    +0.258 HD
BRANCH  35  37
ATOM     37  C   LIG    1       30.406 -21.390   8.464  0.00  0.00    +0.376 C 
ATOM     38  N   LIG    1       30.588 -21.731   9.693  0.00  0.00    -0.130 NA
ATOM     39  H   LIG    1       29.817 -22.247  10.091  0.00  0.00    +0.306 HD
BRANCH  37  40
ATOM     40  N   LIG    1       31.440 -20.594   8.067  0.00  0.00    -0.289 N 
ATOM     41  H   LIG    1       32.288 -21.154   8.228  0.00  0.00    +0.255 HD
ATOM     42  H   LIG    1       31.460 -20.398   7.072  0.00  0.00    +0.255 HD
ENDBRANCH  37  40
ENDBRANCH  35  37
ENDBRANCH  34  35
ENDBRANCH  33  34
ENDBRANCH  32  33
ENDBRANCH   1  32
TORSDOF 12
ENDMDL
MODEL 4
REMARK VINA RESULT:      -8.3      4.646      8.803
REMARK  Name = *****
REMARK                            x       y       z     vdW  Elec       q    Type
REMARK                         _______ _______ _______ _____ _____    ______ ____
ROOT
ATOM      1  C   LIG    1       25.714 -29.539   9.310  0.00  0.00    +0.162 C 
ENDROOT
BRANCH   1   7
ATOM      2  C   LIG    1       27.949 -33.531   4.609  0.00  0.00    +0.007 C 
ATOM      3  C   LIG    1       27.561 -32.843   5.914  0.00  0.00    -0.010 C 
ATOM      4  C   LIG    1       26.182 -32.050   5.894  0.00  0.00    +0.037 C 
ATOM      5  C   LIG    1       25.402 -32.074   7.251  0.00  0.00    +0.185 C 
ATOM      6  N   LIG    1       26.467 -31.901   8.342  0.00  0.00    -0.287 N 
ATOM      7  C   LIG    1       26.711 -30.774   9.177  0.00  0.00    +0.235 C 
ATOM      8  O   LIG    1       27.718 -30.790   9.907  0.00  0.00    -0.274 OA
ATOM      9  C   LIG    1       27.590 -32.958   8.333  0.00  0.00    +0.109 C 
ATOM     10  C   LIG    1       27.676 -33.820   7.067  0.00  0.00    +0.022 C 
BRANCH   5  11
ATOM     11  C   LIG    1       23.838 -31.614   7.276  0.00  0.00    +0.326 C 
ATOM     12  O   LIG    1       22.978 -31.890   8.107  0.00  0.00    -0.249 OA
BRANCH  11  13
ATOM     13  O   LIG    1       23.543 -30.647   6.401  0.00  0.00    -0.479 OA
ATOM     14  H   LIG    1       23.407 -29.794   6.883  0.00  0.00    +0.295 HD
ENDBRANCH  11  13
ENDBRANCH   5  11
ENDBRANCH   1   7
BRANCH   1  15
ATOM     15  N   LIG    1       25.404 -29.120  10.713  0.00  0.00    -0.178 NA
ATOM     16  H   LIG    1       24.542 -28.604  10.848  0.00  0.00    +0.149 HD
BRANCH  15  17
ATOM     17  S   LIG    1       26.575 -28.736  11.854  0.00  0.00    +0.061 S 
ATOM     18  O   LIG    1       27.775 -28.431  11.250  0.00  0.00    -0.153 OA
ATOM     19  O   LIG    1       26.511 -29.879  12.827  0.00  0.00    -0.153 OA
BRANCH  17  20
ATOM     20  C   LIG    1       25.864 -27.361  12.717  0.00  0.00    +0.126 A 
ATOM     21  C   LIG    1       24.482 -27.416  13.024  0.00  0.00    +0.057 A 
ATOM     22  N   LIG    1       23.694 -28.487  12.637  0.00  0.00    -0.342 N 
ATOM     23  H   LIG    1       24.197 -29.378  12.639  0.00  0.00    +0.146 HD
ATOM     24  C   LIG    1       22.285 -28.648  12.875  0.00  0.00    +0.105 C 
ATOM     25  C   LIG    1       21.622 -27.327  13.222  0.00  0.00    +0.007 C 
ATOM     26  C   LIG    1       22.478 -26.307  14.026  0.00  0.00    +0.041 C 
ATOM     27  C   LIG    1       20.293 -27.567  13.939  0.00  0.00    +0.009 C 
ATOM     28  C   LIG    1       23.938 -26.296  13.662  0.00  0.00    -0.024 A 
ATOM     29  C   LIG    1       24.756 -25.193  14.007  0.00  0.00    +0.005 A 
ATOM     30  C   LIG    1       26.115 -25.165  13.675  0.00  0.00    +0.002 A 
ATOM     31  C   LIG    1       26.660 -26.255  13.009  0.00  0.00    +0.030 A 
ENDBRANCH  17  20
ENDBRANCH  15  17
ENDBRANCH   1  15
BRANCH   1  32
ATOM     32  C   LIG    1       26.243 -28.154   8.645  0.00  0.00    +0.033 C 
BRANCH  32  33
ATOM     33  C   LIG    1       25.585 -27.764   7.131  0.00  0.00    +0.039 C 
BRANCH  33  34
ATOM     34  C   LIG    1       25.505 -26.208   6.520  0.00  0.00    +0.196 C 
BRANCH  34  35
ATOM     35  N   LIG    1       24.140 -25.557   6.210  0.00  0.00    -0.276 N 
ATOM     36  H   LIG    1       23.442 -26.169   5.796  0.00  0.00    +0.258 HD
BRANCH  35  37
ATOM     37  C   LIG    1       23.562 -24.357   6.617  0.00  0.00    +0.376 C 
ATOM     38  N   LIG    1       22.351 -23.922   6.665  0.00  0.00    -0.130 NA
ATOM     39  H   LIG    1       21.667 -24.583   6.326  0.00  0.00    +0.306 HD
BRANCH  37  40
ATOM     40  N   LIG    1       24.409 -23.349   6.973  0.00  0.00    -0.289 N 
ATOM     41  H   LIG    1       25.355 -23.729   6.832  0.00  0.00    +0.255 HD
ATOM     42  H   LIG    1       24.376 -22.539   6.364  0.00  0.00    +0.255 HD
ENDBRANCH  37  40
ENDBRANCH  35  37
ENDBRANCH  34  35
ENDBRANCH  33  34
ENDBRANCH  32  33
ENDBRANCH   1  32
TORSDOF 12
ENDMDL
MODEL 5
REMARK VINA RESULT:      -8.3      5.234      8.699
REMARK  Name = *****
REMARK                            x       y       z     vdW  Elec       q    Type
REMARK                         _______ _______ _______ _____ _____    ______ ____
ROOT
ATOM      1  C   LIG    1       25.378 -28.903  12.326  0.00  0.00    +0.162 C 
ENDROOT
BRANCH   1   7
ATOM      2  C   LIG    1       19.454 -28.900  15.144  0.00  0.00    +0.007 C 
ATOM      3  C   LIG    1       20.755 -28.571  14.418  0.00  0.00    -0.010 C 
ATOM      4  C   LIG    1       21.381 -29.748  13.552  0.00  0.00    +0.037 C 
ATOM      5  C   LIG    1       22.119 -29.275  12.255  0.00  0.00    +0.185 C 
ATOM      6  N   LIG    1       22.892 -28.013  12.657  0.00  0.00    -0.287 N 
ATOM      7  C   LIG    1       24.297 -27.840  12.813  0.00  0.00    +0.235 C 
ATOM      8  O   LIG    1       24.708 -26.763  13.281  0.00  0.00    -0.274 OA
ATOM      9  C   LIG    1       22.028 -26.878  13.244  0.00  0.00    +0.109 C 
ATOM     10  C   LIG    1       20.603 -27.273  13.649  0.00  0.00    +0.022 C 
BRANCH   5  11
ATOM     11  C   LIG    1       22.494 -30.374  11.109  0.00  0.00    +0.326 C 
ATOM     12  O   LIG    1       22.383 -30.270   9.892  0.00  0.00    -0.249 OA
BRANCH  11  13
ATOM     13  O   LIG    1       23.206 -31.410  11.564  0.00  0.00    -0.479 OA
ATOM     14  H   LIG    1       22.787 -31.767  12.386  0.00  0.00    +0.295 HD
ENDBRANCH  11  13
ENDBRANCH   5  11
ENDBRANCH   1   7
BRANCH   1  15
ATOM     15  N   LIG    1       25.424 -29.132  10.848  0.00  0.00    -0.178 NA
ATOM     16  H   LIG    1       24.593 -28.875  10.326  0.00  0.00    +0.149 HD
BRANCH  15  17
ATOM     17  S   LIG    1       26.284 -30.379  10.123  0.00  0.00    +0.061 S 
ATOM     18  O   LIG    1       26.274 -31.511  10.907  0.00  0.00    -0.153 OA
ATOM     19  O   LIG    1       27.599 -29.743   9.766  0.00  0.00    -0.153 OA
BRANCH  17  20
ATOM     20  C   LIG    1       25.450 -30.600   8.575  0.00  0.00    +0.126 A 
ATOM     21  C   LIG    1       25.406 -29.500   7.684  0.00  0.00    +0.057 A 
ATOM     22  N   LIG    1       25.962 -28.275   8.014  0.00  0.00    -0.342 N 
ATOM     23  H   LIG    1       26.800 -28.357   8.596  0.00  0.00    +0.146 HD
ATOM     24  C   LIG    1       25.966 -27.086   7.205  0.00  0.00    +0.105 C 
ATOM     25  C   LIG    1       24.919 -27.154   6.108  0.00  0.00    +0.007 C 
ATOM     26  C   LIG    1       24.634 -28.557   5.502  0.00  0.00    +0.041 C 
ATOM     27  C   LIG    1       25.252 -26.163   4.991  0.00  0.00    +0.009 C 
ATOM     28  C   LIG    1       24.699 -29.688   6.492  0.00  0.00    -0.024 A 
ATOM     29  C   LIG    1       24.100 -30.936   6.197  0.00  0.00    +0.005 A 
ATOM     30  C   LIG    1       24.149 -31.998   7.106  0.00  0.00    +0.002 A 
ATOM     31  C   LIG    1       24.817 -31.813   8.310  0.00  0.00    +0.030 A 
ENDBRANCH  17  20
ENDBRANCH  15  17
ENDBRANCH   1  15
BRANCH   1  32
ATOM     32  C   LIG    1       26.920 -28.518  12.664  0.00  0.00    +0.033 C 
BRANCH  32  33
ATOM     33  C   LIG    1       27.572 -29.236  14.055  0.00  0.00    +0.039 C 
BRANCH  33  34
ATOM     34  C   LIG    1       29.095 -29.924  14.125  0.00  0.00    +0.196 C 
BRANCH  34  35
ATOM     35  N   LIG    1       30.295 -29.246  13.428  0.00  0.00    -0.276 N 
ATOM     36  H   LIG    1       30.274 -28.230  13.401  0.00  0.00    +0.258 HD
BRANCH  35  37
ATOM     37  C   LIG    1       31.549 -29.721  13.050  0.00  0.00    +0.376 C 
ATOM     38  N   LIG    1       32.270 -30.724  13.414  0.00  0.00    -0.130 NA
ATOM     39  H   LIG    1       31.848 -31.288  14.137  0.00  0.00    +0.306 HD
BRANCH  37  40
ATOM     40  N   LIG    1       32.261 -28.960  12.170  0.00  0.00    -0.289 N 
ATOM     41  H   LIG    1       31.558 -28.402  11.666  0.00  0.00    +0.255 HD
ATOM     42  H   LIG    1       32.860 -28.266  12.605  0.00  0.00    +0.255 HD
ENDBRANCH  37  40
ENDBRANCH  35  37
ENDBRANCH  34  35
ENDBRANCH  33  34
ENDBRANCH  32  33
ENDBRANCH   1  32
TORSDOF 12
ENDMDL
MODEL 6
REMARK VINA RESULT:      -8.0      3.365      6.991
REMARK  Name = *****
REMARK                            x       y       z     vdW  Elec       q    Type
REMARK                         _______ _______ _______ _____ _____    ______ ____
ROOT
ATOM      1  C   LIG    1       28.396 -21.147   6.732  0.00  0.00    +0.162 C 
ENDROOT
BRANCH   1   7
ATOM      2  C   LIG    1       30.787 -16.424  10.605  0.00  0.00    +0.007 C 
ATOM      3  C   LIG    1       30.519 -17.690   9.798  0.00  0.00    -0.010 C 
ATOM      4  C   LIG    1       29.792 -17.478   8.400  0.00  0.00    +0.037 C 
ATOM      5  C   LIG    1       30.231 -18.484   7.283  0.00  0.00    +0.185 C 
ATOM      6  N   LIG    1       30.353 -19.845   7.979  0.00  0.00    -0.287 N 
ATOM      7  C   LIG    1       29.512 -20.987   7.857  0.00  0.00    +0.235 C 
ATOM      8  O   LIG    1       29.713 -21.950   8.618  0.00  0.00    -0.274 OA
ATOM      9  C   LIG    1       31.332 -19.884   9.171  0.00  0.00    +0.109 C 
ATOM     10  C   LIG    1       31.786 -18.517   9.698  0.00  0.00    +0.022 C 
BRANCH   5  11
ATOM     11  C   LIG    1       29.840 -18.168   5.731  0.00  0.00    +0.326 C 
ATOM     12  O   LIG    1       29.067 -17.318   5.300  0.00  0.00    -0.249 OA
BRANCH  11  13
ATOM     13  O   LIG    1       30.634 -18.768   4.839  0.00  0.00    -0.479 OA
ATOM     14  H   LIG    1       30.163 -18.845   3.973  0.00  0.00    +0.295 HD
ENDBRANCH  11  13
ENDBRANCH   5  11
ENDBRANCH   1   7
BRANCH   1  15
ATOM     15  N   LIG    1       27.330 -22.154   7.032  0.00  0.00    -0.178 NA
ATOM     16  H   LIG    1       27.004 -22.711   6.250  0.00  0.00    +0.149 HD
BRANCH  15  17
ATOM     17  S   LIG    1       26.156 -21.947   8.214  0.00  0.00    +0.061 S 
ATOM     18  O   LIG    1       25.964 -20.612   8.495  0.00  0.00    -0.153 OA
ATOM     19  O   LIG    1       26.592 -22.874   9.314  0.00  0.00    -0.153 OA
BRANCH  17  20
ATOM     20  C   LIG    1       24.727 -22.719   7.506  0.00  0.00    +0.126 A 
ATOM     21  C   LIG    1       24.884 -24.007   6.937  0.00  0.00    +0.057 A 
ATOM     22  N   LIG    1       26.117 -24.637   6.897  0.00  0.00    -0.342 N 
ATOM     23  H   LIG    1       26.706 -24.422   7.705  0.00  0.00    +0.146 HD
ATOM     24  C   LIG    1       26.404 -25.929   6.334  0.00  0.00    +0.105 C 
ATOM     25  C   LIG    1       25.308 -26.381   5.385  0.00  0.00    +0.007 C 
ATOM     26  C   LIG    1       23.858 -25.943   5.735  0.00  0.00    +0.041 C 
ATOM     27  C   LIG    1       25.361 -27.897   5.192  0.00  0.00    +0.009 C 
ATOM     28  C   LIG    1       23.751 -24.571   6.341  0.00  0.00    -0.024 A 
ATOM     29  C   LIG    1       22.512 -23.886   6.355  0.00  0.00    +0.005 A 
ATOM     30  C   LIG    1       22.394 -22.608   6.912  0.00  0.00    +0.002 A 
ATOM     31  C   LIG    1       23.521 -22.021   7.474  0.00  0.00    +0.030 A 
ENDBRANCH  17  20
ENDBRANCH  15  17
ENDBRANCH   1  15
BRANCH   1  32
ATOM     32  C   LIG    1       27.530 -19.807   6.427  0.00  0.00    +0.033 C 
BRANCH  32  33
ATOM     33  C   LIG    1       26.720 -19.775   4.936  0.00  0.00    +0.039 C 
BRANCH  33  34
ATOM     34  C   LIG    1       25.147 -20.300   4.717  0.00  0.00    +0.196 C 
BRANCH  34  35
ATOM     35  N   LIG    1       24.104 -19.389   4.032  0.00  0.00    -0.276 N 
ATOM     36  H   LIG    1       24.303 -19.137   3.068  0.00  0.00    +0.258 HD
BRANCH  35  37
ATOM     37  C   LIG    1       22.798 -19.043   4.370  0.00  0.00    +0.376 C 
ATOM     38  N   LIG    1       22.183 -17.921   4.515  0.00  0.00    -0.130 NA
ATOM     39  H   LIG    1       22.768 -17.112   4.363  0.00  0.00    +0.306 HD
BRANCH  37  40
ATOM     40  N   LIG    1       21.958 -20.058   4.721  0.00  0.00    -0.289 N 
ATOM     41  H   LIG    1       21.871 -19.995   5.745  0.00  0.00    +0.255 HD
ATOM     42  H   LIG    1       21.006 -19.949   4.387  0.00  0.00    +0.255 HD
ENDBRANCH  37  40
ENDBRANCH  35  37
ENDBRANCH  34  35
ENDBRANCH  33  34
ENDBRANCH  32  33
ENDBRANCH   1  32
TORSDOF 12
ENDMDL
MODEL 7
REMARK VINA RESULT:      -7.9      5.397      9.412
REMARK  Name = *****
REMARK                            x       y       z     vdW  Elec       q    Type
REMARK                         _______ _______ _______ _____ _____    ______ ____
ROOT
ATOM      1  C   LIG    1       24.074 -30.096  11.485  0.00  0.00    +0.162 C 
ENDROOT
BRANCH   1   7
ATOM      2  C   LIG    1       17.738 -31.122  12.840  0.00  0.00    +0.007 C 
ATOM      3  C   LIG    1       19.140 -31.066  12.241  0.00  0.00    -0.010 C 
ATOM      4  C   LIG    1       20.340 -31.106  13.283  0.00  0.00    +0.037 C 
ATOM      5  C   LIG    1       21.618 -31.851  12.770  0.00  0.00    +0.185 C 
ATOM      6  N   LIG    1       21.779 -31.432  11.303  0.00  0.00    -0.287 N 
ATOM      7  C   LIG    1       22.761 -30.579  10.724  0.00  0.00    +0.235 C 
ATOM      8  O   LIG    1       22.630 -30.258   9.529  0.00  0.00    -0.274 OA
ATOM      9  C   LIG    1       20.566 -31.733  10.400  0.00  0.00    +0.109 C 
ATOM     10  C   LIG    1       19.269 -32.095  11.134  0.00  0.00    +0.022 C 
BRANCH   5  11
ATOM     11  C   LIG    1       22.775 -32.272  13.839  0.00  0.00    +0.326 C 
ATOM     12  O   LIG    1       22.797 -32.078  15.051  0.00  0.00    -0.249 OA
BRANCH  11  13
ATOM     13  O   LIG    1       23.687 -33.116  13.347  0.00  0.00    -0.479 OA
ATOM     14  H   LIG    1       24.312 -33.387  14.065  0.00  0.00    +0.295 HD
ENDBRANCH  11  13
ENDBRANCH   5  11
ENDBRANCH   1   7
BRANCH   1  15
ATOM     15  N   LIG    1       25.201 -29.667  10.599  0.00  0.00    -0.178 NA
ATOM     16  H   LIG    1       25.052 -28.824  10.056  0.00  0.00    +0.149 HD
BRANCH  15  17
ATOM     17  S   LIG    1       26.265 -30.734   9.858  0.00  0.00    +0.061 S 
ATOM     18  O   LIG    1       26.313 -31.935  10.531  0.00  0.00    -0.153 OA
ATOM     19  O   LIG    1       27.525 -29.929   9.701  0.00  0.00    -0.153 OA
BRANCH  17  20
ATOM     20  C   LIG    1       25.613 -30.884   8.217  0.00  0.00    +0.126 A 
ATOM     21  C   LIG    1       25.537 -29.711   7.426  0.00  0.00    +0.057 A 
ATOM     22  N   LIG    1       25.924 -28.476   7.919  0.00  0.00    -0.342 N 
ATOM     23  H   LIG    1       26.706 -28.532   8.576  0.00  0.00    +0.146 HD
ATOM     24  C   LIG    1       25.878 -27.219   7.221  0.00  0.00    +0.105 C 
ATOM     25  C   LIG    1       24.955 -27.282   6.017  0.00  0.00    +0.007 C 
ATOM     26  C   LIG    1       24.881 -28.640   5.264  0.00  0.00    +0.041 C 
ATOM     27  C   LIG    1       25.285 -26.159   5.032  0.00  0.00    +0.009 C 
ATOM     28  C   LIG    1       24.972 -29.850   6.154  0.00  0.00    -0.024 A 
ATOM     29  C   LIG    1       24.541 -31.117   5.690  0.00  0.00    +0.005 A 
ATOM     30  C   LIG    1       24.616 -32.253   6.503  0.00  0.00    +0.002 A 
ATOM     31  C   LIG    1       25.142 -32.121   7.782  0.00  0.00    +0.030 A 
ENDBRANCH  17  20
ENDBRANCH  15  17
ENDBRANCH   1  15
BRANCH   1  32
ATOM     32  C   LIG    1       23.876 -28.800  12.444  0.00  0.00    +0.033 C 
BRANCH  32  33
ATOM     33  C   LIG    1       24.387 -28.986  14.050  0.00  0.00    +0.039 C 
BRANCH  33  34
ATOM     34  C   LIG    1       25.601 -28.075  14.755  0.00  0.00    +0.196 C 
BRANCH  34  35
ATOM     35  N   LIG    1       27.047 -28.145  14.217  0.00  0.00    -0.276 N 
ATOM     36  H   LIG    1       27.780 -27.931  14.889  0.00  0.00    +0.258 HD
BRANCH  35  37
ATOM     37  C   LIG    1       27.590 -28.698  13.060  0.00  0.00    +0.376 C 
ATOM     38  N   LIG    1       28.216 -29.793  12.804  0.00  0.00    -0.130 NA
ATOM     39  H   LIG    1       28.360 -30.380  13.614  0.00  0.00    +0.306 HD
BRANCH  37  40
ATOM     40  N   LIG    1       27.563 -27.929  11.934  0.00  0.00    -0.289 N 
ATOM     41  H   LIG    1       28.549 -27.825  11.655  0.00  0.00    +0.255 HD
ATOM     42  H   LIG    1       27.128 -28.373  11.133  0.00  0.00    +0.255 HD
ENDBRANCH  37  40
ENDBRANCH  35  37
ENDBRANCH  34  35
ENDBRANCH  33  34
ENDBRANCH  32  33
ENDBRANCH   1  32
TORSDOF 12
ENDMDL
MODEL 8
REMARK VINA RESULT:      -7.7      7.313     10.734
REMARK  Name = *****
REMARK                            x       y       z     vdW  Elec       q    Type
REMARK                         _______ _______ _______ _____ _____    ______ ____
ROOT
ATOM      1  C   LIG    1       23.901 -32.401  10.443  0.00  0.00    +0.162 C 
ENDROOT
BRANCH   1   7
ATOM      2  C   LIG    1       25.526 -32.137   4.093  0.00  0.00    +0.007 C 
ATOM      3  C   LIG    1       25.067 -31.866   5.522  0.00  0.00    -0.010 C 
ATOM      4  C   LIG    1       25.863 -32.635   6.663  0.00  0.00    +0.037 C 
ATOM      5  C   LIG    1       26.015 -31.834   7.999  0.00  0.00    +0.185 C 
ATOM      6  N   LIG    1       24.663 -31.146   8.224  0.00  0.00    -0.287 N 
ATOM      7  C   LIG    1       23.666 -31.437   9.197  0.00  0.00    +0.235 C 
ATOM      8  O   LIG    1       22.576 -30.842   9.119  0.00  0.00    -0.274 OA
ATOM      9  C   LIG    1       24.202 -30.223   7.077  0.00  0.00    +0.109 C 
ATOM     10  C   LIG    1       24.971 -30.371   5.759  0.00  0.00    +0.022 C 
BRANCH   5  11
ATOM     11  C   LIG    1       27.093 -32.344   9.112  0.00  0.00    +0.326 C 
ATOM     12  O   LIG    1       27.726 -33.394   9.132  0.00  0.00    -0.249 OA
BRANCH  11  13
ATOM     13  O   LIG    1       27.475 -31.393   9.972  0.00  0.00    -0.479 OA
ATOM     14  H   LIG    1       26.682 -31.025  10.435  0.00  0.00    +0.295 HD
ENDBRANCH  11  13
ENDBRANCH   5  11
ENDBRANCH   1   7
BRANCH   1  15
ATOM     15  N   LIG    1       23.581 -31.805  11.778  0.00  0.00    -0.178 NA
ATOM     16  H   LIG    1       22.598 -31.738  12.017  0.00  0.00    +0.149 HD
BRANCH  15  17
ATOM     17  S   LIG    1       24.510 -30.618  12.518  0.00  0.00    +0.061 S 
ATOM     18  O   LIG    1       25.613 -30.304  11.755  0.00  0.00    -0.153 OA
ATOM     19  O   LIG    1       24.706 -31.139  13.914  0.00  0.00    -0.153 OA
BRANCH  17  20
ATOM     20  C   LIG    1       23.378 -29.266  12.691  0.00  0.00    +0.126 A 
ATOM     21  C   LIG    1       23.896 -28.021  13.126  0.00  0.00    +0.057 A 
ATOM     22  N   LIG    1       25.235 -27.862  13.442  0.00  0.00    -0.342 N 
ATOM     23  H   LIG    1       25.856 -28.438  12.867  0.00  0.00    +0.146 HD
ATOM     24  C   LIG    1       25.872 -26.660  13.907  0.00  0.00    +0.105 C 
ATOM     25  C   LIG    1       24.860 -25.662  14.442  0.00  0.00    +0.007 C 
ATOM     26  C   LIG    1       23.470 -25.637  13.746  0.00  0.00    +0.041 C 
ATOM     27  C   LIG    1       25.457 -24.255  14.462  0.00  0.00    +0.009 C 
ATOM     28  C   LIG    1       22.972 -26.985  13.300  0.00  0.00    -0.024 A 
ATOM     29  C   LIG    1       21.601 -27.186  13.014  0.00  0.00    +0.005 A 
ATOM     30  C   LIG    1       21.119 -28.433  12.601  0.00  0.00    +0.002 A 
ATOM     31  C   LIG    1       22.020 -29.480  12.458  0.00  0.00    +0.030 A 
ENDBRANCH  17  20
ENDBRANCH  15  17
ENDBRANCH   1  15
BRANCH   1  32
ATOM     32  C   LIG    1       23.001 -33.754  10.444  0.00  0.00    +0.033 C 
BRANCH  32  33
ATOM     33  C   LIG    1       21.415 -33.586  11.023  0.00  0.00    +0.039 C 
BRANCH  33  34
ATOM     34  C   LIG    1       20.125 -33.092  10.079  0.00  0.00    +0.196 C 
BRANCH  34  35
ATOM     35  N   LIG    1       19.596 -31.644  10.169  0.00  0.00    -0.276 N 
ATOM     36  H   LIG    1       20.288 -30.912  10.038  0.00  0.00    +0.258 HD
BRANCH  35  37
ATOM     37  C   LIG    1       18.309 -31.114  10.133  0.00  0.00    +0.376 C 
ATOM     38  N   LIG    1       17.619 -30.506   9.232  0.00  0.00    -0.130 NA
ATOM     39  H   LIG    1       18.115 -30.370   8.362  0.00  0.00    +0.306 HD
BRANCH  37  40
ATOM     40  N   LIG    1       17.598 -31.131  11.297  0.00  0.00    -0.289 N 
ATOM     41  H   LIG    1       17.481 -30.142  11.557  0.00  0.00    +0.255 HD
ATOM     42  H   LIG    1       16.648 -31.474  11.204  0.00  0.00    +0.255 HD
ENDBRANCH  37  40
ENDBRANCH  35  37
ENDBRANCH  34  35
ENDBRANCH  33  34
ENDBRANCH  32  33
ENDBRANCH   1  32
TORSDOF 12
ENDMDL
MODEL 9
REMARK VINA RESULT:      -7.7      7.626     10.378
REMARK  Name = *****
REMARK                            x       y       z     vdW  Elec       q    Type
REMARK                         _______ _______ _______ _____ _____    ______ ____
ROOT
ATOM      1  C   LIG    1       24.171 -32.176  10.568  0.00  0.00    +0.162 C 
ENDROOT
BRANCH   1   7
ATOM      2  C   LIG    1       26.458 -32.637   4.436  0.00  0.00    +0.007 C 
ATOM      3  C   LIG    1       25.681 -32.335   5.714  0.00  0.00    -0.010 C 
ATOM      4  C   LIG    1       26.556 -32.165   7.031  0.00  0.00    +0.037 C 
ATOM      5  C   LIG    1       25.993 -31.120   8.052  0.00  0.00    +0.185 C 
ATOM      6  N   LIG    1       24.474 -31.330   8.062  0.00  0.00    -0.287 N 
ATOM      7  C   LIG    1       23.660 -31.892   9.086  0.00  0.00    +0.235 C 
ATOM      8  O   LIG    1       22.459 -32.097   8.836  0.00  0.00    -0.274 OA
ATOM      9  C   LIG    1       23.785 -31.187   6.690  0.00  0.00    +0.109 C 
ATOM     10  C   LIG    1       24.723 -31.184   5.476  0.00  0.00    +0.022 C 
BRANCH   5  11
ATOM     11  C   LIG    1       26.954 -30.592   9.260  0.00  0.00    +0.326 C 
ATOM     12  O   LIG    1       27.127 -29.440   9.645  0.00  0.00    -0.249 OA
BRANCH  11  13
ATOM     13  O   LIG    1       27.423 -31.567  10.045  0.00  0.00    -0.479 OA
ATOM     14  H   LIG    1       28.407 -31.494  10.114  0.00  0.00    +0.295 HD
ENDBRANCH  11  13
ENDBRANCH   5  11
ENDBRANCH   1   7
BRANCH   1  15
ATOM     15  N   LIG    1       23.973 -31.051  11.535  0.00  0.00    -0.178 NA
ATOM     16  H   LIG    1       23.588 -30.193  11.156  0.00  0.00    +0.149 HD
BRANCH  15  17
ATOM     17  S   LIG    1       24.956 -30.784  12.870  0.00  0.00    +0.061 S 
ATOM     18  O   LIG    1       26.235 -31.244  12.646  0.00  0.00    -0.153 OA
ATOM     19  O   LIG    1       24.162 -31.351  14.014  0.00  0.00    -0.153 OA
BRANCH  17  20
ATOM     20  C   LIG    1       24.878 -29.028  13.087  0.00  0.00    +0.126 A 
ATOM     21  C   LIG    1       23.599 -28.433  13.215  0.00  0.00    +0.057 A 
ATOM     22  N   LIG    1       22.438 -29.184  13.141  0.00  0.00    -0.342 N 
ATOM     23  H   LIG    1       22.543 -30.127  13.526  0.00  0.00    +0.146 HD
ATOM     24  C   LIG    1       21.089 -28.696  13.240  0.00  0.00    +0.105 C 
ATOM     25  C   LIG    1       21.019 -27.197  13.004  0.00  0.00    +0.007 C 
ATOM     26  C   LIG    1       22.234 -26.357  13.491  0.00  0.00    +0.041 C 
ATOM     27  C   LIG    1       19.725 -26.625  13.584  0.00  0.00    +0.009 C 
ATOM     28  C   LIG    1       23.565 -27.040  13.336  0.00  0.00    -0.024 A 
ATOM     29  C   LIG    1       24.765 -26.289  13.363  0.00  0.00    +0.005 A 
ATOM     30  C   LIG    1       26.012 -26.906  13.218  0.00  0.00    +0.002 A 
ATOM     31  C   LIG    1       26.058 -28.285  13.062  0.00  0.00    +0.030 A 
ENDBRANCH  17  20
ENDBRANCH  15  17
ENDBRANCH   1  15
BRANCH   1  32
ATOM     32  C   LIG    1       23.438 -33.413  11.323  0.00  0.00    +0.033 C 
BRANCH  32  33
ATOM     33  C   LIG    1       21.886 -33.093  11.930  0.00  0.00    +0.039 C 
BRANCH  33  34
ATOM     34  C   LIG    1       20.477 -33.690  11.253  0.00  0.00    +0.196 C 
BRANCH  34  35
ATOM     35  N   LIG    1       19.636 -32.817  10.296  0.00  0.00    -0.276 N 
ATOM     36  H   LIG    1       18.991 -33.320   9.692  0.00  0.00    +0.258 HD
BRANCH  35  37
ATOM     37  C   LIG    1       19.376 -31.450  10.261  0.00  0.00    +0.376 C 
ATOM     38  N   LIG    1       20.118 -30.399  10.329  0.00  0.00    -0.130 NA
ATOM     39  H   LIG    1       21.101 -30.601  10.445  0.00  0.00    +0.306 HD
BRANCH  37  40
ATOM     40  N   LIG    1       18.067 -31.066  10.236  0.00  0.00    -0.289 N 
ATOM     41  H   LIG    1       17.848 -30.921   9.241  0.00  0.00    +0.255 HD
ATOM     42  H   LIG    1       17.414 -31.785  10.528  0.00  0.00    +0.255 HD
ENDBRANCH  37  40
ENDBRANCH  35  37
ENDBRANCH  34  35
ENDBRANCH  33  34
ENDBRANCH  32  33
ENDBRANCH   1  32
TORSDOF 12
ENDMDL
