MODEL 1
REMARK VINA RESULT:       1.0      0.000      0.000
REMARK  Name = *****
REMARK                            x       y       z     vdW  Elec       q    Type
REMARK                         _______ _______ _______ _____ _____    ______ ____
ROOT
ATOM      1  C   LIG    1       26.029 -17.389   3.811  0.00  0.00    +0.117 C 
ENDROOT
BRANCH   1   2
ATOM      2  C   LIG    1       24.767 -18.274   3.810  0.00  0.00    -0.026 A 
ATOM      3  C   LIG    1       24.773 -19.604   3.360  0.00  0.00    +0.007 A 
ATOM      4  C   LIG    1       23.608 -20.380   3.401  0.00  0.00    +0.020 A 
ATOM      5  C   LIG    1       22.431 -19.847   3.921  0.00  0.00    +0.041 A 
ATOM      6 CL   LIG    1       21.007 -20.810   4.001  0.00  0.00    -0.084 Cl
ATOM      7  C   LIG    1       22.401 -18.535   4.382  0.00  0.00    +0.020 A 
ATOM      8  C   LIG    1       23.555 -17.752   4.310  0.00  0.00    +0.007 A 
ENDBRANCH   1   2
BRANCH   1  12
ATOM      9  N   LIG    1       26.120 -14.153   1.903  0.00  0.00    -0.298 NA
ATOM     10  C   LIG    1       27.248 -14.769   2.628  0.00  0.00    +0.100 C 
ATOM     11  C   LIG    1       26.958 -15.107   4.106  0.00  0.00    +0.100 C 
ATOM     12  N   LIG    1       25.781 -15.996   4.313  0.00  0.00    -0.289 NA
ATOM     13  C   LIG    1       24.641 -15.316   3.649  0.00  0.00    +0.100 C 
ATOM     14  C   LIG    1       24.884 -14.923   2.165  0.00  0.00    +0.100 C 
BRANCH   9  15
ATOM     15  C   LIG    1       25.931 -12.722   2.209  0.00  0.00    +0.112 C 
BRANCH  15  16
ATOM     16  C   LIG    1       24.504 -12.214   1.937  0.00  0.00    +0.175 C 
BRANCH  16  17
ATOM     17  O   LIG    1       24.025 -11.449   3.045  0.00  0.00    -0.376 OA
BRANCH  17  18
ATOM     18  C   LIG    1       23.856 -12.294   4.187  0.00  0.00    +0.187 C 
BRANCH  18  19
ATOM     19  C   LIG    1       24.563 -11.681   5.385  0.00  0.00    +0.184 C 
BRANCH  19  20
ATOM     20  O   LIG    1       25.605 -12.543   5.827  0.00  0.00    -0.393 OA
ATOM     21  H   LIG    1       25.311 -12.928   6.674  0.00  0.00    +0.209 HD
ENDBRANCH  19  20
ENDBRANCH  18  19
ENDBRANCH  17  18
ENDBRANCH  16  17
ENDBRANCH  15  16
ENDBRANCH   9  15
ENDBRANCH   1  12
BRANCH   1  22
ATOM     22  C   LIG    1       27.208 -18.083   4.529  0.00  0.00    -0.026 A 
ATOM     23  C   LIG    1       27.098 -19.392   5.034  0.00  0.00    +0.005 A 
ATOM     24  C   LIG    1       28.146 -19.978   5.744  0.00  0.00    +0.000 A 
ATOM     25  C   LIG    1       29.332 -19.277   5.937  0.00  0.00    +0.000 A 
ATOM     26  C   LIG    1       29.474 -17.993   5.411  0.00  0.00    +0.000 A 
ATOM     27  C   LIG    1       28.424 -17.398   4.709  0.00  0.00    +0.005 A 
ENDBRANCH   1  22
TORSDOF 9
ENDMDL
MODEL 2
REMARK VINA RESULT:       1.6      2.107      4.412
REMARK  Name = *****
REMARK                            x       y       z     vdW  Elec       q    Type
REMARK                         _______ _______ _______ _____ _____    ______ ____
ROOT
ATOM      1  C   LIG    1       25.008 -18.269   4.592  0.00  0.00    +0.117 C 
ENDROOT
BRANCH   1   2
ATOM      2  C   LIG    1       26.114 -19.106   5.264  0.00  0.00    -0.026 A 
ATOM      3  C   LIG    1       25.836 -20.213   6.083  0.00  0.00    +0.007 A 
ATOM      4  C   LIG    1       26.873 -20.962   6.653  0.00  0.00    +0.020 A 
ATOM      5  C   LIG    1       28.200 -20.633   6.387  0.00  0.00    +0.041 A 
ATOM      6 CL   LIG    1       29.475 -21.571   7.061  0.00  0.00    -0.084 Cl
ATOM      7  C   LIG    1       28.502 -19.548   5.571  0.00  0.00    +0.020 A 
ATOM      8  C   LIG    1       27.468 -18.782   5.030  0.00  0.00    +0.007 A 
ENDBRANCH   1   2
BRANCH   1  12
ATOM      9  N   LIG    1       26.145 -14.775   3.807  0.00  0.00    -0.298 NA
ATOM     10  C   LIG    1       24.758 -15.275   3.743  0.00  0.00    +0.100 C 
ATOM     11  C   LIG    1       24.566 -16.535   2.873  0.00  0.00    +0.100 C 
ATOM     12  N   LIG    1       25.419 -17.690   3.269  0.00  0.00    -0.289 NA
ATOM     13  C   LIG    1       26.815 -17.188   3.245  0.00  0.00    +0.100 C 
ATOM     14  C   LIG    1       27.065 -15.901   4.079  0.00  0.00    +0.100 C 
BRANCH   9  15
ATOM     15  C   LIG    1       26.560 -14.026   2.605  0.00  0.00    +0.112 C 
BRANCH  15  16
ATOM     16  C   LIG    1       25.433 -13.188   1.978  0.00  0.00    +0.175 C 
BRANCH  16  17
ATOM     17  O   LIG    1       25.194 -12.011   2.753  0.00  0.00    -0.376 OA
BRANCH  17  18
ATOM     18  C   LIG    1       23.866 -12.036   3.283  0.00  0.00    +0.187 C 
BRANCH  18  19
ATOM     19  C   LIG    1       23.918 -11.940   4.799  0.00  0.00    +0.184 C 
BRANCH  19  20
ATOM     20  O   LIG    1       25.180 -12.397   5.271  0.00  0.00    -0.393 OA
ATOM     21  H   LIG    1       25.010 -13.207   5.788  0.00  0.00    +0.209 HD
ENDBRANCH  19  20
ENDBRANCH  18  19
ENDBRANCH  17  18
ENDBRANCH  16  17
ENDBRANCH  15  16
ENDBRANCH   9  15
ENDBRANCH   1  12
BRANCH   1  22
ATOM     22  C   LIG    1       23.674 -19.046   4.518  0.00  0.00    -0.026 A 
ATOM     23  C   LIG    1       23.640 -20.437   4.313  0.00  0.00    +0.005 A 
ATOM     24  C   LIG    1       22.428 -21.114   4.176  0.00  0.00    +0.000 A 
ATOM     25  C   LIG    1       21.228 -20.414   4.268  0.00  0.00    +0.000 A 
ATOM     26  C   LIG    1       21.242 -19.041   4.508  0.00  0.00    +0.000 A 
ATOM     27  C   LIG    1       22.453 -18.358   4.636  0.00  0.00    +0.005 A 
ENDBRANCH   1  22
TORSDOF 9
ENDMDL
