MODEL 1
REMARK VINA RESULT:       1.8      0.000      0.000
REMARK  Name = *****
REMARK                            x       y       z     vdW  Elec       q    Type
REMARK                         _______ _______ _______ _____ _____    ______ ____
ROOT
ATOM      1  C   LIG    1       26.383 -17.147   3.394  0.00  0.00    +0.051 C 
ATOM      2  C   LIG    1       25.942 -15.698   3.232  0.00  0.00    -0.026 A 
ATOM      3  C   LIG    1       24.819 -15.199   3.917  0.00  0.00    +0.017 A 
ATOM      4  C   LIG    1       24.462 -13.852   3.786  0.00  0.00    +0.015 A 
ATOM      5  C   LIG    1       25.198 -13.001   2.962  0.00  0.00    +0.001 A 
ATOM      6  C   LIG    1       26.293 -13.493   2.259  0.00  0.00    +0.000 A 
ATOM      7  S   LIG    1       23.790 -16.259   4.918  0.00  0.00    -0.089 S 
ATOM      8  C   LIG    1       24.004 -17.807   4.051  0.00  0.00    +0.017 A 
ATOM      9  C   LIG    1       22.951 -18.728   4.060  0.00  0.00    +0.015 A 
ATOM     10  C   LIG    1       23.061 -19.933   3.367  0.00  0.00    +0.001 A 
ATOM     11  C   LIG    1       24.227 -20.225   2.663  0.00  0.00    +0.000 A 
ATOM     12  C   LIG    1       25.289 -19.319   2.660  0.00  0.00    +0.005 A 
ATOM     13  C   LIG    1       26.662 -14.831   2.391  0.00  0.00    +0.005 A 
ATOM     14  C   LIG    1       25.192 -18.103   3.356  0.00  0.00    -0.026 A 
ENDROOT
BRANCH   1  15
ATOM     15  C   LIG    1       27.193 -17.404   4.695  0.00  0.00    +0.017 C 
BRANCH  15  19
ATOM     16  C   LIG    1       26.361 -20.096   6.699  0.00  0.00    +0.105 C 
ATOM     17  N   LIG    1       27.675 -20.405   6.157  0.00  0.00    -0.305 NA
ATOM     18  C   LIG    1       27.898 -19.923   4.792  0.00  0.00    +0.087 C 
ATOM     19  C   LIG    1       28.326 -18.451   4.615  0.00  0.00    +0.004 C 
ATOM     20  C   LIG    1       29.451 -18.107   5.610  0.00  0.00    +0.006 C 
ATOM     21  C   LIG    1       29.120 -18.554   7.030  0.00  0.00    +0.016 C 
ATOM     22  C   LIG    1       28.767 -20.039   7.062  0.00  0.00    +0.084 C 
ENDBRANCH  15  19
ENDBRANCH   1  15
TORSDOF 2
ENDMDL
