MODEL 1
REMARK VINA RESULT:      -8.3      0.000      0.000
REMARK  Name = *****
REMARK                            x       y       z     vdW  Elec       q    Type
REMARK                         _______ _______ _______ _____ _____    ______ ____
ROOT
ATOM      1  C   LIG    1       30.000 -19.856   7.001  0.00  0.00    +0.132 A 
ATOM      2  C   LIG    1       29.065 -20.068   8.002  0.00  0.00    +0.050 A 
ATOM      3  C   LIG    1       27.699 -20.078   7.697  0.00  0.00    -0.040 A 
ATOM      4  C   LIG    1       26.741 -20.350   8.809  0.00  0.00    +0.036 C 
ATOM      5  C   LIG    1       25.663 -21.273   8.287  0.00  0.00    +0.009 C 
ATOM      6  C   LIG    1       24.847 -20.574   7.184  0.00  0.00    +0.001 C 
ATOM      7  C   LIG    1       25.760 -20.070   6.010  0.00  0.00    +0.023 C 
ATOM      8  C   LIG    1       25.664 -20.980   4.774  0.00  0.00    +0.009 C 
ATOM      9  C   LIG    1       24.240 -21.238   4.328  0.00  0.00    +0.011 C 
ATOM     10  C   LIG    1       23.343 -21.898   5.374  0.00  0.00    +0.008 C 
ATOM     11  C   LIG    1       21.881 -21.670   4.889  0.00  0.00    +0.015 C 
ATOM     12  C   LIG    1       23.485 -23.455   5.559  0.00  0.00    +0.183 C 
ATOM     13  C   LIG    1       23.801 -23.671   7.036  0.00  0.00    +0.045 C 
ATOM     14  C   LIG    1       23.114 -22.487   7.700  0.00  0.00    +0.008 C 
ATOM     15  C   LIG    1       23.500 -21.293   6.804  0.00  0.00    +0.002 C 
ATOM     16  C   LIG    1       27.245 -19.868   6.383  0.00  0.00    -0.041 A 
ATOM     17  C   LIG    1       28.209 -19.540   5.410  0.00  0.00    +0.008 A 
ATOM     18  C   LIG    1       29.579 -19.552   5.711  0.00  0.00    +0.046 A 
ENDROOT
BRANCH   1  19
ATOM     19  O   LIG    1       31.377 -19.809   7.279  0.00  0.00    -0.426 OA
BRANCH  19  20
ATOM     20  C   LIG    1       31.818 -19.277   8.497  0.00  0.00    +0.312 C 
ATOM     21  O   LIG    1       32.149 -19.894   9.495  0.00  0.00    -0.250 OA
BRANCH  20  22
ATOM     22  C   LIG    1       31.768 -17.770   8.416  0.00  0.00    +0.121 C 
BRANCH  22  23
ATOM     23  C   LIG    1       31.099 -17.179   9.653  0.00  0.00    +0.011 C 
BRANCH  23  24
ATOM     24  C   LIG    1       32.119 -16.463  10.544  0.00  0.00    +0.000 C 
BRANCH  24  25
ATOM     25  C   LIG    1       31.976 -16.811  12.028  0.00  0.00    -0.000 C 
BRANCH  25  27
ATOM     26  C   LIG    1       32.392 -16.075  14.409  0.00  0.00    +0.004 C 
ATOM     27  C   LIG    1       32.709 -15.829  12.944  0.00  0.00    -0.003 C 
ENDBRANCH  25  27
ENDBRANCH  24  25
ENDBRANCH  23  24
ENDBRANCH  22  23
ENDBRANCH  20  22
ENDBRANCH  19  20
ENDBRANCH   1  19
BRANCH  12  28
ATOM     28  O   LIG    1       24.435 -24.073   4.683  0.00  0.00    -0.461 OA
BRANCH  28  29
ATOM     29  C   LIG    1       25.141 -25.101   5.249  0.00  0.00    +0.307 C 
ATOM     30  O   LIG    1       26.258 -25.004   5.741  0.00  0.00    -0.251 OA
BRANCH  29  31
ATOM     31  C   LIG    1       24.336 -26.380   5.266  0.00  0.00    +0.120 C 
BRANCH  31  32
ATOM     32  C   LIG    1       25.147 -27.595   5.702  0.00  0.00    +0.011 C 
BRANCH  32  33
ATOM     33  C   LIG    1       24.300 -28.589   6.512  0.00  0.00    +0.000 C 
BRANCH  33  34
ATOM     34  C   LIG    1       24.769 -30.034   6.299  0.00  0.00    -0.000 C 
BRANCH  34  35
ATOM     35  C   LIG    1       24.828 -30.817   7.613  0.00  0.00    -0.003 C 
ATOM     36  C   LIG    1       24.065 -30.117   8.730  0.00  0.00    +0.004 C 
ENDBRANCH  34  35
ENDBRANCH  33  34
ENDBRANCH  32  33
ENDBRANCH  31  32
ENDBRANCH  29  31
ENDBRANCH  28  29
ENDBRANCH  12  28
TORSDOF 14
ENDMDL
MODEL 2
REMARK VINA RESULT:      -8.3      3.860      8.593
REMARK  Name = *****
REMARK                            x       y       z     vdW  Elec       q    Type
REMARK                         _______ _______ _______ _____ _____    ______ ____
ROOT
ATOM      1  C   LIG    1       24.637 -24.447   6.057  0.00  0.00    +0.132 A 
ATOM      2  C   LIG    1       24.134 -25.620   5.516  0.00  0.00    +0.050 A 
ATOM      3  C   LIG    1       24.671 -26.856   5.896  0.00  0.00    -0.040 A 
ATOM      4  C   LIG    1       24.065 -28.087   5.309  0.00  0.00    +0.036 C 
ATOM      5  C   LIG    1       23.956 -29.125   6.402  0.00  0.00    +0.009 C 
ATOM      6  C   LIG    1       25.357 -29.534   6.894  0.00  0.00    +0.001 C 
ATOM      7  C   LIG    1       26.189 -28.297   7.387  0.00  0.00    +0.023 C 
ATOM      8  C   LIG    1       26.249 -28.218   8.921  0.00  0.00    +0.009 C 
ATOM      9  C   LIG    1       26.695 -29.509   9.573  0.00  0.00    +0.011 C 
ATOM     10  C   LIG    1       25.815 -30.723   9.275  0.00  0.00    +0.008 C 
ATOM     11  C   LIG    1       26.665 -31.971   9.654  0.00  0.00    +0.015 C 
ATOM     12  C   LIG    1       24.481 -30.859  10.100  0.00  0.00    +0.183 C 
ATOM     13  C   LIG    1       23.362 -30.950   9.067  0.00  0.00    +0.045 C 
ATOM     14  C   LIG    1       24.057 -31.600   7.880  0.00  0.00    +0.008 C 
ATOM     15  C   LIG    1       25.393 -30.836   7.777  0.00  0.00    +0.002 C 
ATOM     16  C   LIG    1       25.727 -26.937   6.821  0.00  0.00    -0.041 A 
ATOM     17  C   LIG    1       26.293 -25.726   7.265  0.00  0.00    +0.008 A 
ATOM     18  C   LIG    1       25.740 -24.489   6.901  0.00  0.00    +0.046 A 
ENDROOT
BRANCH   1  19
ATOM     19  O   LIG    1       24.141 -23.189   5.673  0.00  0.00    -0.426 OA
BRANCH  19  20
ATOM     20  C   LIG    1       23.142 -22.576   6.439  0.00  0.00    +0.312 C 
ATOM     21  O   LIG    1       22.191 -23.115   6.978  0.00  0.00    -0.250 OA
BRANCH  20  22
ATOM     22  C   LIG    1       23.387 -21.086   6.457  0.00  0.00    +0.121 C 
BRANCH  22  23
ATOM     23  C   LIG    1       24.880 -20.779   6.507  0.00  0.00    +0.011 C 
BRANCH  23  24
ATOM     24  C   LIG    1       25.400 -20.802   7.947  0.00  0.00    +0.000 C 
BRANCH  24  25
ATOM     25  C   LIG    1       26.882 -20.431   8.062  0.00  0.00    -0.000 C 
BRANCH  25  27
ATOM     26  C   LIG    1       28.923 -20.715   6.601  0.00  0.00    +0.004 C 
ATOM     27  C   LIG    1       27.802 -21.420   7.343  0.00  0.00    -0.003 C 
ENDBRANCH  25  27
ENDBRANCH  24  25
ENDBRANCH  23  24
ENDBRANCH  22  23
ENDBRANCH  20  22
ENDBRANCH  19  20
ENDBRANCH   1  19
BRANCH  12  28
ATOM     28  O   LIG    1       24.272 -29.823  11.066  0.00  0.00    -0.461 OA
BRANCH  28  29
ATOM     29  C   LIG    1       24.417 -30.225  12.367  0.00  0.00    +0.307 C 
ATOM     30  O   LIG    1       23.959 -31.256  12.843  0.00  0.00    -0.251 OA
BRANCH  29  31
ATOM     31  C   LIG    1       25.289 -29.269  13.148  0.00  0.00    +0.120 C 
BRANCH  31  32
ATOM     32  C   LIG    1       25.169 -27.824  12.677  0.00  0.00    +0.011 C 
BRANCH  32  33
ATOM     33  C   LIG    1       24.842 -26.869  13.836  0.00  0.00    +0.000 C 
BRANCH  33  34
ATOM     34  C   LIG    1       23.376 -26.990  14.270  0.00  0.00    -0.000 C 
BRANCH  34  35
ATOM     35  C   LIG    1       22.417 -26.431  13.216  0.00  0.00    -0.003 C 
ATOM     36  C   LIG    1       21.165 -27.287  13.071  0.00  0.00    +0.004 C 
ENDBRANCH  34  35
ENDBRANCH  33  34
ENDBRANCH  32  33
ENDBRANCH  31  32
ENDBRANCH  29  31
ENDBRANCH  28  29
ENDBRANCH  12  28
TORSDOF 14
ENDMDL
MODEL 3
REMARK VINA RESULT:      -8.2      5.083      9.193
REMARK  Name = *****
REMARK                            x       y       z     vdW  Elec       q    Type
REMARK                         _______ _______ _______ _____ _____    ______ ____
ROOT
ATOM      1  C   LIG    1       24.747 -24.746   6.061  0.00  0.00    +0.132 A 
ATOM      2  C   LIG    1       24.192 -25.902   5.535  0.00  0.00    +0.050 A 
ATOM      3  C   LIG    1       24.669 -27.156   5.936  0.00  0.00    -0.040 A 
ATOM      4  C   LIG    1       24.008 -28.366   5.365  0.00  0.00    +0.036 C 
ATOM      5  C   LIG    1       23.847 -29.382   6.473  0.00  0.00    +0.009 C 
ATOM      6  C   LIG    1       25.226 -29.848   6.977  0.00  0.00    +0.001 C 
ATOM      7  C   LIG    1       26.114 -28.644   7.454  0.00  0.00    +0.023 C 
ATOM      8  C   LIG    1       26.172 -28.545   8.987  0.00  0.00    +0.009 C 
ATOM      9  C   LIG    1       26.555 -29.846   9.659  0.00  0.00    +0.011 C 
ATOM     10  C   LIG    1       25.621 -31.021   9.377  0.00  0.00    +0.008 C 
ATOM     11  C   LIG    1       26.411 -32.302   9.777  0.00  0.00    +0.015 C 
ATOM     12  C   LIG    1       24.279 -31.082  10.198  0.00  0.00    +0.183 C 
ATOM     13  C   LIG    1       23.160 -31.137   9.162  0.00  0.00    +0.045 C 
ATOM     14  C   LIG    1       23.828 -31.836   7.987  0.00  0.00    +0.008 C 
ATOM     15  C   LIG    1       25.198 -31.137   7.879  0.00  0.00    +0.002 C 
ATOM     16  C   LIG    1       25.717 -27.272   6.866  0.00  0.00    -0.041 A 
ATOM     17  C   LIG    1       26.337 -26.083   7.294  0.00  0.00    +0.008 A 
ATOM     18  C   LIG    1       25.845 -24.826   6.909  0.00  0.00    +0.046 A 
ENDROOT
BRANCH   1  19
ATOM     19  O   LIG    1       24.311 -23.472   5.656  0.00  0.00    -0.426 OA
BRANCH  19  20
ATOM     20  C   LIG    1       23.379 -22.779   6.438  0.00  0.00    +0.312 C 
ATOM     21  O   LIG    1       22.357 -23.222   6.932  0.00  0.00    -0.250 OA
BRANCH  20  22
ATOM     22  C   LIG    1       23.807 -21.335   6.540  0.00  0.00    +0.121 C 
BRANCH  22  23
ATOM     23  C   LIG    1       25.251 -21.160   6.080  0.00  0.00    +0.011 C 
BRANCH  23  24
ATOM     24  C   LIG    1       25.325 -20.314   4.805  0.00  0.00    +0.000 C 
BRANCH  24  25
ATOM     25  C   LIG    1       24.006 -20.274   4.027  0.00  0.00    -0.000 C 
BRANCH  25  27
ATOM     26  C   LIG    1       22.226 -18.539   4.477  0.00  0.00    +0.004 C 
ATOM     27  C   LIG    1       23.522 -18.849   3.748  0.00  0.00    -0.003 C 
ENDBRANCH  25  27
ENDBRANCH  24  25
ENDBRANCH  23  24
ENDBRANCH  22  23
ENDBRANCH  20  22
ENDBRANCH  19  20
ENDBRANCH   1  19
BRANCH  12  28
ATOM     28  O   LIG    1       24.116 -30.023  11.148  0.00  0.00    -0.461 OA
BRANCH  28  29
ATOM     29  C   LIG    1       24.200 -30.419  12.456  0.00  0.00    +0.307 C 
ATOM     30  O   LIG    1       23.858 -31.512  12.887  0.00  0.00    -0.251 OA
BRANCH  29  31
ATOM     31  C   LIG    1       24.848 -29.356  13.314  0.00  0.00    +0.120 C 
BRANCH  31  32
ATOM     32  C   LIG    1       25.123 -28.060  12.561  0.00  0.00    +0.011 C 
BRANCH  32  33
ATOM     33  C   LIG    1       24.856 -26.823  13.434  0.00  0.00    +0.000 C 
BRANCH  33  34
ATOM     34  C   LIG    1       23.500 -26.916  14.144  0.00  0.00    -0.000 C 
BRANCH  34  35
ATOM     35  C   LIG    1       22.349 -26.457  13.246  0.00  0.00    -0.003 C 
ATOM     36  C   LIG    1       21.379 -27.591  12.938  0.00  0.00    +0.004 C 
ENDBRANCH  34  35
ENDBRANCH  33  34
ENDBRANCH  32  33
ENDBRANCH  31  32
ENDBRANCH  29  31
ENDBRANCH  28  29
ENDBRANCH  12  28
TORSDOF 14
ENDMDL
MODEL 4
REMARK VINA RESULT:      -8.2      5.442      9.243
REMARK  Name = *****
REMARK                            x       y       z     vdW  Elec       q    Type
REMARK                         _______ _______ _______ _____ _____    ______ ____
ROOT
ATOM      1  C   LIG    1       24.819 -24.913   5.917  0.00  0.00    +0.132 A 
ATOM      2  C   LIG    1       24.244 -26.080   5.438  0.00  0.00    +0.050 A 
ATOM      3  C   LIG    1       24.680 -27.324   5.909  0.00  0.00    -0.040 A 
ATOM      4  C   LIG    1       23.998 -28.544   5.386  0.00  0.00    +0.036 C 
ATOM      5  C   LIG    1       23.789 -29.498   6.539  0.00  0.00    +0.009 C 
ATOM      6  C   LIG    1       25.145 -29.974   7.093  0.00  0.00    +0.001 C 
ATOM      7  C   LIG    1       26.055 -28.771   7.529  0.00  0.00    +0.023 C 
ATOM      8  C   LIG    1       26.086 -28.596   9.056  0.00  0.00    +0.009 C 
ATOM      9  C   LIG    1       26.421 -29.872   9.800  0.00  0.00    +0.011 C 
ATOM     10  C   LIG    1       25.462 -31.035   9.556  0.00  0.00    +0.008 C 
ATOM     11  C   LIG    1       26.209 -32.314  10.036  0.00  0.00    +0.015 C 
ATOM     12  C   LIG    1       24.103 -31.021  10.352  0.00  0.00    +0.183 C 
ATOM     13  C   LIG    1       23.003 -31.099   9.297  0.00  0.00    +0.045 C 
ATOM     14  C   LIG    1       23.675 -31.873   8.172  0.00  0.00    +0.008 C 
ATOM     15  C   LIG    1       25.065 -31.215   8.058  0.00  0.00    +0.002 C 
ATOM     16  C   LIG    1       25.706 -27.421   6.866  0.00  0.00    -0.041 A 
ATOM     17  C   LIG    1       26.350 -26.227   7.247  0.00  0.00    +0.008 A 
ATOM     18  C   LIG    1       25.898 -24.980   6.791  0.00  0.00    +0.046 A 
ENDROOT
BRANCH   1  19
ATOM     19  O   LIG    1       24.426 -23.651   5.440  0.00  0.00    -0.426 OA
BRANCH  19  20
ATOM     20  C   LIG    1       24.769 -22.502   6.164  0.00  0.00    +0.312 C 
ATOM     21  O   LIG    1       25.823 -21.890   6.122  0.00  0.00    -0.250 OA
BRANCH  20  22
ATOM     22  C   LIG    1       23.624 -22.146   7.083  0.00  0.00    +0.121 C 
BRANCH  22  23
ATOM     23  C   LIG    1       23.119 -20.735   6.804  0.00  0.00    +0.011 C 
BRANCH  23  24
ATOM     24  C   LIG    1       22.599 -20.607   5.370  0.00  0.00    +0.000 C 
BRANCH  24  25
ATOM     25  C   LIG    1       22.485 -19.155   4.894  0.00  0.00    -0.000 C 
BRANCH  25  27
ATOM     26  C   LIG    1       24.402 -19.976   3.467  0.00  0.00    +0.004 C 
ATOM     27  C   LIG    1       23.470 -18.816   3.773  0.00  0.00    -0.003 C 
ENDBRANCH  25  27
ENDBRANCH  24  25
ENDBRANCH  23  24
ENDBRANCH  22  23
ENDBRANCH  20  22
ENDBRANCH  19  20
ENDBRANCH   1  19
BRANCH  12  28
ATOM     28  O   LIG    1       23.950 -29.912  11.245  0.00  0.00    -0.461 OA
BRANCH  28  29
ATOM     29  C   LIG    1       23.782 -30.262  12.558  0.00  0.00    +0.307 C 
ATOM     30  O   LIG    1       24.671 -30.648  13.305  0.00  0.00    -0.251 OA
BRANCH  29  31
ATOM     31  C   LIG    1       22.357 -30.041  13.011  0.00  0.00    +0.120 C 
BRANCH  31  32
ATOM     32  C   LIG    1       21.755 -28.741  12.489  0.00  0.00    +0.011 C 
BRANCH  32  33
ATOM     33  C   LIG    1       21.646 -27.677  13.593  0.00  0.00    +0.000 C 
BRANCH  33  34
ATOM     34  C   LIG    1       22.406 -26.398  13.219  0.00  0.00    -0.000 C 
BRANCH  34  35
ATOM     35  C   LIG    1       23.671 -26.215  14.061  0.00  0.00    -0.003 C 
ATOM     36  C   LIG    1       24.896 -26.823  13.389  0.00  0.00    +0.004 C 
ENDBRANCH  34  35
ENDBRANCH  33  34
ENDBRANCH  32  33
ENDBRANCH  31  32
ENDBRANCH  29  31
ENDBRANCH  28  29
ENDBRANCH  12  28
TORSDOF 14
ENDMDL
MODEL 5
REMARK VINA RESULT:      -8.1      6.695     12.330
REMARK  Name = *****
REMARK                            x       y       z     vdW  Elec       q    Type
REMARK                         _______ _______ _______ _____ _____    ______ ____
ROOT
ATOM      1  C   LIG    1       21.035 -27.306  13.908  0.00  0.00    +0.132 A 
ATOM      2  C   LIG    1       22.414 -27.220  14.024  0.00  0.00    +0.050 A 
ATOM      3  C   LIG    1       23.233 -28.147  13.369  0.00  0.00    -0.040 A 
ATOM      4  C   LIG    1       24.711 -27.982  13.499  0.00  0.00    +0.036 C 
ATOM      5  C   LIG    1       25.335 -28.245  12.148  0.00  0.00    +0.009 C 
ATOM      6  C   LIG    1       25.106 -29.710  11.728  0.00  0.00    +0.001 C 
ATOM      7  C   LIG    1       23.581 -30.084  11.716  0.00  0.00    +0.023 C 
ATOM      8  C   LIG    1       23.012 -30.135  10.288  0.00  0.00    +0.009 C 
ATOM      9  C   LIG    1       23.826 -31.000   9.349  0.00  0.00    +0.011 C 
ATOM     10  C   LIG    1       25.284 -30.576   9.177  0.00  0.00    +0.008 C 
ATOM     11  C   LIG    1       26.016 -31.803   8.557  0.00  0.00    +0.015 C 
ATOM     12  C   LIG    1       25.570 -29.378   8.196  0.00  0.00    +0.183 C 
ATOM     13  C   LIG    1       26.327 -28.340   9.019  0.00  0.00    +0.045 C 
ATOM     14  C   LIG    1       27.060 -29.196  10.041  0.00  0.00    +0.008 C 
ATOM     15  C   LIG    1       25.986 -30.195  10.517  0.00  0.00    +0.002 C 
ATOM     16  C   LIG    1       22.684 -29.182  12.591  0.00  0.00    -0.041 A 
ATOM     17  C   LIG    1       21.282 -29.313  12.586  0.00  0.00    +0.008 A 
ATOM     18  C   LIG    1       20.461 -28.371  13.225  0.00  0.00    +0.046 A 
ENDROOT
BRANCH   1  19
ATOM     19  O   LIG    1       20.184 -26.409  14.578  0.00  0.00    -0.426 OA
BRANCH  19  20
ATOM     20  C   LIG    1       18.821 -26.379  14.256  0.00  0.00    +0.312 C 
ATOM     21  O   LIG    1       18.281 -25.706  13.395  0.00  0.00    -0.250 OA
BRANCH  20  22
ATOM     22  C   LIG    1       18.078 -27.291  15.202  0.00  0.00    +0.121 C 
BRANCH  22  23
ATOM     23  C   LIG    1       16.844 -27.886  14.531  0.00  0.00    +0.011 C 
BRANCH  23  24
ATOM     24  C   LIG    1       17.015 -29.389  14.292  0.00  0.00    +0.000 C 
BRANCH  24  25
ATOM     25  C   LIG    1       15.849 -30.016  13.523  0.00  0.00    -0.000 C 
BRANCH  25  27
ATOM     26  C   LIG    1       17.788 -31.133  12.350  0.00  0.00    +0.004 C 
ATOM     27  C   LIG    1       16.289 -31.150  12.594  0.00  0.00    -0.003 C 
ENDBRANCH  25  27
ENDBRANCH  24  25
ENDBRANCH  23  24
ENDBRANCH  22  23
ENDBRANCH  20  22
ENDBRANCH  19  20
ENDBRANCH   1  19
BRANCH  12  28
ATOM     28  O   LIG    1       24.406 -28.847   7.553  0.00  0.00    -0.461 OA
BRANCH  28  29
ATOM     29  C   LIG    1       24.252 -29.238   6.250  0.00  0.00    +0.307 C 
ATOM     30  O   LIG    1       23.344 -29.942   5.825  0.00  0.00    -0.251 OA
BRANCH  29  31
ATOM     31  C   LIG    1       25.310 -28.627   5.360  0.00  0.00    +0.120 C 
BRANCH  31  32
ATOM     32  C   LIG    1       25.119 -27.131   5.138  0.00  0.00    +0.011 C 
BRANCH  32  33
ATOM     33  C   LIG    1       26.165 -26.301   5.898  0.00  0.00    +0.000 C 
BRANCH  33  34
ATOM     34  C   LIG    1       25.523 -25.110   6.621  0.00  0.00    -0.000 C 
BRANCH  34  35
ATOM     35  C   LIG    1       23.999 -25.103   6.475  0.00  0.00    -0.003 C 
ATOM     36  C   LIG    1       23.416 -23.706   6.643  0.00  0.00    +0.004 C 
ENDBRANCH  34  35
ENDBRANCH  33  34
ENDBRANCH  32  33
ENDBRANCH  31  32
ENDBRANCH  29  31
ENDBRANCH  28  29
ENDBRANCH  12  28
TORSDOF 14
ENDMDL
MODEL 6
REMARK VINA RESULT:      -7.7      5.794     10.843
REMARK  Name = *****
REMARK                            x       y       z     vdW  Elec       q    Type
REMARK                         _______ _______ _______ _____ _____    ______ ____
ROOT
ATOM      1  C   LIG    1       25.090 -29.074   6.791  0.00  0.00    +0.132 A 
ATOM      2  C   LIG    1       24.336 -30.227   6.942  0.00  0.00    +0.050 A 
ATOM      3  C   LIG    1       24.184 -30.807   8.207  0.00  0.00    -0.040 A 
ATOM      4  C   LIG    1       23.330 -32.026   8.315  0.00  0.00    +0.036 C 
ATOM      5  C   LIG    1       22.491 -31.905   9.566  0.00  0.00    +0.009 C 
ATOM      6  C   LIG    1       23.390 -31.904  10.817  0.00  0.00    +0.001 C 
ATOM      7  C   LIG    1       24.470 -30.765  10.761  0.00  0.00    +0.023 C 
ATOM      8  C   LIG    1       24.102 -29.580  11.669  0.00  0.00    +0.009 C 
ATOM      9  C   LIG    1       23.769 -29.991  13.088  0.00  0.00    +0.011 C 
ATOM     10  C   LIG    1       22.601 -30.966  13.222  0.00  0.00    +0.008 C 
ATOM     11  C   LIG    1       22.715 -31.576  14.651  0.00  0.00    +0.015 C 
ATOM     12  C   LIG    1       21.150 -30.361  13.140  0.00  0.00    +0.183 C 
ATOM     13  C   LIG    1       20.449 -31.116  12.014  0.00  0.00    +0.045 C 
ATOM     14  C   LIG    1       21.134 -32.474  12.047  0.00  0.00    +0.008 C 
ATOM     15  C   LIG    1       22.630 -32.124  12.177  0.00  0.00    +0.002 C 
ATOM     16  C   LIG    1       24.791 -30.244   9.344  0.00  0.00    -0.041 A 
ATOM     17  C   LIG    1       25.644 -29.142   9.142  0.00  0.00    +0.008 A 
ATOM     18  C   LIG    1       25.779 -28.548   7.878  0.00  0.00    +0.046 A 
ENDROOT
BRANCH   1  19
ATOM     19  O   LIG    1       25.288 -28.485   5.530  0.00  0.00    -0.426 OA
BRANCH  19  20
ATOM     20  C   LIG    1       25.601 -27.123   5.446  0.00  0.00    +0.312 C 
ATOM     21  O   LIG    1       26.684 -26.630   5.179  0.00  0.00    -0.250 OA
BRANCH  20  22
ATOM     22  C   LIG    1       24.375 -26.318   5.801  0.00  0.00    +0.121 C 
BRANCH  22  23
ATOM     23  C   LIG    1       24.599 -24.833   5.535  0.00  0.00    +0.011 C 
BRANCH  23  24
ATOM     24  C   LIG    1       24.383 -24.005   6.805  0.00  0.00    +0.000 C 
BRANCH  24  25
ATOM     25  C   LIG    1       23.153 -23.094   6.731  0.00  0.00    -0.000 C 
BRANCH  25  27
ATOM     26  C   LIG    1       23.113 -20.608   6.281  0.00  0.00    +0.004 C 
ATOM     27  C   LIG    1       23.412 -21.696   7.297  0.00  0.00    -0.003 C 
ENDBRANCH  25  27
ENDBRANCH  24  25
ENDBRANCH  23  24
ENDBRANCH  22  23
ENDBRANCH  20  22
ENDBRANCH  19  20
ENDBRANCH   1  19
BRANCH  12  28
ATOM     28  O   LIG    1       21.108 -28.939  12.977  0.00  0.00    -0.461 OA
BRANCH  28  29
ATOM     29  C   LIG    1       20.719 -28.253  14.095  0.00  0.00    +0.307 C 
ATOM     30  O   LIG    1       19.697 -28.466  14.735  0.00  0.00    -0.251 OA
BRANCH  29  31
ATOM     31  C   LIG    1       21.753 -27.228  14.503  0.00  0.00    +0.120 C 
BRANCH  31  32
ATOM     32  C   LIG    1       22.398 -26.521  13.318  0.00  0.00    +0.011 C 
BRANCH  32  33
ATOM     33  C   LIG    1       23.670 -25.760  13.728  0.00  0.00    +0.000 C 
BRANCH  33  34
ATOM     34  C   LIG    1       24.882 -26.696  13.820  0.00  0.00    -0.000 C 
BRANCH  34  35
ATOM     35  C   LIG    1       26.118 -26.102  13.140  0.00  0.00    -0.003 C 
ATOM     36  C   LIG    1       26.795 -27.103  12.213  0.00  0.00    +0.004 C 
ENDBRANCH  34  35
ENDBRANCH  33  34
ENDBRANCH  32  33
ENDBRANCH  31  32
ENDBRANCH  29  31
ENDBRANCH  28  29
ENDBRANCH  12  28
TORSDOF 14
ENDMDL
MODEL 7
REMARK VINA RESULT:      -7.6      2.123      9.676
REMARK  Name = *****
REMARK                            x       y       z     vdW  Elec       q    Type
REMARK                         _______ _______ _______ _____ _____    ______ ____
ROOT
ATOM      1  C   LIG    1       25.181 -27.611   5.280  0.00  0.00    +0.132 A 
ATOM      2  C   LIG    1       24.093 -26.760   5.395  0.00  0.00    +0.050 A 
ATOM      3  C   LIG    1       24.170 -25.628   6.215  0.00  0.00    -0.040 A 
ATOM      4  C   LIG    1       22.981 -24.727   6.270  0.00  0.00    +0.036 C 
ATOM      5  C   LIG    1       23.472 -23.298   6.250  0.00  0.00    +0.009 C 
ATOM      6  C   LIG    1       24.293 -22.996   7.518  0.00  0.00    +0.001 C 
ATOM      7  C   LIG    1       25.495 -23.992   7.689  0.00  0.00    +0.023 C 
ATOM      8  C   LIG    1       26.836 -23.346   7.303  0.00  0.00    +0.009 C 
ATOM      9  C   LIG    1       27.084 -22.020   7.989  0.00  0.00    +0.011 C 
ATOM     10  C   LIG    1       26.035 -20.943   7.716  0.00  0.00    +0.008 C 
ATOM     11  C   LIG    1       26.231 -19.863   8.821  0.00  0.00    +0.015 C 
ATOM     12  C   LIG    1       26.145 -20.168   6.349  0.00  0.00    +0.183 C 
ATOM     13  C   LIG    1       24.798 -20.353   5.657  0.00  0.00    +0.045 C 
ATOM     14  C   LIG    1       23.839 -20.496   6.830  0.00  0.00    +0.008 C 
ATOM     15  C   LIG    1       24.567 -21.468   7.779  0.00  0.00    +0.002 C 
ATOM     16  C   LIG    1       25.338 -25.333   6.941  0.00  0.00    -0.041 A 
ATOM     17  C   LIG    1       26.383 -26.276   6.896  0.00  0.00    +0.008 A 
ATOM     18  C   LIG    1       26.314 -27.399   6.057  0.00  0.00    +0.046 A 
ENDROOT
BRANCH   1  19
ATOM     19  O   LIG    1       25.125 -28.773   4.490  0.00  0.00    -0.426 OA
BRANCH  19  20
ATOM     20  C   LIG    1       25.188 -30.030   5.104  0.00  0.00    +0.312 C 
ATOM     21  O   LIG    1       25.897 -30.970   4.788  0.00  0.00    -0.250 OA
BRANCH  20  22
ATOM     22  C   LIG    1       24.173 -30.078   6.220  0.00  0.00    +0.121 C 
BRANCH  22  23
ATOM     23  C   LIG    1       24.806 -30.580   7.513  0.00  0.00    +0.011 C 
BRANCH  23  24
ATOM     24  C   LIG    1       24.580 -29.591   8.660  0.00  0.00    +0.000 C 
BRANCH  24  25
ATOM     25  C   LIG    1       25.618 -29.713   9.779  0.00  0.00    -0.000 C 
BRANCH  25  27
ATOM     26  C   LIG    1       26.842 -27.918  11.069  0.00  0.00    +0.004 C 
ATOM     27  C   LIG    1       26.682 -28.614   9.729  0.00  0.00    -0.003 C 
ENDBRANCH  25  27
ENDBRANCH  24  25
ENDBRANCH  23  24
ENDBRANCH  22  23
ENDBRANCH  20  22
ENDBRANCH  19  20
ENDBRANCH   1  19
BRANCH  12  28
ATOM     28  O   LIG    1       27.256 -20.558   5.533  0.00  0.00    -0.461 OA
BRANCH  28  29
ATOM     29  C   LIG    1       28.335 -19.719   5.609  0.00  0.00    +0.307 C 
ATOM     30  O   LIG    1       28.425 -18.631   5.054  0.00  0.00    -0.251 OA
BRANCH  29  31
ATOM     31  C   LIG    1       29.396 -20.265   6.537  0.00  0.00    +0.120 C 
BRANCH  31  32
ATOM     32  C   LIG    1       29.688 -19.350   7.721  0.00  0.00    +0.011 C 
BRANCH  32  33
ATOM     33  C   LIG    1       31.074 -18.695   7.610  0.00  0.00    +0.000 C 
BRANCH  33  34
ATOM     34  C   LIG    1       31.505 -18.060   8.938  0.00  0.00    -0.000 C 
BRANCH  34  35
ATOM     35  C   LIG    1       30.378 -17.247   9.579  0.00  0.00    -0.003 C 
ATOM     36  C   LIG    1       30.646 -16.960  11.050  0.00  0.00    +0.004 C 
ENDBRANCH  34  35
ENDBRANCH  33  34
ENDBRANCH  32  33
ENDBRANCH  31  32
ENDBRANCH  29  31
ENDBRANCH  28  29
ENDBRANCH  12  28
TORSDOF 14
ENDMDL
MODEL 8
REMARK VINA RESULT:      -7.4      6.195     11.774
REMARK  Name = *****
REMARK                            x       y       z     vdW  Elec       q    Type
REMARK                         _______ _______ _______ _____ _____    ______ ____
ROOT
ATOM      1  C   LIG    1       20.834 -30.337  13.944  0.00  0.00    +0.132 A 
ATOM      2  C   LIG    1       22.200 -30.244  14.160  0.00  0.00    +0.050 A 
ATOM      3  C   LIG    1       23.098 -30.746  13.211  0.00  0.00    -0.040 A 
ATOM      4  C   LIG    1       24.557 -30.583  13.480  0.00  0.00    +0.036 C 
ATOM      5  C   LIG    1       25.234 -30.192  12.186  0.00  0.00    +0.009 C 
ATOM      6  C   LIG    1       25.116 -31.330  11.155  0.00  0.00    +0.001 C 
ATOM      7  C   LIG    1       23.621 -31.735  10.897  0.00  0.00    +0.023 C 
ATOM      8  C   LIG    1       23.096 -31.179   9.563  0.00  0.00    +0.009 C 
ATOM      9  C   LIG    1       23.992 -31.500   8.385  0.00  0.00    +0.011 C 
ATOM     10  C   LIG    1       25.421 -30.973   8.496  0.00  0.00    +0.008 C 
ATOM     11  C   LIG    1       26.252 -31.762   7.441  0.00  0.00    +0.015 C 
ATOM     12  C   LIG    1       25.652 -29.453   8.157  0.00  0.00    +0.183 C 
ATOM     13  C   LIG    1       26.315 -28.848   9.392  0.00  0.00    +0.045 C 
ATOM     14  C   LIG    1       27.076 -30.030   9.973  0.00  0.00    +0.008 C 
ATOM     15  C   LIG    1       26.060 -31.187   9.903  0.00  0.00    +0.002 C 
ATOM     16  C   LIG    1       22.642 -31.357  12.029  0.00  0.00    -0.041 A 
ATOM     17  C   LIG    1       21.252 -31.542  11.891  0.00  0.00    +0.008 A 
ATOM     18  C   LIG    1       20.352 -31.019  12.833  0.00  0.00    +0.046 A 
ENDROOT
BRANCH   1  19
ATOM     19  O   LIG    1       19.906 -29.872  14.892  0.00  0.00    -0.426 OA
BRANCH  19  20
ATOM     20  C   LIG    1       19.032 -28.832  14.551  0.00  0.00    +0.312 C 
ATOM     21  O   LIG    1       17.908 -28.934  14.090  0.00  0.00    -0.250 OA
BRANCH  20  22
ATOM     22  C   LIG    1       19.728 -27.514  14.790  0.00  0.00    +0.121 C 
BRANCH  22  23
ATOM     23  C   LIG    1       19.860 -26.723  13.492  0.00  0.00    +0.011 C 
BRANCH  23  24
ATOM     24  C   LIG    1       21.267 -26.858  12.903  0.00  0.00    +0.000 C 
BRANCH  24  25
ATOM     25  C   LIG    1       22.378 -26.554  13.912  0.00  0.00    -0.000 C 
BRANCH  25  27
ATOM     26  C   LIG    1       24.781 -25.798  13.719  0.00  0.00    +0.004 C 
ATOM     27  C   LIG    1       23.774 -26.883  13.380  0.00  0.00    -0.003 C 
ENDBRANCH  25  27
ENDBRANCH  24  25
ENDBRANCH  23  24
ENDBRANCH  22  23
ENDBRANCH  20  22
ENDBRANCH  19  20
ENDBRANCH   1  19
BRANCH  12  28
ATOM     28  O   LIG    1       24.472 -28.750   7.750  0.00  0.00    -0.461 OA
BRANCH  28  29
ATOM     29  C   LIG    1       24.420 -28.460   6.413  0.00  0.00    +0.307 C 
ATOM     30  O   LIG    1       24.270 -29.281   5.517  0.00  0.00    -0.251 OA
BRANCH  29  31
ATOM     31  C   LIG    1       24.494 -26.970   6.167  0.00  0.00    +0.120 C 
BRANCH  31  32
ATOM     32  C   LIG    1       25.864 -26.377   6.475  0.00  0.00    +0.011 C 
BRANCH  32  33
ATOM     33  C   LIG    1       25.798 -24.854   6.668  0.00  0.00    +0.000 C 
BRANCH  33  34
ATOM     34  C   LIG    1       24.355 -24.338   6.596  0.00  0.00    -0.000 C 
BRANCH  34  35
ATOM     35  C   LIG    1       24.296 -22.819   6.424  0.00  0.00    -0.003 C 
ATOM     36  C   LIG    1       23.177 -22.194   7.248  0.00  0.00    +0.004 C 
ENDBRANCH  34  35
ENDBRANCH  33  34
ENDBRANCH  32  33
ENDBRANCH  31  32
ENDBRANCH  29  31
ENDBRANCH  28  29
ENDBRANCH  12  28
TORSDOF 14
ENDMDL
MODEL 9
REMARK VINA RESULT:      -7.0      5.294      9.496
REMARK  Name = *****
REMARK                            x       y       z     vdW  Elec       q    Type
REMARK                         _______ _______ _______ _____ _____    ______ ____
ROOT
ATOM      1  C   LIG    1       24.717 -25.147   6.064  0.00  0.00    +0.132 A 
ATOM      2  C   LIG    1       24.211 -26.293   5.473  0.00  0.00    +0.050 A 
ATOM      3  C   LIG    1       24.674 -27.553   5.872  0.00  0.00    -0.040 A 
ATOM      4  C   LIG    1       24.064 -28.753   5.228  0.00  0.00    +0.036 C 
ATOM      5  C   LIG    1       23.841 -29.799   6.296  0.00  0.00    +0.009 C 
ATOM      6  C   LIG    1       25.189 -30.267   6.878  0.00  0.00    +0.001 C 
ATOM      7  C   LIG    1       26.030 -29.068   7.444  0.00  0.00    +0.023 C 
ATOM      8  C   LIG    1       25.985 -29.008   8.980  0.00  0.00    +0.009 C 
ATOM      9  C   LIG    1       26.337 -30.323   9.642  0.00  0.00    +0.011 C 
ATOM     10  C   LIG    1       25.436 -31.499   9.268  0.00  0.00    +0.008 C 
ATOM     11  C   LIG    1       26.210 -32.783   9.687  0.00  0.00    +0.015 C 
ATOM     12  C   LIG    1       24.043 -31.593   9.997  0.00  0.00    +0.183 C 
ATOM     13  C   LIG    1       22.996 -31.631   8.888  0.00  0.00    +0.045 C 
ATOM     14  C   LIG    1       23.747 -32.293   7.743  0.00  0.00    +0.008 C 
ATOM     15  C   LIG    1       25.114 -31.579   7.743  0.00  0.00    +0.002 C 
ATOM     16  C   LIG    1       25.659 -27.685   6.867  0.00  0.00    -0.041 A 
ATOM     17  C   LIG    1       26.237 -26.501   7.365  0.00  0.00    +0.008 A 
ATOM     18  C   LIG    1       25.757 -25.240   6.981  0.00  0.00    +0.046 A 
ENDROOT
BRANCH   1  19
ATOM     19  O   LIG    1       24.297 -23.866   5.664  0.00  0.00    -0.426 OA
BRANCH  19  20
ATOM     20  C   LIG    1       23.321 -23.195   6.411  0.00  0.00    +0.312 C 
ATOM     21  O   LIG    1       22.282 -23.656   6.851  0.00  0.00    -0.250 OA
BRANCH  20  22
ATOM     22  C   LIG    1       23.726 -21.747   6.551  0.00  0.00    +0.121 C 
BRANCH  22  23
ATOM     23  C   LIG    1       25.075 -21.491   5.886  0.00  0.00    +0.011 C 
BRANCH  23  24
ATOM     24  C   LIG    1       24.907 -20.714   4.577  0.00  0.00    +0.000 C 
BRANCH  24  25
ATOM     25  C   LIG    1       23.461 -20.282   4.311  0.00  0.00    -0.000 C 
BRANCH  25  27
ATOM     26  C   LIG    1       21.847 -18.339   4.253  0.00  0.00    +0.004 C 
ATOM     27  C   LIG    1       23.304 -18.764   4.195  0.00  0.00    -0.003 C 
ENDBRANCH  25  27
ENDBRANCH  24  25
ENDBRANCH  23  24
ENDBRANCH  22  23
ENDBRANCH  20  22
ENDBRANCH  19  20
ENDBRANCH   1  19
BRANCH  12  28
ATOM     28  O   LIG    1       23.806 -30.561  10.961  0.00  0.00    -0.461 OA
BRANCH  28  29
ATOM     29  C   LIG    1       23.494 -31.018  12.213  0.00  0.00    +0.307 C 
ATOM     30  O   LIG    1       24.117 -31.872  12.830  0.00  0.00    -0.251 OA
BRANCH  29  31
ATOM     31  C   LIG    1       22.311 -30.276  12.792  0.00  0.00    +0.120 C 
BRANCH  31  32
ATOM     32  C   LIG    1       21.175 -31.198  13.221  0.00  0.00    +0.011 C 
BRANCH  32  33
ATOM     33  C   LIG    1       19.879 -30.908  12.448  0.00  0.00    +0.000 C 
BRANCH  33  34
ATOM     34  C   LIG    1       20.115 -30.906  10.932  0.00  0.00    -0.000 C 
BRANCH  34  35
ATOM     35  C   LIG    1       18.816 -31.111  10.149  0.00  0.00    -0.003 C 
ATOM     36  C   LIG    1       17.685 -31.609  11.039  0.00  0.00    +0.004 C 
ENDBRANCH  34  35
ENDBRANCH  33  34
ENDBRANCH  32  33
ENDBRANCH  31  32
ENDBRANCH  29  31
ENDBRANCH  28  29
ENDBRANCH  12  28
TORSDOF 14
ENDMDL
