MODEL 1
REMARK VINA RESULT:      -9.6      0.000      0.000
REMARK  Name = *****
REMARK                            x       y       z     vdW  Elec       q    Type
REMARK                         _______ _______ _______ _____ _____    ______ ____
ROOT
ATOM      1  C   LIG    1       24.585 -20.080   4.729  0.00  0.00    +0.065 C 
ATOM      2  C   LIG    1       25.511 -21.226   5.309  0.00  0.00    +0.096 C 
ATOM      3  C   LIG    1       24.702 -22.414   5.926  0.00  0.00    +0.065 C 
ATOM      4  C   LIG    1       23.431 -22.191   6.347  0.00  0.00    +0.016 C 
ATOM      5  C   LIG    1       22.531 -23.234   6.989  0.00  0.00    +0.061 C 
ATOM      6  N   LIG    1       22.859 -20.938   6.151  0.00  0.00    -0.321 N 
ATOM      7  H   LIG    1       21.862 -20.893   6.358  0.00  0.00    +0.152 HD
ATOM      8  C   LIG    1       23.308 -20.024   5.196  0.00  0.00    +0.016 C 
ATOM      9  C   LIG    1       22.231 -19.141   4.622  0.00  0.00    +0.061 C 
ENDROOT
BRANCH   2  10
ATOM     10  C   LIG    1       26.514 -20.635   6.267  0.00  0.00    -0.029 A 
ATOM     11  C   LIG    1       27.702 -20.060   5.818  0.00  0.00    +0.088 A 
ATOM     12  C   LIG    1       28.636 -19.633   6.748  0.00  0.00    +0.273 A 
ATOM     13  C   LIG    1       28.379 -19.742   8.120  0.00  0.00    +0.084 A 
ATOM     14  C   LIG    1       27.170 -20.266   8.565  0.00  0.00    +0.007 A 
ATOM     15  C   LIG    1       26.239 -20.694   7.641  0.00  0.00    +0.005 A 
BRANCH  12  16
ATOM     16  N   LIG    1       29.915 -19.117   6.270  0.00  0.00    +0.080 N 
ATOM     17  O   LIG    1       30.953 -19.637   6.707  0.00  0.00    -0.576 OA
ATOM     18  O   LIG    1       29.885 -18.177   5.465  0.00  0.00    +0.041 OA
ENDBRANCH  12  16
ENDBRANCH   2  10
BRANCH   1  19
ATOM     19  C   LIG    1       25.019 -19.434   3.379  0.00  0.00    +0.338 C 
ATOM     20  O   LIG    1       24.918 -20.003   2.292  0.00  0.00    -0.245 OA
BRANCH  19  21
ATOM     21  O   LIG    1       25.029 -18.075   3.513  0.00  0.00    -0.459 OA
BRANCH  21  22
ATOM     22  C   LIG    1       26.238 -17.257   3.331  0.00  0.00    +0.260 C 
BRANCH  22  23
ATOM     23  C   LIG    1       26.035 -15.706   3.449  0.00  0.00    +0.200 C 
BRANCH  23  25
ATOM     24  C   LIG    1       27.288 -13.839   3.006  0.00  0.00    +0.194 C 
ATOM     25  O   LIG    1       26.582 -14.876   2.415  0.00  0.00    -0.380 OA
ENDBRANCH  23  25
ENDBRANCH  22  23
ENDBRANCH  21  22
ENDBRANCH  19  21
ENDBRANCH   1  19
BRANCH   3  26
ATOM     26  C   LIG    1       25.292 -23.772   5.924  0.00  0.00    +0.338 C 
ATOM     27  O   LIG    1       26.129 -24.178   6.801  0.00  0.00    -0.245 OA
BRANCH  26  28
ATOM     28  O   LIG    1       24.786 -24.539   4.954  0.00  0.00    -0.457 OA
BRANCH  28  29
ATOM     29  C   LIG    1       25.347 -25.855   4.757  0.00  0.00    +0.260 C 
BRANCH  29  30
ATOM     30  C   LIG    1       25.028 -26.834   5.836  0.00  0.00    +0.014 C 
ATOM     31  C   LIG    1       25.918 -27.449   6.632  0.00  0.00    +0.007 C 
BRANCH  31  32
ATOM     32  C   LIG    1       25.508 -28.387   7.690  0.00  0.00    -0.025 A 
ATOM     33  C   LIG    1       24.418 -29.258   7.546  0.00  0.00    +0.008 A 
ATOM     34  C   LIG    1       24.066 -30.140   8.568  0.00  0.00    +0.001 A 
ATOM     35  C   LIG    1       24.805 -30.166   9.747  0.00  0.00    +0.000 A 
ATOM     36  C   LIG    1       25.891 -29.308   9.904  0.00  0.00    +0.001 A 
ATOM     37  C   LIG    1       26.245 -28.427   8.878  0.00  0.00    +0.008 A 
ENDBRANCH  31  32
ENDBRANCH  29  30
ENDBRANCH  28  29
ENDBRANCH  26  28
ENDBRANCH   3  26
TORSDOF 12
ENDMDL
MODEL 2
REMARK VINA RESULT:      -8.0      3.037      7.455
REMARK  Name = *****
REMARK                            x       y       z     vdW  Elec       q    Type
REMARK                         _______ _______ _______ _____ _____    ______ ____
ROOT
ATOM      1  C   LIG    1       24.053 -20.668   4.971  0.00  0.00    +0.065 C 
ATOM      2  C   LIG    1       24.628 -21.266   6.320  0.00  0.00    +0.096 C 
ATOM      3  C   LIG    1       26.107 -20.835   6.597  0.00  0.00    +0.065 C 
ATOM      4  C   LIG    1       26.885 -20.454   5.553  0.00  0.00    +0.016 C 
ATOM      5  C   LIG    1       28.342 -20.036   5.659  0.00  0.00    +0.061 C 
ATOM      6  N   LIG    1       26.328 -20.385   4.280  0.00  0.00    -0.321 N 
ATOM      7  H   LIG    1       26.930 -19.953   3.579  0.00  0.00    +0.152 HD
ATOM      8  C   LIG    1       24.958 -20.261   4.040  0.00  0.00    +0.016 C 
ATOM      9  C   LIG    1       24.609 -19.492   2.794  0.00  0.00    +0.061 C 
ENDROOT
BRANCH   2  10
ATOM     10  C   LIG    1       24.436 -22.760   6.339  0.00  0.00    -0.029 A 
ATOM     11  C   LIG    1       25.434 -23.630   5.902  0.00  0.00    +0.088 A 
ATOM     12  C   LIG    1       25.162 -24.987   5.838  0.00  0.00    +0.273 A 
ATOM     13  C   LIG    1       23.917 -25.486   6.240  0.00  0.00    +0.084 A 
ATOM     14  C   LIG    1       22.942 -24.622   6.727  0.00  0.00    +0.007 A 
ATOM     15  C   LIG    1       23.210 -23.269   6.790  0.00  0.00    +0.005 A 
BRANCH  12  16
ATOM     16  N   LIG    1       26.180 -25.881   5.293  0.00  0.00    +0.080 N 
ATOM     17  O   LIG    1       25.971 -26.393   4.182  0.00  0.00    -0.576 OA
ATOM     18  O   LIG    1       27.187 -26.085   5.983  0.00  0.00    +0.041 OA
ENDBRANCH  12  16
ENDBRANCH   2  10
BRANCH   1  19
ATOM     19  C   LIG    1       22.579 -20.159   4.994  0.00  0.00    +0.338 C 
ATOM     20  O   LIG    1       21.604 -20.910   5.015  0.00  0.00    -0.245 OA
BRANCH  19  21
ATOM     21  O   LIG    1       22.552 -18.883   5.478  0.00  0.00    -0.459 OA
BRANCH  21  22
ATOM     22  C   LIG    1       22.078 -17.734   4.691  0.00  0.00    +0.260 C 
BRANCH  22  23
ATOM     23  C   LIG    1       23.158 -16.649   4.352  0.00  0.00    +0.200 C 
BRANCH  23  25
ATOM     24  C   LIG    1       23.885 -14.484   4.150  0.00  0.00    +0.194 C 
ATOM     25  O   LIG    1       22.800 -15.269   4.516  0.00  0.00    -0.380 OA
ENDBRANCH  23  25
ENDBRANCH  22  23
ENDBRANCH  21  22
ENDBRANCH  19  21
ENDBRANCH   1  19
BRANCH   3  26
ATOM     26  C   LIG    1       26.583 -20.736   7.996  0.00  0.00    +0.338 C 
ATOM     27  O   LIG    1       26.088 -19.924   8.852  0.00  0.00    -0.245 OA
BRANCH  26  28
ATOM     28  O   LIG    1       27.522 -21.643   8.275  0.00  0.00    -0.457 OA
BRANCH  28  29
ATOM     29  C   LIG    1       28.897 -21.324   7.968  0.00  0.00    +0.260 C 
BRANCH  29  30
ATOM     30  C   LIG    1       29.441 -20.149   8.708  0.00  0.00    +0.014 C 
ATOM     31  C   LIG    1       30.617 -19.545   8.475  0.00  0.00    +0.007 C 
BRANCH  31  32
ATOM     32  C   LIG    1       31.065 -18.373   9.245  0.00  0.00    -0.025 A 
ATOM     33  C   LIG    1       32.152 -17.580   8.849  0.00  0.00    +0.008 A 
ATOM     34  C   LIG    1       32.541 -16.470   9.600  0.00  0.00    +0.001 A 
ATOM     35  C   LIG    1       31.842 -16.135  10.756  0.00  0.00    +0.000 A 
ATOM     36  C   LIG    1       30.758 -16.912  11.161  0.00  0.00    +0.001 A 
ATOM     37  C   LIG    1       30.367 -18.021  10.406  0.00  0.00    +0.008 A 
ENDBRANCH  31  32
ENDBRANCH  29  30
ENDBRANCH  28  29
ENDBRANCH  26  28
ENDBRANCH   3  26
TORSDOF 12
ENDMDL
MODEL 3
REMARK VINA RESULT:      -7.9      5.525     10.814
REMARK  Name = *****
REMARK                            x       y       z     vdW  Elec       q    Type
REMARK                         _______ _______ _______ _____ _____    ______ ____
ROOT
ATOM      1  C   LIG    1       23.530 -30.939   9.432  0.00  0.00    +0.065 C 
ATOM      2  C   LIG    1       24.387 -29.633   9.172  0.00  0.00    +0.096 C 
ATOM      3  C   LIG    1       24.903 -29.523   7.699  0.00  0.00    +0.065 C 
ATOM      4  C   LIG    1       25.017 -30.655   6.960  0.00  0.00    +0.016 C 
ATOM      5  C   LIG    1       25.526 -30.712   5.529  0.00  0.00    +0.061 C 
ATOM      6  N   LIG    1       24.602 -31.867   7.502  0.00  0.00    -0.321 N 
ATOM      7  H   LIG    1       24.582 -32.641   6.840  0.00  0.00    +0.152 HD
ATOM      8  C   LIG    1       23.700 -31.971   8.562  0.00  0.00    +0.016 C 
ATOM      9  C   LIG    1       22.837 -33.205   8.529  0.00  0.00    +0.061 C 
ENDROOT
BRANCH   2  10
ATOM     10  C   LIG    1       25.492 -29.536  10.193  0.00  0.00    -0.029 A 
ATOM     11  C   LIG    1       25.307 -28.881  11.409  0.00  0.00    +0.088 A 
ATOM     12  C   LIG    1       26.389 -28.726  12.261  0.00  0.00    +0.273 A 
ATOM     13  C   LIG    1       27.643 -29.251  11.926  0.00  0.00    +0.084 A 
ATOM     14  C   LIG    1       27.812 -29.952  10.737  0.00  0.00    +0.007 A 
ATOM     15  C   LIG    1       26.736 -30.106   9.885  0.00  0.00    +0.005 A 
BRANCH  12  16
ATOM     16  N   LIG    1       26.208 -27.958  13.490  0.00  0.00    +0.080 N 
ATOM     17  O   LIG    1       26.004 -26.739  13.390  0.00  0.00    -0.576 OA
ATOM     18  O   LIG    1       26.286 -28.573  14.562  0.00  0.00    +0.041 OA
ENDBRANCH  12  16
ENDBRANCH   2  10
BRANCH   1  19
ATOM     19  C   LIG    1       22.261 -30.788  10.325  0.00  0.00    +0.338 C 
ATOM     20  O   LIG    1       21.115 -30.941   9.903  0.00  0.00    -0.245 OA
BRANCH  19  21
ATOM     21  O   LIG    1       22.608 -30.968  11.633  0.00  0.00    -0.459 OA
BRANCH  21  22
ATOM     22  C   LIG    1       21.881 -30.346  12.751  0.00  0.00    +0.260 C 
BRANCH  22  23
ATOM     23  C   LIG    1       21.733 -28.786  12.684  0.00  0.00    +0.200 C 
BRANCH  23  25
ATOM     24  C   LIG    1       22.351 -26.654  13.256  0.00  0.00    +0.194 C 
ATOM     25  O   LIG    1       22.727 -27.987  13.342  0.00  0.00    -0.380 OA
ENDBRANCH  23  25
ENDBRANCH  22  23
ENDBRANCH  21  22
ENDBRANCH  19  21
ENDBRANCH   1  19
BRANCH   3  26
ATOM     26  C   LIG    1       25.136 -28.184   7.111  0.00  0.00    +0.338 C 
ATOM     27  O   LIG    1       26.225 -27.530   7.258  0.00  0.00    -0.245 OA
BRANCH  26  28
ATOM     28  O   LIG    1       24.116 -27.785   6.348  0.00  0.00    -0.457 OA
BRANCH  28  29
ATOM     29  C   LIG    1       24.384 -26.866   5.267  0.00  0.00    +0.260 C 
BRANCH  29  30
ATOM     30  C   LIG    1       24.604 -25.453   5.693  0.00  0.00    +0.014 C 
ATOM     31  C   LIG    1       23.821 -24.749   6.525  0.00  0.00    +0.007 C 
BRANCH  31  32
ATOM     32  C   LIG    1       24.129 -23.362   6.908  0.00  0.00    -0.025 A 
ATOM     33  C   LIG    1       25.402 -22.963   7.342  0.00  0.00    +0.008 A 
ATOM     34  C   LIG    1       25.659 -21.636   7.688  0.00  0.00    +0.001 A 
ATOM     35  C   LIG    1       24.645 -20.687   7.598  0.00  0.00    +0.000 A 
ATOM     36  C   LIG    1       23.376 -21.068   7.167  0.00  0.00    +0.001 A 
ATOM     37  C   LIG    1       23.120 -22.397   6.818  0.00  0.00    +0.008 A 
ENDBRANCH  31  32
ENDBRANCH  29  30
ENDBRANCH  28  29
ENDBRANCH  26  28
ENDBRANCH   3  26
TORSDOF 12
ENDMDL
MODEL 4
REMARK VINA RESULT:      -7.9      6.619     11.088
REMARK  Name = *****
REMARK                            x       y       z     vdW  Elec       q    Type
REMARK                         _______ _______ _______ _____ _____    ______ ____
ROOT
ATOM      1  C   LIG    1       22.872 -31.286   9.989  0.00  0.00    +0.065 C 
ATOM      2  C   LIG    1       23.841 -30.483   9.027  0.00  0.00    +0.096 C 
ATOM      3  C   LIG    1       24.259 -31.299   7.759  0.00  0.00    +0.065 C 
ATOM      4  C   LIG    1       24.199 -32.654   7.805  0.00  0.00    +0.016 C 
ATOM      5  C   LIG    1       24.595 -33.582   6.668  0.00  0.00    +0.061 C 
ATOM      6  N   LIG    1       23.699 -33.276   8.945  0.00  0.00    -0.321 N 
ATOM      7  H   LIG    1       23.550 -34.279   8.847  0.00  0.00    +0.152 HD
ATOM      8  C   LIG    1       22.869 -32.641   9.871  0.00  0.00    +0.016 C 
ATOM      9  C   LIG    1       21.881 -33.551  10.551  0.00  0.00    +0.061 C 
ENDROOT
BRANCH   2  10
ATOM     10  C   LIG    1       25.020 -29.963   9.808  0.00  0.00    -0.029 A 
ATOM     11  C   LIG    1       25.373 -30.504  11.044  0.00  0.00    +0.088 A 
ATOM     12  C   LIG    1       26.397 -29.915  11.768  0.00  0.00    +0.273 A 
ATOM     13  C   LIG    1       27.095 -28.816  11.254  0.00  0.00    +0.084 A 
ATOM     14  C   LIG    1       26.778 -28.313   9.997  0.00  0.00    +0.007 A 
ATOM     15  C   LIG    1       25.757 -28.896   9.274  0.00  0.00    +0.005 A 
BRANCH  12  16
ATOM     16  N   LIG    1       26.698 -30.429  13.101  0.00  0.00    +0.080 N 
ATOM     17  O   LIG    1       26.378 -31.599  13.360  0.00  0.00    -0.576 OA
ATOM     18  O   LIG    1       27.242 -29.656  13.901  0.00  0.00    +0.041 OA
ENDBRANCH  12  16
ENDBRANCH   2  10
BRANCH   1  19
ATOM     19  C   LIG    1       21.693 -30.492  10.630  0.00  0.00    +0.338 C 
ATOM     20  O   LIG    1       20.529 -30.580  10.244  0.00  0.00    -0.245 OA
BRANCH  19  21
ATOM     21  O   LIG    1       22.035 -30.129  11.902  0.00  0.00    -0.459 OA
BRANCH  21  22
ATOM     22  C   LIG    1       21.540 -28.905  12.549  0.00  0.00    +0.260 C 
BRANCH  22  23
ATOM     23  C   LIG    1       22.609 -28.074  13.341  0.00  0.00    +0.200 C 
BRANCH  23  25
ATOM     24  C   LIG    1       24.644 -27.039  13.545  0.00  0.00    +0.194 C 
ATOM     25  O   LIG    1       23.895 -27.881  12.736  0.00  0.00    -0.380 OA
ENDBRANCH  23  25
ENDBRANCH  22  23
ENDBRANCH  21  22
ENDBRANCH  19  21
ENDBRANCH   1  19
BRANCH   3  26
ATOM     26  C   LIG    1       24.589 -30.578   6.509  0.00  0.00    +0.338 C 
ATOM     27  O   LIG    1       25.432 -31.008   5.649  0.00  0.00    -0.245 OA
BRANCH  26  28
ATOM     28  O   LIG    1       23.847 -29.480   6.350  0.00  0.00    -0.457 OA
BRANCH  28  29
ATOM     29  C   LIG    1       24.313 -28.461   5.439  0.00  0.00    +0.260 C 
BRANCH  29  30
ATOM     30  C   LIG    1       24.543 -27.127   6.064  0.00  0.00    +0.014 C 
ATOM     31  C   LIG    1       24.051 -25.956   5.629  0.00  0.00    +0.007 C 
BRANCH  31  32
ATOM     32  C   LIG    1       24.313 -24.686   6.326  0.00  0.00    -0.025 A 
ATOM     33  C   LIG    1       23.308 -23.740   6.575  0.00  0.00    +0.008 A 
ATOM     34  C   LIG    1       23.593 -22.551   7.247  0.00  0.00    +0.001 A 
ATOM     35  C   LIG    1       24.889 -22.295   7.684  0.00  0.00    +0.000 A 
ATOM     36  C   LIG    1       25.898 -23.226   7.446  0.00  0.00    +0.001 A 
ATOM     37  C   LIG    1       25.611 -24.418   6.775  0.00  0.00    +0.008 A 
ENDBRANCH  31  32
ENDBRANCH  29  30
ENDBRANCH  28  29
ENDBRANCH  26  28
ENDBRANCH   3  26
TORSDOF 12
ENDMDL
MODEL 5
REMARK VINA RESULT:      -7.8      5.604     11.392
REMARK  Name = *****
REMARK                            x       y       z     vdW  Elec       q    Type
REMARK                         _______ _______ _______ _____ _____    ______ ____
ROOT
ATOM      1  C   LIG    1       23.876 -31.426   9.573  0.00  0.00    +0.065 C 
ATOM      2  C   LIG    1       24.423 -29.981   9.228  0.00  0.00    +0.096 C 
ATOM      3  C   LIG    1       24.844 -29.827   7.729  0.00  0.00    +0.065 C 
ATOM      4  C   LIG    1       25.166 -30.939   7.023  0.00  0.00    +0.016 C 
ATOM      5  C   LIG    1       25.617 -30.949   5.571  0.00  0.00    +0.061 C 
ATOM      6  N   LIG    1       25.042 -32.188   7.625  0.00  0.00    -0.321 N 
ATOM      7  H   LIG    1       25.161 -32.976   6.990  0.00  0.00    +0.152 HD
ATOM      8  C   LIG    1       24.227 -32.436   8.730  0.00  0.00    +0.016 C 
ATOM      9  C   LIG    1       23.647 -33.824   8.780  0.00  0.00    +0.061 C 
ENDROOT
BRANCH   2  10
ATOM     10  C   LIG    1       25.522 -29.609  10.190  0.00  0.00    -0.029 A 
ATOM     11  C   LIG    1       25.263 -28.872  11.345  0.00  0.00    +0.088 A 
ATOM     12  C   LIG    1       26.326 -28.463  12.134  0.00  0.00    +0.273 A 
ATOM     13  C   LIG    1       27.640 -28.815  11.801  0.00  0.00    +0.084 A 
ATOM     14  C   LIG    1       27.891 -29.597  10.678  0.00  0.00    +0.007 A 
ATOM     15  C   LIG    1       26.834 -30.003   9.889  0.00  0.00    +0.005 A 
BRANCH  12  16
ATOM     16  N   LIG    1       26.055 -27.614  13.290  0.00  0.00    +0.080 N 
ATOM     17  O   LIG    1       25.834 -28.166  14.379  0.00  0.00    -0.576 OA
ATOM     18  O   LIG    1       26.045 -26.389  13.107  0.00  0.00    +0.041 OA
ENDBRANCH  12  16
ENDBRANCH   2  10
BRANCH   1  19
ATOM     19  C   LIG    1       22.641 -31.510  10.521  0.00  0.00    +0.338 C 
ATOM     20  O   LIG    1       22.732 -31.656  11.739  0.00  0.00    -0.245 OA
BRANCH  19  21
ATOM     21  O   LIG    1       21.570 -30.917   9.916  0.00  0.00    -0.459 OA
BRANCH  21  22
ATOM     22  C   LIG    1       20.296 -30.663  10.606  0.00  0.00    +0.260 C 
BRANCH  22  23
ATOM     23  C   LIG    1       19.366 -31.911  10.802  0.00  0.00    +0.200 C 
BRANCH  23  25
ATOM     24  C   LIG    1       18.223 -33.234   9.319  0.00  0.00    +0.194 C 
ATOM     25  O   LIG    1       19.477 -32.987   9.860  0.00  0.00    -0.380 OA
ENDBRANCH  23  25
ENDBRANCH  22  23
ENDBRANCH  21  22
ENDBRANCH  19  21
ENDBRANCH   1  19
BRANCH   3  26
ATOM     26  C   LIG    1       24.761 -28.496   7.086  0.00  0.00    +0.338 C 
ATOM     27  O   LIG    1       23.736 -28.089   6.439  0.00  0.00    -0.245 OA
BRANCH  26  28
ATOM     28  O   LIG    1       25.841 -27.750   7.331  0.00  0.00    -0.457 OA
BRANCH  28  29
ATOM     29  C   LIG    1       26.255 -26.791   6.334  0.00  0.00    +0.260 C 
BRANCH  29  30
ATOM     30  C   LIG    1       25.974 -25.369   6.685  0.00  0.00    +0.014 C 
ATOM     31  C   LIG    1       24.813 -24.723   6.495  0.00  0.00    +0.007 C 
BRANCH  31  32
ATOM     32  C   LIG    1       24.620 -23.320   6.895  0.00  0.00    -0.025 A 
ATOM     33  C   LIG    1       23.401 -22.647   6.724  0.00  0.00    +0.008 A 
ATOM     34  C   LIG    1       23.253 -21.318   7.124  0.00  0.00    +0.001 A 
ATOM     35  C   LIG    1       24.324 -20.647   7.708  0.00  0.00    +0.000 A 
ATOM     36  C   LIG    1       25.540 -21.302   7.885  0.00  0.00    +0.001 A 
ATOM     37  C   LIG    1       25.686 -22.634   7.487  0.00  0.00    +0.008 A 
ENDBRANCH  31  32
ENDBRANCH  29  30
ENDBRANCH  28  29
ENDBRANCH  26  28
ENDBRANCH   3  26
TORSDOF 12
ENDMDL
MODEL 6
REMARK VINA RESULT:      -7.4      6.217     11.586
REMARK  Name = *****
REMARK                            x       y       z     vdW  Elec       q    Type
REMARK                         _______ _______ _______ _____ _____    ______ ____
ROOT
ATOM      1  C   LIG    1       22.659 -31.173  10.558  0.00  0.00    +0.065 C 
ATOM      2  C   LIG    1       23.653 -29.993  10.202  0.00  0.00    +0.096 C 
ATOM      3  C   LIG    1       24.597 -30.330   9.000  0.00  0.00    +0.065 C 
ATOM      4  C   LIG    1       24.839 -31.631   8.704  0.00  0.00    +0.016 C 
ATOM      5  C   LIG    1       25.751 -32.115   7.587  0.00  0.00    +0.061 C 
ATOM      6  N   LIG    1       24.187 -32.627   9.425  0.00  0.00    -0.321 N 
ATOM      7  H   LIG    1       24.308 -33.567   9.050  0.00  0.00    +0.152 HD
ATOM      8  C   LIG    1       23.002 -32.419  10.133  0.00  0.00    +0.016 C 
ATOM      9  C   LIG    1       22.096 -33.620  10.200  0.00  0.00    +0.061 C 
ENDROOT
BRANCH   2  10
ATOM     10  C   LIG    1       24.402 -29.566  11.438  0.00  0.00    -0.029 A 
ATOM     11  C   LIG    1       25.709 -29.988  11.681  0.00  0.00    +0.088 A 
ATOM     12  C   LIG    1       26.309 -29.656  12.885  0.00  0.00    +0.273 A 
ATOM     13  C   LIG    1       25.631 -28.877  13.831  0.00  0.00    +0.084 A 
ATOM     14  C   LIG    1       24.348 -28.412  13.562  0.00  0.00    +0.007 A 
ATOM     15  C   LIG    1       23.747 -28.743  12.365  0.00  0.00    +0.005 A 
BRANCH  12  16
ATOM     16  N   LIG    1       27.642 -30.179  13.171  0.00  0.00    +0.080 N 
ATOM     17  O   LIG    1       28.590 -29.766  12.484  0.00  0.00    -0.576 OA
ATOM     18  O   LIG    1       27.743 -31.019  14.075  0.00  0.00    +0.041 OA
ENDBRANCH  12  16
ENDBRANCH   2  10
BRANCH   1  19
ATOM     19  C   LIG    1       21.195 -30.780  10.924  0.00  0.00    +0.338 C 
ATOM     20  O   LIG    1       20.276 -30.755  10.106  0.00  0.00    -0.245 OA
BRANCH  19  21
ATOM     21  O   LIG    1       21.001 -30.968  12.263  0.00  0.00    -0.459 OA
BRANCH  21  22
ATOM     22  C   LIG    1       19.878 -30.373  13.004  0.00  0.00    +0.260 C 
BRANCH  22  23
ATOM     23  C   LIG    1       20.209 -29.068  13.808  0.00  0.00    +0.200 C 
BRANCH  23  25
ATOM     24  C   LIG    1       18.009 -29.030  14.451  0.00  0.00    +0.194 C 
ATOM     25  O   LIG    1       19.116 -28.229  14.208  0.00  0.00    -0.380 OA
ENDBRANCH  23  25
ENDBRANCH  22  23
ENDBRANCH  21  22
ENDBRANCH  19  21
ENDBRANCH   1  19
BRANCH   3  26
ATOM     26  C   LIG    1       25.100 -29.232   8.143  0.00  0.00    +0.338 C 
ATOM     27  O   LIG    1       26.163 -28.570   8.399  0.00  0.00    -0.245 OA
BRANCH  26  28
ATOM     28  O   LIG    1       24.362 -29.074   7.042  0.00  0.00    -0.457 OA
BRANCH  28  29
ATOM     29  C   LIG    1       24.820 -28.145   6.036  0.00  0.00    +0.260 C 
BRANCH  29  30
ATOM     30  C   LIG    1       24.416 -26.728   6.270  0.00  0.00    +0.014 C 
ATOM     31  C   LIG    1       25.238 -25.714   6.584  0.00  0.00    +0.007 C 
BRANCH  31  32
ATOM     32  C   LIG    1       24.751 -24.338   6.775  0.00  0.00    -0.025 A 
ATOM     33  C   LIG    1       23.396 -23.994   6.664  0.00  0.00    +0.008 A 
ATOM     34  C   LIG    1       22.971 -22.680   6.862  0.00  0.00    +0.001 A 
ATOM     35  C   LIG    1       23.898 -21.692   7.180  0.00  0.00    +0.000 A 
ATOM     36  C   LIG    1       25.247 -22.018   7.295  0.00  0.00    +0.001 A 
ATOM     37  C   LIG    1       25.672 -23.336   7.100  0.00  0.00    +0.008 A 
ENDBRANCH  31  32
ENDBRANCH  29  30
ENDBRANCH  28  29
ENDBRANCH  26  28
ENDBRANCH   3  26
TORSDOF 12
ENDMDL
MODEL 7
REMARK VINA RESULT:      -7.1      5.897     11.634
REMARK  Name = *****
REMARK                            x       y       z     vdW  Elec       q    Type
REMARK                         _______ _______ _______ _____ _____    ______ ____
ROOT
ATOM      1  C   LIG    1       24.238 -31.375  11.467  0.00  0.00    +0.065 C 
ATOM      2  C   LIG    1       24.426 -30.085  10.569  0.00  0.00    +0.096 C 
ATOM      3  C   LIG    1       25.062 -30.399   9.174  0.00  0.00    +0.065 C 
ATOM      4  C   LIG    1       25.800 -31.528   9.031  0.00  0.00    +0.016 C 
ATOM      5  C   LIG    1       26.500 -31.954   7.750  0.00  0.00    +0.061 C 
ATOM      6  N   LIG    1       25.909 -32.410  10.101  0.00  0.00    -0.321 N 
ATOM      7  H   LIG    1       26.354 -33.298   9.872  0.00  0.00    +0.152 HD
ATOM      8  C   LIG    1       25.000 -32.458  11.159  0.00  0.00    +0.016 C 
ATOM      9  C   LIG    1       24.820 -33.825  11.766  0.00  0.00    +0.061 C 
ENDROOT
BRANCH   2  10
ATOM     10  C   LIG    1       25.184 -29.033  11.338  0.00  0.00    -0.029 A 
ATOM     11  C   LIG    1       24.549 -28.212  12.270  0.00  0.00    +0.088 A 
ATOM     12  C   LIG    1       25.270 -27.190  12.865  0.00  0.00    +0.273 A 
ATOM     13  C   LIG    1       26.626 -27.004  12.567  0.00  0.00    +0.084 A 
ATOM     14  C   LIG    1       27.270 -27.858  11.679  0.00  0.00    +0.007 A 
ATOM     15  C   LIG    1       26.553 -28.876  11.082  0.00  0.00    +0.005 A 
BRANCH  12  16
ATOM     16  N   LIG    1       24.576 -26.277  13.769  0.00  0.00    +0.080 N 
ATOM     17  O   LIG    1       23.384 -26.023  13.537  0.00  0.00    -0.576 OA
ATOM     18  O   LIG    1       25.228 -25.799  14.707  0.00  0.00    +0.041 OA
ENDBRANCH  12  16
ENDBRANCH   2  10
BRANCH   1  19
ATOM     19  C   LIG    1       22.917 -31.478  12.290  0.00  0.00    +0.338 C 
ATOM     20  O   LIG    1       22.890 -31.669  13.505  0.00  0.00    -0.245 OA
BRANCH  19  21
ATOM     21  O   LIG    1       21.912 -30.854  11.607  0.00  0.00    -0.459 OA
BRANCH  21  22
ATOM     22  C   LIG    1       20.514 -30.845  12.063  0.00  0.00    +0.260 C 
BRANCH  22  23
ATOM     23  C   LIG    1       19.608 -31.996  11.503  0.00  0.00    +0.200 C 
BRANCH  23  25
ATOM     24  C   LIG    1       19.104 -33.382   9.748  0.00  0.00    +0.194 C 
ATOM     25  O   LIG    1       19.420 -32.073  10.083  0.00  0.00    -0.380 OA
ENDBRANCH  23  25
ENDBRANCH  22  23
ENDBRANCH  21  22
ENDBRANCH  19  21
ENDBRANCH   1  19
BRANCH   3  26
ATOM     26  C   LIG    1       24.743 -29.528   8.019  0.00  0.00    +0.338 C 
ATOM     27  O   LIG    1       23.711 -29.686   7.282  0.00  0.00    -0.245 OA
BRANCH  26  28
ATOM     28  O   LIG    1       25.610 -28.521   7.893  0.00  0.00    -0.457 OA
BRANCH  28  29
ATOM     29  C   LIG    1       25.611 -27.765   6.663  0.00  0.00    +0.260 C 
BRANCH  29  30
ATOM     30  C   LIG    1       25.036 -26.393   6.777  0.00  0.00    +0.014 C 
ATOM     31  C   LIG    1       25.732 -25.246   6.809  0.00  0.00    +0.007 C 
BRANCH  31  32
ATOM     32  C   LIG    1       25.076 -23.931   6.901  0.00  0.00    -0.025 A 
ATOM     33  C   LIG    1       23.699 -23.758   6.695  0.00  0.00    +0.008 A 
ATOM     34  C   LIG    1       23.111 -22.497   6.800  0.00  0.00    +0.001 A 
ATOM     35  C   LIG    1       23.894 -21.392   7.119  0.00  0.00    +0.000 A 
ATOM     36  C   LIG    1       25.262 -21.548   7.328  0.00  0.00    +0.001 A 
ATOM     37  C   LIG    1       25.850 -22.812   7.225  0.00  0.00    +0.008 A 
ENDBRANCH  31  32
ENDBRANCH  29  30
ENDBRANCH  28  29
ENDBRANCH  26  28
ENDBRANCH   3  26
TORSDOF 12
ENDMDL
MODEL 8
REMARK VINA RESULT:      -7.1      4.944     11.115
REMARK  Name = *****
REMARK                            x       y       z     vdW  Elec       q    Type
REMARK                         _______ _______ _______ _____ _____    ______ ____
ROOT
ATOM      1  C   LIG    1       24.703 -30.676   6.497  0.00  0.00    +0.065 C 
ATOM      2  C   LIG    1       24.507 -29.234   7.120  0.00  0.00    +0.096 C 
ATOM      3  C   LIG    1       25.065 -28.092   6.207  0.00  0.00    +0.065 C 
ATOM      4  C   LIG    1       26.026 -28.393   5.297  0.00  0.00    +0.016 C 
ATOM      5  C   LIG    1       26.682 -27.391   4.360  0.00  0.00    +0.061 C 
ATOM      6  N   LIG    1       26.433 -29.715   5.149  0.00  0.00    -0.321 N 
ATOM      7  H   LIG    1       27.046 -29.880   4.351  0.00  0.00    +0.152 HD
ATOM      8  C   LIG    1       25.662 -30.810   5.541  0.00  0.00    +0.016 C 
ATOM      9  C   LIG    1       25.856 -32.044   4.699  0.00  0.00    +0.061 C 
ENDROOT
BRANCH   2  10
ATOM     10  C   LIG    1       25.072 -29.200   8.517  0.00  0.00    -0.029 A 
ATOM     11  C   LIG    1       24.348 -29.676   9.609  0.00  0.00    +0.088 A 
ATOM     12  C   LIG    1       24.870 -29.519  10.882  0.00  0.00    +0.273 A 
ATOM     13  C   LIG    1       26.124 -28.924  11.072  0.00  0.00    +0.084 A 
ATOM     14  C   LIG    1       26.868 -28.499   9.977  0.00  0.00    +0.007 A 
ATOM     15  C   LIG    1       26.349 -28.653   8.707  0.00  0.00    +0.005 A 
BRANCH  12  16
ATOM     16  N   LIG    1       24.065 -29.936  12.026  0.00  0.00    +0.080 N 
ATOM     17  O   LIG    1       24.138 -31.120  12.389  0.00  0.00    -0.576 OA
ATOM     18  O   LIG    1       23.342 -29.082  12.556  0.00  0.00    +0.041 OA
ENDBRANCH  12  16
ENDBRANCH   2  10
BRANCH   1  19
ATOM     19  C   LIG    1       23.524 -31.683   6.657  0.00  0.00    +0.338 C 
ATOM     20  O   LIG    1       22.903 -32.155   5.705  0.00  0.00    -0.245 OA
BRANCH  19  21
ATOM     21  O   LIG    1       23.627 -32.308   7.867  0.00  0.00    -0.459 OA
BRANCH  21  22
ATOM     22  C   LIG    1       24.641 -33.333   8.159  0.00  0.00    +0.260 C 
BRANCH  22  23
ATOM     23  C   LIG    1       25.214 -33.328   9.619  0.00  0.00    +0.200 C 
BRANCH  23  25
ATOM     24  C   LIG    1       27.097 -32.375   8.725  0.00  0.00    +0.194 C 
ATOM     25  O   LIG    1       26.356 -32.504   9.891  0.00  0.00    -0.380 OA
ENDBRANCH  23  25
ENDBRANCH  22  23
ENDBRANCH  21  22
ENDBRANCH  19  21
ENDBRANCH   1  19
BRANCH   3  26
ATOM     26  C   LIG    1       24.449 -26.747   6.270  0.00  0.00    +0.338 C 
ATOM     27  O   LIG    1       23.432 -26.405   5.575  0.00  0.00    -0.245 OA
BRANCH  26  28
ATOM     28  O   LIG    1       25.028 -25.971   7.190  0.00  0.00    -0.457 OA
BRANCH  28  29
ATOM     29  C   LIG    1       25.882 -24.896   6.743  0.00  0.00    +0.260 C 
BRANCH  29  30
ATOM     30  C   LIG    1       25.176 -23.605   6.494  0.00  0.00    +0.014 C 
ATOM     31  C   LIG    1       24.986 -23.027   5.298  0.00  0.00    +0.007 C 
BRANCH  31  32
ATOM     32  C   LIG    1       24.255 -21.758   5.145  0.00  0.00    -0.025 A 
ATOM     33  C   LIG    1       23.334 -21.298   6.098  0.00  0.00    +0.008 A 
ATOM     34  C   LIG    1       22.667 -20.085   5.923  0.00  0.00    +0.001 A 
ATOM     35  C   LIG    1       22.919 -19.312   4.793  0.00  0.00    +0.000 A 
ATOM     36  C   LIG    1       23.833 -19.755   3.839  0.00  0.00    +0.001 A 
ATOM     37  C   LIG    1       24.502 -20.969   4.017  0.00  0.00    +0.008 A 
ENDBRANCH  31  32
ENDBRANCH  29  30
ENDBRANCH  28  29
ENDBRANCH  26  28
ENDBRANCH   3  26
TORSDOF 12
ENDMDL
MODEL 9
REMARK VINA RESULT:      -7.0      5.942     11.595
REMARK  Name = *****
REMARK                            x       y       z     vdW  Elec       q    Type
REMARK                         _______ _______ _______ _____ _____    ______ ____
ROOT
ATOM      1  C   LIG    1       23.096 -31.045  10.572  0.00  0.00    +0.065 C 
ATOM      2  C   LIG    1       24.132 -29.865  10.372  0.00  0.00    +0.096 C 
ATOM      3  C   LIG    1       25.156 -30.138   9.220  0.00  0.00    +0.065 C 
ATOM      4  C   LIG    1       25.399 -31.421   8.852  0.00  0.00    +0.016 C 
ATOM      5  C   LIG    1       26.381 -31.846   7.773  0.00  0.00    +0.061 C 
ATOM      6  N   LIG    1       24.680 -32.449   9.454  0.00  0.00    -0.321 N 
ATOM      7  H   LIG    1       24.812 -33.364   9.024  0.00  0.00    +0.152 HD
ATOM      8  C   LIG    1       23.449 -32.265  10.087  0.00  0.00    +0.016 C 
ATOM      9  C   LIG    1       22.522 -33.449  10.005  0.00  0.00    +0.061 C 
ENDROOT
BRANCH   2  10
ATOM     10  C   LIG    1       24.796 -29.539  11.685  0.00  0.00    -0.029 A 
ATOM     11  C   LIG    1       24.423 -28.425  12.436  0.00  0.00    +0.088 A 
ATOM     12  C   LIG    1       25.142 -28.113  13.579  0.00  0.00    +0.273 A 
ATOM     13  C   LIG    1       26.204 -28.924  13.998  0.00  0.00    +0.084 A 
ATOM     14  C   LIG    1       26.539 -30.065  13.278  0.00  0.00    +0.007 A 
ATOM     15  C   LIG    1       25.826 -30.377  12.138  0.00  0.00    +0.005 A 
BRANCH  12  16
ATOM     16  N   LIG    1       24.804 -26.894  14.307  0.00  0.00    +0.080 N 
ATOM     17  O   LIG    1       25.730 -26.136  14.636  0.00  0.00    -0.576 OA
ATOM     18  O   LIG    1       23.610 -26.698  14.567  0.00  0.00    +0.041 OA
ENDBRANCH  12  16
ENDBRANCH   2  10
BRANCH   1  19
ATOM     19  C   LIG    1       21.616 -30.647  10.859  0.00  0.00    +0.338 C 
ATOM     20  O   LIG    1       20.701 -30.815  10.053  0.00  0.00    -0.245 OA
BRANCH  19  21
ATOM     21  O   LIG    1       21.421 -30.582  12.209  0.00  0.00    -0.459 OA
BRANCH  21  22
ATOM     22  C   LIG    1       20.793 -29.432  12.877  0.00  0.00    +0.260 C 
BRANCH  22  23
ATOM     23  C   LIG    1       19.772 -29.780  14.016  0.00  0.00    +0.200 C 
BRANCH  23  25
ATOM     24  C   LIG    1       17.953 -30.841  13.110  0.00  0.00    +0.194 C 
ATOM     25  O   LIG    1       19.061 -31.023  13.926  0.00  0.00    -0.380 OA
ENDBRANCH  23  25
ENDBRANCH  22  23
ENDBRANCH  21  22
ENDBRANCH  19  21
ENDBRANCH   1  19
BRANCH   3  26
ATOM     26  C   LIG    1       25.738 -28.995   8.481  0.00  0.00    +0.338 C 
ATOM     27  O   LIG    1       26.792 -28.377   8.856  0.00  0.00    -0.245 OA
BRANCH  26  28
ATOM     28  O   LIG    1       25.082 -28.743   7.345  0.00  0.00    -0.457 OA
BRANCH  28  29
ATOM     29  C   LIG    1       25.622 -27.751   6.446  0.00  0.00    +0.260 C 
BRANCH  29  30
ATOM     30  C   LIG    1       25.028 -26.390   6.595  0.00  0.00    +0.014 C 
ATOM     31  C   LIG    1       25.707 -25.251   6.802  0.00  0.00    +0.007 C 
BRANCH  31  32
ATOM     32  C   LIG    1       25.036 -23.946   6.915  0.00  0.00    -0.025 A 
ATOM     33  C   LIG    1       23.659 -23.784   6.703  0.00  0.00    +0.008 A 
ATOM     34  C   LIG    1       23.056 -22.532   6.828  0.00  0.00    +0.001 A 
ATOM     35  C   LIG    1       23.825 -21.424   7.174  0.00  0.00    +0.000 A 
ATOM     36  C   LIG    1       25.193 -21.569   7.390  0.00  0.00    +0.001 A 
ATOM     37  C   LIG    1       25.795 -22.825   7.267  0.00  0.00    +0.008 A 
ENDBRANCH  31  32
ENDBRANCH  29  30
ENDBRANCH  28  29
ENDBRANCH  26  28
ENDBRANCH   3  26
TORSDOF 12
ENDMDL
