MODEL 1
REMARK VINA RESULT:      35.9      0.000      0.000
REMARK  Name = *****
REMARK                            x       y       z     vdW  Elec       q    Type
REMARK                         _______ _______ _______ _____ _____    ______ ____
ROOT
ATOM      1  C   LIG    1       26.166 -18.122   1.813  0.00  0.00    +0.011 C 
ATOM      2  C   LIG    1       25.376 -18.386   2.869  0.00  0.00    -0.036 C 
ATOM      3  C   LIG    1       24.440 -17.353   3.535  0.00  0.00    +0.213 C 
ATOM      4  C   LIG    1       24.671 -15.783   3.399  0.00  0.00    +0.126 C 
ATOM      5  C   LIG    1       25.989 -14.940   3.897  0.00  0.00    +0.185 C 
ATOM      6  C   LIG    1       25.354 -13.622   4.498  0.00  0.00    +0.064 C 
ATOM      7  C   LIG    1       23.960 -13.537   3.905  0.00  0.00    +0.031 C 
ATOM      8  C   LIG    1       23.102 -12.462   4.551  0.00  0.00    +0.011 C 
ATOM      9  C   LIG    1       26.935 -15.516   5.018  0.00  0.00    +0.203 C 
ATOM     10  O   LIG    1       26.962 -15.085   6.174  0.00  0.00    -0.288 OA
ATOM     11  C   LIG    1       27.853 -16.637   4.718  0.00  0.00    -0.008 C 
ATOM     12  C   LIG    1       29.183 -16.424   4.078  0.00  0.00    +0.047 C 
ATOM     13  C   LIG    1       27.464 -17.818   5.221  0.00  0.00    -0.016 C 
ATOM     14  C   LIG    1       28.019 -19.096   4.789  0.00  0.00    +0.022 C 
ATOM     15  C   LIG    1       28.424 -20.305   5.573  0.00  0.00    -0.025 C 
ATOM     16  C   LIG    1       29.423 -21.237   4.934  0.00  0.00    +0.012 C 
ATOM     17  C   LIG    1       28.612 -20.150   7.062  0.00  0.00    +0.012 C 
ATOM     18  C   LIG    1       27.016 -20.208   4.997  0.00  0.00    +0.003 C 
ATOM     19  C   LIG    1       26.425 -20.706   3.716  0.00  0.00    +0.009 C 
ATOM     20  C   LIG    1       23.496 -14.983   4.067  0.00  0.00    +0.191 C 
ATOM     21  C   LIG    1       25.183 -19.853   3.327  0.00  0.00    +0.034 C 
ENDROOT
BRANCH   3  22
ATOM     22  O   LIG    1       23.160 -17.769   2.886  0.00  0.00    -0.457 OA
BRANCH  22  23
ATOM     23  C   LIG    1       22.795 -19.058   2.812  0.00  0.00    +0.304 C 
ATOM     24  O   LIG    1       23.552 -20.006   2.723  0.00  0.00    -0.251 OA
ATOM     25  C   LIG    1       21.314 -19.300   2.861  0.00  0.00    +0.136 C 
ENDBRANCH  22  23
ENDBRANCH   3  22
BRANCH   5  26
ATOM     26  O   LIG    1       26.688 -14.552   2.668  0.00  0.00    -0.450 OA
BRANCH  26  27
ATOM     27  C   LIG    1       27.405 -13.388   2.625  0.00  0.00    +0.305 C 
ATOM     28  O   LIG    1       28.594 -13.275   2.873  0.00  0.00    -0.251 OA
ATOM     29  C   LIG    1       26.530 -12.231   2.231  0.00  0.00    +0.136 C 
ENDBRANCH  26  27
ENDBRANCH   5  26
BRANCH  20  30
ATOM     30  O   LIG    1       23.418 -15.398   5.457  0.00  0.00    -0.457 OA
BRANCH  30  31
ATOM     31  C   LIG    1       22.213 -15.870   5.945  0.00  0.00    +0.340 C 
ATOM     32  O   LIG    1       21.257 -15.249   6.294  0.00  0.00    -0.245 OA
BRANCH  31  33
ATOM     33  C   LIG    1       22.294 -17.372   5.919  0.00  0.00    +0.059 A 
ATOM     34  C   LIG    1       21.340 -18.103   5.200  0.00  0.00    +0.015 A 
ATOM     35  C   LIG    1       21.454 -19.491   5.098  0.00  0.00    +0.001 A 
ATOM     36  C   LIG    1       22.530 -20.161   5.687  0.00  0.00    +0.000 A 
ATOM     37  C   LIG    1       23.497 -19.444   6.384  0.00  0.00    +0.001 A 
ATOM     38  C   LIG    1       23.373 -18.066   6.506  0.00  0.00    +0.015 A 
ENDBRANCH  31  33
ENDBRANCH  30  31
ENDBRANCH  20  30
TORSDOF 7
ENDMDL
MODEL 2
REMARK VINA RESULT:      36.7      2.168      5.848
REMARK  Name = *****
REMARK                            x       y       z     vdW  Elec       q    Type
REMARK                         _______ _______ _______ _____ _____    ______ ____
ROOT
ATOM      1  C   LIG    1       25.348 -16.558   1.815  0.00  0.00    +0.011 C 
ATOM      2  C   LIG    1       25.798 -17.048   2.983  0.00  0.00    -0.036 C 
ATOM      3  C   LIG    1       25.133 -18.212   3.752  0.00  0.00    +0.213 C 
ATOM      4  C   LIG    1       23.605 -18.608   3.540  0.00  0.00    +0.126 C 
ATOM      5  C   LIG    1       22.298 -17.652   3.813  0.00  0.00    +0.185 C 
ATOM      6  C   LIG    1       21.262 -18.655   4.465  0.00  0.00    +0.064 C 
ATOM      7  C   LIG    1       21.745 -20.041   4.083  0.00  0.00    +0.031 C 
ATOM      8  C   LIG    1       21.014 -21.152   4.819  0.00  0.00    +0.011 C 
ATOM      9  C   LIG    1       22.390 -16.425   4.796  0.00  0.00    +0.203 C 
ATOM     10  O   LIG    1       21.887 -16.415   5.923  0.00  0.00    -0.288 OA
ATOM     11  C   LIG    1       23.114 -15.199   4.394  0.00  0.00    -0.008 C 
ATOM     12  C   LIG    1       22.480 -14.140   3.558  0.00  0.00    +0.047 C 
ATOM     13  C   LIG    1       24.311 -15.046   4.982  0.00  0.00    -0.016 C 
ATOM     14  C   LIG    1       25.324 -14.111   4.509  0.00  0.00    +0.022 C 
ATOM     15  C   LIG    1       26.231 -13.184   5.257  0.00  0.00    -0.025 C 
ATOM     16  C   LIG    1       26.778 -11.998   4.502  0.00  0.00    +0.012 C 
ATOM     17  C   LIG    1       25.897 -12.880   6.696  0.00  0.00    +0.012 C 
ATOM     18  C   LIG    1       26.707 -14.586   4.895  0.00  0.00    +0.003 C 
ATOM     19  C   LIG    1       27.490 -15.104   3.730  0.00  0.00    +0.009 C 
ATOM     20  C   LIG    1       23.243 -19.902   4.353  0.00  0.00    +0.191 C 
ATOM     21  C   LIG    1       27.190 -16.614   3.506  0.00  0.00    +0.034 C 
ENDROOT
BRANCH   3  22
ATOM     22  O   LIG    1       26.042 -19.311   3.313  0.00  0.00    -0.457 OA
BRANCH  22  23
ATOM     23  C   LIG    1       27.272 -19.457   3.830  0.00  0.00    +0.304 C 
ATOM     24  O   LIG    1       27.916 -20.489   3.848  0.00  0.00    -0.251 OA
ATOM     25  C   LIG    1       27.867 -18.207   4.410  0.00  0.00    +0.136 C 
ENDBRANCH  22  23
ENDBRANCH   3  22
BRANCH   5  26
ATOM     26  O   LIG    1       21.780 -17.314   2.483  0.00  0.00    -0.450 OA
BRANCH  26  27
ATOM     27  C   LIG    1       20.467 -16.963   2.327  0.00  0.00    +0.305 C 
ATOM     28  O   LIG    1       20.035 -15.824   2.279  0.00  0.00    -0.251 OA
ATOM     29  C   LIG    1       19.595 -18.183   2.223  0.00  0.00    +0.136 C 
ENDBRANCH  26  27
ENDBRANCH   5  26
BRANCH  20  30
ATOM     30  O   LIG    1       23.542 -19.640   5.749  0.00  0.00    -0.457 OA
BRANCH  30  31
ATOM     31  C   LIG    1       24.037 -20.670   6.529  0.00  0.00    +0.340 C 
ATOM     32  O   LIG    1       23.441 -21.555   7.060  0.00  0.00    -0.245 OA
BRANCH  31  33
ATOM     33  C   LIG    1       25.532 -20.507   6.563  0.00  0.00    +0.059 A 
ATOM     34  C   LIG    1       26.095 -19.244   6.344  0.00  0.00    +0.015 A 
ATOM     35  C   LIG    1       27.475 -19.063   6.458  0.00  0.00    +0.001 A 
ATOM     36  C   LIG    1       28.304 -20.130   6.815  0.00  0.00    +0.000 A 
ATOM     37  C   LIG    1       27.756 -21.385   7.058  0.00  0.00    +0.001 A 
ATOM     38  C   LIG    1       26.385 -21.572   6.923  0.00  0.00    +0.015 A 
ENDBRANCH  31  33
ENDBRANCH  30  31
ENDBRANCH  20  30
TORSDOF 7
ENDMDL
MODEL 3
REMARK VINA RESULT:      37.3      2.092      6.027
REMARK  Name = *****
REMARK                            x       y       z     vdW  Elec       q    Type
REMARK                         _______ _______ _______ _____ _____    ______ ____
ROOT
ATOM      1  C   LIG    1       25.269 -14.881   6.987  0.00  0.00    +0.011 C 
ATOM      2  C   LIG    1       24.791 -14.262   5.893  0.00  0.00    -0.036 C 
ATOM      3  C   LIG    1       23.953 -14.956   4.796  0.00  0.00    +0.213 C 
ATOM      4  C   LIG    1       23.993 -16.532   4.565  0.00  0.00    +0.126 C 
ATOM      5  C   LIG    1       25.307 -17.428   4.157  0.00  0.00    +0.185 C 
ATOM      6  C   LIG    1       24.716 -18.459   3.111  0.00  0.00    +0.064 C 
ATOM      7  C   LIG    1       23.218 -18.463   3.350  0.00  0.00    +0.031 C 
ATOM      8  C   LIG    1       22.445 -19.215   2.279  0.00  0.00    +0.011 C 
ATOM      9  C   LIG    1       26.549 -16.761   3.454  0.00  0.00    +0.203 C 
ATOM     10  O   LIG    1       26.817 -16.912   2.258  0.00  0.00    -0.288 OA
ATOM     11  C   LIG    1       27.467 -15.895   4.224  0.00  0.00    -0.008 C 
ATOM     12  C   LIG    1       28.574 -16.450   5.055  0.00  0.00    +0.047 C 
ATOM     13  C   LIG    1       27.328 -14.584   3.976  0.00  0.00    -0.016 C 
ATOM     14  C   LIG    1       27.880 -13.541   4.834  0.00  0.00    +0.022 C 
ATOM     15  C   LIG    1       28.577 -12.260   4.498  0.00  0.00    -0.025 C 
ATOM     16  C   LIG    1       29.473 -11.666   5.556  0.00  0.00    +0.012 C 
ATOM     17  C   LIG    1       29.108 -12.094   3.096  0.00  0.00    +0.012 C 
ATOM     18  C   LIG    1       27.069 -12.271   4.714  0.00  0.00    +0.003 C 
ATOM     19  C   LIG    1       26.232 -11.998   5.924  0.00  0.00    +0.009 C 
ATOM     20  C   LIG    1       22.947 -16.965   3.476  0.00  0.00    +0.191 C 
ATOM     21  C   LIG    1       24.857 -12.716   5.803  0.00  0.00    +0.034 C 
ENDROOT
BRANCH   3  22
ATOM     22  O   LIG    1       22.599 -14.510   5.243  0.00  0.00    -0.457 OA
BRANCH  22  23
ATOM     23  C   LIG    1       21.802 -15.303   5.975  0.00  0.00    +0.304 C 
ATOM     24  O   LIG    1       21.715 -16.512   5.871  0.00  0.00    -0.251 OA
ATOM     25  C   LIG    1       20.978 -14.592   7.009  0.00  0.00    +0.136 C 
ENDBRANCH  22  23
ENDBRANCH   3  22
BRANCH   5  26
ATOM     26  O   LIG    1       25.643 -18.193   5.362  0.00  0.00    -0.450 OA
BRANCH  26  27
ATOM     27  C   LIG    1       26.338 -19.366   5.258  0.00  0.00    +0.305 C 
ATOM     28  O   LIG    1       27.532 -19.469   5.030  0.00  0.00    -0.251 OA
ATOM     29  C   LIG    1       25.431 -20.548   5.458  0.00  0.00    +0.136 C 
ENDBRANCH  26  27
ENDBRANCH   5  26
BRANCH  20  30
ATOM     30  O   LIG    1       23.252 -16.233   2.259  0.00  0.00    -0.457 OA
BRANCH  30  31
ATOM     31  C   LIG    1       22.570 -15.058   2.000  0.00  0.00    +0.340 C 
ATOM     32  O   LIG    1       21.399 -14.896   1.845  0.00  0.00    -0.245 OA
BRANCH  31  33
ATOM     33  C   LIG    1       23.594 -13.957   1.989  0.00  0.00    +0.059 A 
ATOM     34  C   LIG    1       23.191 -12.637   2.227  0.00  0.00    +0.015 A 
ATOM     35  C   LIG    1       24.142 -11.618   2.305  0.00  0.00    +0.001 A 
ATOM     36  C   LIG    1       25.504 -11.906   2.173  0.00  0.00    +0.000 A 
ATOM     37  C   LIG    1       25.920 -13.216   1.960  0.00  0.00    +0.001 A 
ATOM     38  C   LIG    1       24.972 -14.227   1.859  0.00  0.00    +0.015 A 
ENDBRANCH  31  33
ENDBRANCH  30  31
ENDBRANCH  20  30
TORSDOF 7
ENDMDL
