MODEL 1
REMARK VINA RESULT:       4.5      0.000      0.000
REMARK  Name = *****
REMARK                            x       y       z     vdW  Elec       q    Type
REMARK                         _______ _______ _______ _____ _____    ______ ____
ROOT
ATOM      1  C   LIG    1       26.288 -20.464   5.647  0.00  0.00    -0.021 C 
ATOM      2  C   LIG    1       27.421 -20.203   6.626  0.00  0.00    +0.104 C 
ATOM      3  S   LIG    1       27.939 -18.471   6.642  0.00  0.00    -0.131 S 
ATOM      4  C   LIG    1       28.207 -18.430   4.859  0.00  0.00    +0.169 C 
ATOM      5  N   LIG    1       26.974 -18.769   4.163  0.00  0.00    -0.249 N 
ATOM      6  C   LIG    1       26.950 -17.646   3.403  0.00  0.00    +0.244 C 
ATOM      7  O   LIG    1       26.130 -17.240   2.594  0.00  0.00    -0.273 OA
ATOM      8  CA  LIG    1       28.110 -17.034   4.175  0.00  0.00    +0.191 C 
ATOM      9  CA  LIG    1       26.073 -19.741   4.478  0.00  0.00    +0.123 C 
ENDROOT
BRANCH   8  10
ATOM     10  N   LIG    1       27.701 -15.863   5.000  0.00  0.00    -0.301 N 
ATOM     11  H   LIG    1       27.444 -15.998   5.975  0.00  0.00    +0.149 HD
ATOM     12  C   LIG    1       27.703 -14.591   4.475  0.00  0.00    +0.220 C 
ATOM     13  O   LIG    1       28.092 -14.401   3.327  0.00  0.00    -0.275 OA
BRANCH  12  14
ATOM     14  C   LIG    1       27.158 -13.521   5.413  0.00  0.00    +0.151 C 
BRANCH  14  15
ATOM     15  C   LIG    1       25.945 -12.818   4.886  0.00  0.00    +0.059 A 
ATOM     16  N   LIG    1       25.617 -12.979   3.543  0.00  0.00    -0.230 NA
ATOM     17  C   LIG    1       24.536 -12.294   3.252  0.00  0.00    +0.156 A 
ATOM     18  S   LIG    1       23.823 -11.447   4.560  0.00  0.00    -0.061 S 
ATOM     19  C   LIG    1       25.094 -11.969   5.572  0.00  0.00    +0.072 A 
BRANCH  17  20
ATOM     20  N   LIG    1       24.005 -12.234   2.024  0.00  0.00    -0.338 N 
ATOM     21  H   LIG    1       23.712 -11.327   1.687  0.00  0.00    +0.144 HD
ATOM     22  H   LIG    1       24.308 -12.896   1.321  0.00  0.00    +0.144 HD
ENDBRANCH  17  20
ENDBRANCH  14  15
ENDBRANCH  12  14
ENDBRANCH   8  10
BRANCH   9  23
ATOM     23  C   LIG    1       24.862 -20.008   3.635  0.00  0.00    +0.351 C 
ATOM     24  O   LIG    1       24.520 -21.128   3.285  0.00  0.00    -0.244 OA
BRANCH  23  25
ATOM     25  OXT LIG    1       24.136 -18.966   3.208  0.00  0.00    -0.476 OA
ATOM     26  HXT LIG    1       24.572 -18.300   2.633  0.00  0.00    +0.295 HD
ENDBRANCH  23  25
ENDBRANCH   9  23
BRANCH   1  27
ATOM     27  C   LIG    1       25.370 -21.565   6.144  0.00  0.00    +0.111 C 
BRANCH  27  28
ATOM     28  S   LIG    1       23.937 -20.877   7.062  0.00  0.00    -0.080 S 
BRANCH  28  30
ATOM     29  N   LIG    1       22.218 -19.426   5.451  0.00  0.00    -0.219 N 
ATOM     30  C   LIG    1       22.775 -20.627   5.801  0.00  0.00    +0.210 A 
ATOM     31  N   LIG    1       22.220 -21.571   5.074  0.00  0.00    -0.102 NA
ATOM     32  N   LIG    1       21.292 -20.939   4.277  0.00  0.00    -0.022 NA
ATOM     33  N   LIG    1       21.291 -19.630   4.493  0.00  0.00    -0.043 NA
BRANCH  29  34
ATOM     34  C   LIG    1       22.576 -18.084   5.836  0.00  0.00    +0.163 C 
BRANCH  34  35
ATOM     35  C   LIG    1       22.207 -17.014   4.802  0.00  0.00    +0.107 C 
BRANCH  35  37
ATOM     36  C   LIG    1       23.038 -15.078   3.646  0.00  0.00    +0.104 C 
ATOM     37  N   LIG    1       22.964 -15.757   4.947  0.00  0.00    -0.307 NA
ATOM     38  C   LIG    1       22.351 -14.870   5.935  0.00  0.00    +0.104 C 
ENDBRANCH  35  37
ENDBRANCH  34  35
ENDBRANCH  29  34
ENDBRANCH  28  30
ENDBRANCH  27  28
ENDBRANCH   1  27
TORSDOF 12
ENDMDL
MODEL 2
REMARK VINA RESULT:       6.9      2.595      6.846
REMARK  Name = *****
REMARK                            x       y       z     vdW  Elec       q    Type
REMARK                         _______ _______ _______ _____ _____    ______ ____
ROOT
ATOM      1  C   LIG    1       27.919 -17.391   4.502  0.00  0.00    -0.021 C 
ATOM      2  C   LIG    1       26.979 -17.293   3.312  0.00  0.00    +0.104 C 
ATOM      3  S   LIG    1       25.597 -18.452   3.422  0.00  0.00    -0.131 S 
ATOM      4  C   LIG    1       26.679 -19.876   3.650  0.00  0.00    +0.169 C 
ATOM      5  N   LIG    1       27.508 -19.686   4.832  0.00  0.00    -0.249 N 
ATOM      6  C   LIG    1       27.142 -20.848   5.426  0.00  0.00    +0.244 C 
ATOM      7  O   LIG    1       27.434 -21.322   6.513  0.00  0.00    -0.273 OA
ATOM      8  CA  LIG    1       26.064 -21.105   4.383  0.00  0.00    +0.191 C 
ATOM      9  CA  LIG    1       28.139 -18.550   5.240  0.00  0.00    +0.123 C 
ENDROOT
BRANCH   8  10
ATOM     10  N   LIG    1       24.686 -20.988   4.937  0.00  0.00    -0.301 N 
ATOM     11  H   LIG    1       23.910 -20.766   4.317  0.00  0.00    +0.149 HD
ATOM     12  C   LIG    1       24.436 -21.217   6.270  0.00  0.00    +0.220 C 
ATOM     13  O   LIG    1       25.346 -21.571   7.014  0.00  0.00    -0.275 OA
BRANCH  12  14
ATOM     14  C   LIG    1       22.997 -20.954   6.697  0.00  0.00    +0.151 C 
BRANCH  14  15
ATOM     15  C   LIG    1       22.172 -20.274   5.648  0.00  0.00    +0.059 A 
ATOM     16  N   LIG    1       22.382 -18.918   5.416  0.00  0.00    -0.230 NA
ATOM     17  C   LIG    1       21.577 -18.485   4.477  0.00  0.00    +0.156 A 
ATOM     18  S   LIG    1       20.545 -19.665   3.785  0.00  0.00    -0.061 S 
ATOM     19  C   LIG    1       21.164 -20.824   4.875  0.00  0.00    +0.072 A 
BRANCH  17  20
ATOM     20  N   LIG    1       21.532 -17.210   4.067  0.00  0.00    -0.338 N 
ATOM     21  H   LIG    1       22.320 -16.619   4.299  0.00  0.00    +0.144 HD
ATOM     22  H   LIG    1       21.036 -16.981   3.216  0.00  0.00    +0.144 HD
ENDBRANCH  17  20
ENDBRANCH  14  15
ENDBRANCH  12  14
ENDBRANCH   8  10
BRANCH   9  23
ATOM     23  C   LIG    1       29.005 -18.515   6.463  0.00  0.00    +0.351 C 
ATOM     24  O   LIG    1       29.475 -17.486   6.926  0.00  0.00    -0.244 OA
BRANCH  23  25
ATOM     25  OXT LIG    1       29.315 -19.673   7.062  0.00  0.00    -0.476 OA
ATOM     26  HXT LIG    1       28.746 -19.982   7.800  0.00  0.00    +0.295 HD
ENDBRANCH  23  25
ENDBRANCH   9  23
BRANCH   1  27
ATOM     27  C   LIG    1       28.533 -16.044   4.835  0.00  0.00    +0.111 C 
BRANCH  27  28
ATOM     28  S   LIG    1       27.243 -14.808   5.256  0.00  0.00    -0.080 S 
BRANCH  28  30
ATOM     29  N   LIG    1       27.438 -13.043   3.135  0.00  0.00    -0.219 N 
ATOM     30  C   LIG    1       27.790 -13.399   4.409  0.00  0.00    +0.210 A 
ATOM     31  N   LIG    1       28.676 -12.535   4.853  0.00  0.00    -0.102 NA
ATOM     32  N   LIG    1       28.885 -11.645   3.825  0.00  0.00    -0.022 NA
ATOM     33  N   LIG    1       28.127 -11.940   2.777  0.00  0.00    -0.043 NA
BRANCH  29  34
ATOM     34  C   LIG    1       26.407 -13.563   2.272  0.00  0.00    +0.163 C 
BRANCH  34  35
ATOM     35  C   LIG    1       25.003 -13.030   2.577  0.00  0.00    +0.107 C 
BRANCH  35  37
ATOM     36  C   LIG    1       24.093 -12.073   4.584  0.00  0.00    +0.104 C 
ATOM     37  N   LIG    1       24.537 -13.319   3.946  0.00  0.00    -0.307 NA
ATOM     38  C   LIG    1       23.447 -14.293   3.948  0.00  0.00    +0.104 C 
ENDBRANCH  35  37
ENDBRANCH  34  35
ENDBRANCH  29  34
ENDBRANCH  28  30
ENDBRANCH  27  28
ENDBRANCH   1  27
TORSDOF 12
ENDMDL
