MODEL 1
REMARK VINA RESULT:      -2.4      0.000      0.000
REMARK  Name = *****
REMARK                            x       y       z     vdW  Elec       q    Type
REMARK                         _______ _______ _______ _____ _____    ______ ____
ROOT
ATOM      1  N   LIG    1       25.580 -14.794   3.801  0.00  0.00    -0.248 N 
ATOM      2  C   LIG    1       24.314 -14.293   4.353  0.00  0.00    +0.163 C 
ATOM      3  C   LIG    1       23.960 -12.862   3.909  0.00  0.00    +0.050 C 
ATOM      4  N   LIG    1       23.183 -15.121   3.930  0.00  0.00    -0.325 N 
ATOM      5  H   LIG    1       22.304 -14.798   4.328  0.00  0.00    +0.148 HD
ATOM      6  C   LIG    1       23.360 -16.494   4.073  0.00  0.00    +0.042 A 
ATOM      7  C   LIG    1       24.622 -17.061   3.944  0.00  0.00    +0.060 A 
ATOM      8  C   LIG    1       24.792 -18.449   3.984  0.00  0.00    +0.045 A 
ATOM      9  C   LIG    1       23.687 -19.289   4.149  0.00  0.00    +0.124 A 
ATOM     10  C   LIG    1       22.411 -18.740   4.259  0.00  0.00    +0.069 A 
ATOM     11 CL   LIG    1       20.981 -19.683   4.465  0.00  0.00    -0.082 Cl
ATOM     12  C   LIG    1       22.254 -17.345   4.200  0.00  0.00    +0.045 A 
ATOM     13  C   LIG    1       25.797 -16.181   3.778  0.00  0.00    +0.254 C 
ATOM     14  O   LIG    1       26.891 -16.736   3.678  0.00  0.00    -0.270 OA
ENDROOT
BRANCH   1  17
ATOM     15  C   LIG    1       26.531 -13.689   6.459  0.00  0.00    +0.045 C 
ATOM     16  C   LIG    1       27.206 -13.428   5.136  0.00  0.00    -0.029 A 
ATOM     17  C   LIG    1       26.757 -13.959   3.904  0.00  0.00    +0.041 A 
ATOM     18  C   LIG    1       27.491 -13.657   2.739  0.00  0.00    +0.024 A 
ATOM     19  C   LIG    1       28.646 -12.876   2.781  0.00  0.00    +0.002 A 
ATOM     20  C   LIG    1       29.079 -12.353   3.988  0.00  0.00    +0.000 A 
ATOM     21  C   LIG    1       28.360 -12.617   5.152  0.00  0.00    +0.005 A 
ENDBRANCH   1  17
BRANCH   9  22
ATOM     22  S   LIG    1       23.926 -21.032   4.209  0.00  0.00    +0.057 S 
ATOM     23  O   LIG    1       23.858 -21.558   2.863  0.00  0.00    -0.153 OA
ATOM     24  O   LIG    1       23.172 -21.565   5.314  0.00  0.00    -0.153 OA
BRANCH  22  25
ATOM     25  N   LIG    1       25.539 -21.208   4.657  0.00  0.00    -0.203 NA
ATOM     26  H   LIG    1       26.147 -20.714   4.004  0.00  0.00    +0.144 HD
ATOM     27  H   LIG    1       25.764 -22.196   4.779  0.00  0.00    +0.144 HD
ENDBRANCH  22  25
ENDBRANCH   9  22
TORSDOF 3
ENDMDL
MODEL 2
REMARK VINA RESULT:      -0.9      0.407      1.423
REMARK  Name = *****
REMARK                            x       y       z     vdW  Elec       q    Type
REMARK                         _______ _______ _______ _____ _____    ______ ____
ROOT
ATOM      1  N   LIG    1       25.497 -14.733   4.067  0.00  0.00    -0.248 N 
ATOM      2  C   LIG    1       24.198 -14.264   4.568  0.00  0.00    +0.163 C 
ATOM      3  C   LIG    1       23.860 -12.816   4.172  0.00  0.00    +0.050 C 
ATOM      4  N   LIG    1       23.099 -15.076   4.044  0.00  0.00    -0.325 N 
ATOM      5  H   LIG    1       22.197 -14.777   4.406  0.00  0.00    +0.148 HD
ATOM      6  C   LIG    1       23.278 -16.454   4.133  0.00  0.00    +0.042 A 
ATOM      7  C   LIG    1       24.549 -17.008   4.050  0.00  0.00    +0.060 A 
ATOM      8  C   LIG    1       24.727 -18.396   4.035  0.00  0.00    +0.045 A 
ATOM      9  C   LIG    1       23.620 -19.248   4.098  0.00  0.00    +0.124 A 
ATOM     10  C   LIG    1       22.336 -18.710   4.160  0.00  0.00    +0.069 A 
ATOM     11 CL   LIG    1       20.903 -19.669   4.241  0.00  0.00    -0.082 Cl
ATOM     12  C   LIG    1       22.172 -17.316   4.158  0.00  0.00    +0.045 A 
ATOM     13  C   LIG    1       25.726 -16.117   3.992  0.00  0.00    +0.254 C 
ATOM     14  O   LIG    1       26.827 -16.661   3.928  0.00  0.00    -0.270 OA
ENDROOT
BRANCH   1  17
ATOM     15  C   LIG    1       27.409 -14.057   1.813  0.00  0.00    +0.045 C 
ATOM     16  C   LIG    1       27.566 -13.584   3.235  0.00  0.00    -0.029 A 
ATOM     17  C   LIG    1       26.660 -13.898   4.275  0.00  0.00    +0.041 A 
ATOM     18  C   LIG    1       26.910 -13.374   5.560  0.00  0.00    +0.024 A 
ATOM     19  C   LIG    1       28.003 -12.546   5.815  0.00  0.00    +0.002 A 
ATOM     20  C   LIG    1       28.891 -12.244   4.796  0.00  0.00    +0.000 A 
ATOM     21  C   LIG    1       28.681 -12.768   3.522  0.00  0.00    +0.005 A 
ENDBRANCH   1  17
BRANCH   9  22
ATOM     22  S   LIG    1       23.868 -20.991   4.090  0.00  0.00    +0.057 S 
ATOM     23  O   LIG    1       23.818 -21.462   2.723  0.00  0.00    -0.153 OA
ATOM     24  O   LIG    1       23.105 -21.572   5.164  0.00  0.00    -0.153 OA
BRANCH  22  25
ATOM     25  N   LIG    1       25.477 -21.177   4.548  0.00  0.00    -0.203 NA
ATOM     26  H   LIG    1       25.955 -21.823   3.919  0.00  0.00    +0.144 HD
ATOM     27  H   LIG    1       25.535 -21.429   5.535  0.00  0.00    +0.144 HD
ENDBRANCH  22  25
ENDBRANCH   9  22
TORSDOF 3
ENDMDL
MODEL 3
REMARK VINA RESULT:      -0.1      3.749      7.438
REMARK  Name = *****
REMARK                            x       y       z     vdW  Elec       q    Type
REMARK                         _______ _______ _______ _____ _____    ______ ____
ROOT
ATOM      1  N   LIG    1       23.931 -18.499   3.923  0.00  0.00    -0.248 N 
ATOM      2  C   LIG    1       25.374 -18.754   3.805  0.00  0.00    +0.163 C 
ATOM      3  C   LIG    1       25.720 -20.071   3.087  0.00  0.00    +0.050 C 
ATOM      4  N   LIG    1       26.040 -17.705   3.033  0.00  0.00    -0.325 N 
ATOM      5  H   LIG    1       27.044 -17.857   2.968  0.00  0.00    +0.148 HD
ATOM      6  C   LIG    1       25.723 -16.399   3.399  0.00  0.00    +0.042 A 
ATOM      7  C   LIG    1       24.464 -16.092   3.900  0.00  0.00    +0.060 A 
ATOM      8  C   LIG    1       24.105 -14.767   4.172  0.00  0.00    +0.045 A 
ATOM      9  C   LIG    1       25.011 -13.730   3.937  0.00  0.00    +0.124 A 
ATOM     10  C   LIG    1       26.272 -14.016   3.415  0.00  0.00    +0.069 A 
ATOM     11 CL   LIG    1       27.465 -12.814   3.088  0.00  0.00    -0.082 Cl
ATOM     12  C   LIG    1       26.612 -15.349   3.131  0.00  0.00    +0.045 A 
ATOM     13  C   LIG    1       23.502 -17.183   4.160  0.00  0.00    +0.254 C 
ATOM     14  O   LIG    1       22.406 -16.855   4.612  0.00  0.00    -0.270 OA
ENDROOT
BRANCH   1  17
ATOM     15  C   LIG    1       24.825 -20.339   6.161  0.00  0.00    +0.045 C 
ATOM     16  C   LIG    1       23.490 -20.427   5.465  0.00  0.00    -0.029 A 
ATOM     17  C   LIG    1       23.082 -19.554   4.429  0.00  0.00    +0.041 A 
ATOM     18  C   LIG    1       21.797 -19.729   3.876  0.00  0.00    +0.024 A 
ATOM     19  C   LIG    1       20.926 -20.715   4.339  0.00  0.00    +0.002 A 
ATOM     20  C   LIG    1       21.331 -21.571   5.350  0.00  0.00    +0.000 A 
ATOM     21  C   LIG    1       22.605 -21.435   5.899  0.00  0.00    +0.005 A 
ENDBRANCH   1  17
BRANCH   9  22
ATOM     22  S   LIG    1       24.542 -12.072   4.299  0.00  0.00    +0.057 S 
ATOM     23  O   LIG    1       24.064 -11.448   3.085  0.00  0.00    -0.153 OA
ATOM     24  O   LIG    1       25.536 -11.487   5.161  0.00  0.00    -0.153 OA
BRANCH  22  25
ATOM     25  N   LIG    1       23.173 -12.236   5.265  0.00  0.00    -0.203 NA
ATOM     26  H   LIG    1       23.417 -12.135   6.250  0.00  0.00    +0.144 HD
ATOM     27  H   LIG    1       22.683 -13.103   5.038  0.00  0.00    +0.144 HD
ENDBRANCH  22  25
ENDBRANCH   9  22
TORSDOF 3
ENDMDL
