MODEL 1
REMARK VINA RESULT:      -9.3      0.000      0.000
REMARK  Name = *****
REMARK                            x       y       z     vdW  Elec       q    Type
REMARK                         _______ _______ _______ _____ _____    ______ ____
ROOT
ATOM      1  C   LIG    1       28.745 -20.151   7.496  0.00  0.00    +0.170 A 
ATOM      2  C   LIG    1       28.242 -19.764   6.166  0.00  0.00    +0.180 A 
ATOM      3  F   LIG    1       28.931 -19.014   5.302  0.00  0.00    -0.200 F 
ATOM      4  C   LIG    1       27.046 -20.226   5.845  0.00  0.00    +0.135 A 
ATOM      5  N   LIG    1       26.329 -21.016   6.715  0.00  0.00    -0.267 N 
ATOM      6  C   LIG    1       26.770 -21.215   8.029  0.00  0.00    +0.352 A 
ATOM      7  O   LIG    1       26.063 -21.722   8.892  0.00  0.00    -0.244 OA
ATOM      8  N   LIG    1       28.056 -20.823   8.353  0.00  0.00    -0.175 NA
ENDROOT
BRANCH   5   9
ATOM      9  C   LIG    1       25.043 -21.511   6.241  0.00  0.00    +0.255 C 
ATOM     10  C   LIG    1       23.772 -20.809   6.739  0.00  0.00    +0.195 C 
ATOM     11  C   LIG    1       22.828 -21.081   5.582  0.00  0.00    +0.176 C 
ATOM     12  C   LIG    1       23.755 -21.062   4.363  0.00  0.00    +0.149 C 
ATOM     13  C   LIG    1       23.958 -19.683   3.756  0.00  0.00    +0.040 C 
ATOM     14  O   LIG    1       25.043 -21.524   4.807  0.00  0.00    -0.348 OA
BRANCH  10  15
ATOM     15  O   LIG    1       23.289 -21.355   7.969  0.00  0.00    -0.385 OA
ATOM     16  H   LIG    1       23.946 -21.087   8.646  0.00  0.00    +0.210 HD
ENDBRANCH  10  15
BRANCH  11  17
ATOM     17  O   LIG    1       22.270 -22.394   5.781  0.00  0.00    -0.387 OA
ATOM     18  H   LIG    1       22.864 -23.030   5.343  0.00  0.00    +0.210 HD
ENDBRANCH  11  17
ENDBRANCH   5   9
BRANCH   1  20
ATOM     19  C   LIG    1       30.874 -20.450   8.744  0.00  0.00    +0.406 C 
ATOM     20  N   LIG    1       30.003 -19.808   7.911  0.00  0.00    -0.233 N 
ATOM     21  H   LIG    1       30.319 -18.902   7.588  0.00  0.00    +0.160 HD
ATOM     22  O   LIG    1       30.785 -21.596   9.171  0.00  0.00    -0.226 OA
BRANCH  19  23
ATOM     23  O   LIG    1       31.919 -19.641   9.035  0.00  0.00    -0.450 OA
BRANCH  23  24
ATOM     24  C   LIG    1       31.925 -18.409   8.295  0.00  0.00    +0.234 C 
BRANCH  24  25
ATOM     25  C   LIG    1       32.088 -17.190   9.214  0.00  0.00    +0.041 C 
BRANCH  25  26
ATOM     26  C   LIG    1       30.826 -16.875  10.020  0.00  0.00    +0.003 C 
BRANCH  26  28
ATOM     27  C   LIG    1       31.758 -16.238  12.294  0.00  0.00    +0.004 C 
ATOM     28  C   LIG    1       30.943 -17.248  11.500  0.00  0.00    -0.003 C 
ENDBRANCH  26  28
ENDBRANCH  25  26
ENDBRANCH  24  25
ENDBRANCH  23  24
ENDBRANCH  19  23
ENDBRANCH   1  20
TORSDOF 9
ENDMDL
MODEL 2
REMARK VINA RESULT:      -8.5      1.081      1.640
REMARK  Name = *****
REMARK                            x       y       z     vdW  Elec       q    Type
REMARK                         _______ _______ _______ _____ _____    ______ ____
ROOT
ATOM      1  C   LIG    1       28.863 -19.781   7.669  0.00  0.00    +0.170 A 
ATOM      2  C   LIG    1       28.460 -19.783   6.251  0.00  0.00    +0.180 A 
ATOM      3  F   LIG    1       29.270 -19.433   5.249  0.00  0.00    -0.200 F 
ATOM      4  C   LIG    1       27.224 -20.182   6.004  0.00  0.00    +0.135 A 
ATOM      5  N   LIG    1       26.380 -20.565   7.022  0.00  0.00    -0.267 N 
ATOM      6  C   LIG    1       26.747 -20.384   8.361  0.00  0.00    +0.352 A 
ATOM      7  O   LIG    1       25.951 -20.505   9.285  0.00  0.00    -0.244 OA
ATOM      8  N   LIG    1       28.062 -20.061   8.640  0.00  0.00    -0.175 NA
ENDROOT
BRANCH   5   9
ATOM      9  C   LIG    1       25.056 -21.033   6.633  0.00  0.00    +0.255 C 
ATOM     10  C   LIG    1       24.716 -21.073   5.137  0.00  0.00    +0.195 C 
ATOM     11  C   LIG    1       23.683 -22.186   5.112  0.00  0.00    +0.176 C 
ATOM     12  C   LIG    1       24.167 -23.136   6.212  0.00  0.00    +0.149 C 
ATOM     13  C   LIG    1       25.169 -24.177   5.739  0.00  0.00    +0.040 C 
ATOM     14  O   LIG    1       24.829 -22.330   7.203  0.00  0.00    -0.348 OA
BRANCH  10  15
ATOM     15  O   LIG    1       24.184 -19.834   4.661  0.00  0.00    -0.385 OA
ATOM     16  H   LIG    1       24.905 -19.181   4.781  0.00  0.00    +0.210 HD
ENDBRANCH  10  15
BRANCH  11  17
ATOM     17  O   LIG    1       22.413 -21.603   5.462  0.00  0.00    -0.387 OA
ATOM     18  H   LIG    1       22.365 -20.732   5.025  0.00  0.00    +0.210 HD
ENDBRANCH  11  17
ENDBRANCH   5   9
BRANCH   1  20
ATOM     19  C   LIG    1       30.994 -20.102   8.906  0.00  0.00    +0.406 C 
ATOM     20  N   LIG    1       30.141 -19.471   8.046  0.00  0.00    -0.233 N 
ATOM     21  H   LIG    1       30.492 -18.602   7.666  0.00  0.00    +0.160 HD
ATOM     22  O   LIG    1       30.860 -21.215   9.404  0.00  0.00    -0.226 OA
BRANCH  19  23
ATOM     23  O   LIG    1       32.078 -19.325   9.136  0.00  0.00    -0.450 OA
BRANCH  23  24
ATOM     24  C   LIG    1       32.008 -18.030   8.516  0.00  0.00    +0.234 C 
BRANCH  24  25
ATOM     25  C   LIG    1       32.354 -16.905   9.500  0.00  0.00    +0.041 C 
BRANCH  25  26
ATOM     26  C   LIG    1       31.219 -16.600  10.482  0.00  0.00    +0.003 C 
BRANCH  26  28
ATOM     27  C   LIG    1       31.940 -15.973  12.835  0.00  0.00    +0.004 C 
ATOM     28  C   LIG    1       31.501 -17.093  11.903  0.00  0.00    -0.003 C 
ENDBRANCH  26  28
ENDBRANCH  25  26
ENDBRANCH  24  25
ENDBRANCH  23  24
ENDBRANCH  19  23
ENDBRANCH   1  20
TORSDOF 9
ENDMDL
MODEL 3
REMARK VINA RESULT:      -8.4      1.433      1.922
REMARK  Name = *****
REMARK                            x       y       z     vdW  Elec       q    Type
REMARK                         _______ _______ _______ _____ _____    ______ ____
ROOT
ATOM      1  C   LIG    1       29.426 -19.278   7.683  0.00  0.00    +0.170 A 
ATOM      2  C   LIG    1       29.228 -19.227   6.224  0.00  0.00    +0.180 A 
ATOM      3  F   LIG    1       30.041 -18.576   5.388  0.00  0.00    -0.200 F 
ATOM      4  C   LIG    1       28.187 -19.896   5.759  0.00  0.00    +0.135 A 
ATOM      5  N   LIG    1       27.348 -20.588   6.604  0.00  0.00    -0.267 N 
ATOM      6  C   LIG    1       27.474 -20.467   7.993  0.00  0.00    +0.352 A 
ATOM      7  O   LIG    1       26.624 -20.885   8.771  0.00  0.00    -0.244 OA
ATOM      8  N   LIG    1       28.608 -19.855   8.495  0.00  0.00    -0.175 NA
ENDROOT
BRANCH   5   9
ATOM      9  C   LIG    1       26.259 -21.330   5.981  0.00  0.00    +0.255 C 
ATOM     10  C   LIG    1       25.715 -22.563   6.715  0.00  0.00    +0.195 C 
ATOM     11  C   LIG    1       24.288 -22.592   6.197  0.00  0.00    +0.176 C 
ATOM     12  C   LIG    1       23.949 -21.108   6.025  0.00  0.00    +0.149 C 
ATOM     13  C   LIG    1       23.388 -20.449   7.274  0.00  0.00    +0.040 C 
ATOM     14  O   LIG    1       25.177 -20.431   5.703  0.00  0.00    -0.348 OA
BRANCH  10  15
ATOM     15  O   LIG    1       26.432 -23.757   6.388  0.00  0.00    -0.385 OA
ATOM     16  H   LIG    1       25.744 -24.407   6.132  0.00  0.00    +0.210 HD
ENDBRANCH  10  15
BRANCH  11  17
ATOM     17  O   LIG    1       24.306 -23.265   4.923  0.00  0.00    -0.387 OA
ATOM     18  H   LIG    1       23.888 -22.668   4.276  0.00  0.00    +0.210 HD
ENDBRANCH  11  17
ENDBRANCH   5   9
BRANCH   1  20
ATOM     19  C   LIG    1       31.533 -19.249   9.001  0.00  0.00    +0.406 C 
ATOM     20  N   LIG    1       30.514 -18.699   8.277  0.00  0.00    -0.233 N 
ATOM     21  H   LIG    1       30.540 -17.689   8.213  0.00  0.00    +0.160 HD
ATOM     22  O   LIG    1       31.797 -20.440   9.127  0.00  0.00    -0.226 OA
BRANCH  19  23
ATOM     23  O   LIG    1       32.277 -18.272   9.570  0.00  0.00    -0.450 OA
BRANCH  23  24
ATOM     24  C   LIG    1       31.646 -16.980   9.560  0.00  0.00    +0.234 C 
BRANCH  24  25
ATOM     25  C   LIG    1       32.650 -15.851   9.831  0.00  0.00    +0.041 C 
BRANCH  25  26
ATOM     26  C   LIG    1       33.025 -15.726  11.310  0.00  0.00    +0.003 C 
BRANCH  26  28
ATOM     27  C   LIG    1       32.287 -16.014  13.722  0.00  0.00    +0.004 C 
ATOM     28  C   LIG    1       31.920 -16.200  12.257  0.00  0.00    -0.003 C 
ENDBRANCH  26  28
ENDBRANCH  25  26
ENDBRANCH  24  25
ENDBRANCH  23  24
ENDBRANCH  19  23
ENDBRANCH   1  20
TORSDOF 9
ENDMDL
MODEL 4
REMARK VINA RESULT:      -7.7      1.573      2.001
REMARK  Name = *****
REMARK                            x       y       z     vdW  Elec       q    Type
REMARK                         _______ _______ _______ _____ _____    ______ ____
ROOT
ATOM      1  C   LIG    1       28.838 -19.944   6.760  0.00  0.00    +0.170 A 
ATOM      2  C   LIG    1       28.384 -21.156   7.466  0.00  0.00    +0.180 A 
ATOM      3  F   LIG    1       29.100 -21.779   8.405  0.00  0.00    -0.200 F 
ATOM      4  C   LIG    1       27.185 -21.602   7.133  0.00  0.00    +0.135 A 
ATOM      5  N   LIG    1       26.424 -20.962   6.180  0.00  0.00    -0.267 N 
ATOM      6  C   LIG    1       26.964 -19.920   5.416  0.00  0.00    +0.352 A 
ATOM      7  O   LIG    1       26.405 -19.474   4.421  0.00  0.00    -0.244 OA
ATOM      8  N   LIG    1       28.173 -19.379   5.812  0.00  0.00    -0.175 NA
ENDROOT
BRANCH   5   9
ATOM      9  C   LIG    1       25.099 -21.511   5.925  0.00  0.00    +0.255 C 
ATOM     10  C   LIG    1       23.932 -21.009   6.787  0.00  0.00    +0.195 C 
ATOM     11  C   LIG    1       22.769 -21.212   5.833  0.00  0.00    +0.176 C 
ATOM     12  C   LIG    1       23.391 -20.938   4.460  0.00  0.00    +0.149 C 
ATOM     13  C   LIG    1       23.362 -19.477   4.043  0.00  0.00    +0.040 C 
ATOM     14  O   LIG    1       24.773 -21.329   4.540  0.00  0.00    -0.348 OA
BRANCH  10  15
ATOM     15  O   LIG    1       23.778 -21.761   7.994  0.00  0.00    -0.385 OA
ATOM     16  H   LIG    1       24.664 -21.759   8.413  0.00  0.00    +0.210 HD
ENDBRANCH  10  15
BRANCH  11  17
ATOM     17  O   LIG    1       22.357 -22.588   5.944  0.00  0.00    -0.387 OA
ATOM     18  H   LIG    1       22.339 -22.808   6.894  0.00  0.00    +0.210 HD
ENDBRANCH  11  17
ENDBRANCH   5   9
BRANCH   1  20
ATOM     19  C   LIG    1       30.380 -18.592   8.164  0.00  0.00    +0.406 C 
ATOM     20  N   LIG    1       30.022 -19.336   7.076  0.00  0.00    -0.233 N 
ATOM     21  H   LIG    1       30.734 -19.405   6.361  0.00  0.00    +0.160 HD
ATOM     22  O   LIG    1       29.753 -18.454   9.209  0.00  0.00    -0.226 OA
BRANCH  19  23
ATOM     23  O   LIG    1       31.586 -18.015   7.955  0.00  0.00    -0.450 OA
BRANCH  23  24
ATOM     24  C   LIG    1       32.290 -17.683   9.164  0.00  0.00    +0.234 C 
BRANCH  24  25
ATOM     25  C   LIG    1       32.334 -16.168   9.404  0.00  0.00    +0.041 C 
BRANCH  25  26
ATOM     26  C   LIG    1       32.745 -15.800  10.832  0.00  0.00    +0.003 C 
BRANCH  26  28
ATOM     27  C   LIG    1       32.163 -15.896  13.302  0.00  0.00    +0.004 C 
ATOM     28  C   LIG    1       31.782 -16.335  11.895  0.00  0.00    -0.003 C 
ENDBRANCH  26  28
ENDBRANCH  25  26
ENDBRANCH  24  25
ENDBRANCH  23  24
ENDBRANCH  19  23
ENDBRANCH   1  20
TORSDOF 9
ENDMDL
MODEL 5
REMARK VINA RESULT:      -7.6      2.550      7.966
REMARK  Name = *****
REMARK                            x       y       z     vdW  Elec       q    Type
REMARK                         _______ _______ _______ _____ _____    ______ ____
ROOT
ATOM      1  C   LIG    1       26.230 -20.713   6.497  0.00  0.00    +0.170 A 
ATOM      2  C   LIG    1       26.698 -20.756   7.893  0.00  0.00    +0.180 A 
ATOM      3  F   LIG    1       26.020 -21.339   8.885  0.00  0.00    -0.200 F 
ATOM      4  C   LIG    1       27.870 -20.190   8.126  0.00  0.00    +0.135 A 
ATOM      5  N   LIG    1       28.591 -19.599   7.113  0.00  0.00    -0.267 N 
ATOM      6  C   LIG    1       28.032 -19.431   5.841  0.00  0.00    +0.352 A 
ATOM      7  O   LIG    1       28.546 -18.725   4.982  0.00  0.00    -0.244 OA
ATOM      8  N   LIG    1       26.854 -20.097   5.552  0.00  0.00    -0.175 NA
ENDROOT
BRANCH   5   9
ATOM      9  C   LIG    1       29.892 -19.048   7.472  0.00  0.00    +0.255 C 
ATOM     10  C   LIG    1       30.060 -18.451   8.876  0.00  0.00    +0.195 C 
ATOM     11  C   LIG    1       31.547 -18.662   9.095  0.00  0.00    +0.176 C 
ATOM     12  C   LIG    1       31.827 -19.975   8.358  0.00  0.00    +0.149 C 
ATOM     13  C   LIG    1       31.618 -21.220   9.203  0.00  0.00    +0.040 C 
ATOM     14  O   LIG    1       30.900 -20.046   7.260  0.00  0.00    -0.348 OA
BRANCH  10  15
ATOM     15  O   LIG    1       29.697 -17.069   8.932  0.00  0.00    -0.385 OA
ATOM     16  H   LIG    1       28.836 -17.010   8.466  0.00  0.00    +0.210 HD
ENDBRANCH  10  15
BRANCH  11  17
ATOM     17  O   LIG    1       32.235 -17.563   8.464  0.00  0.00    -0.387 OA
ATOM     18  H   LIG    1       31.731 -17.328   7.664  0.00  0.00    +0.210 HD
ENDBRANCH  11  17
ENDBRANCH   5   9
BRANCH   1  20
ATOM     19  C   LIG    1       23.821 -21.305   6.652  0.00  0.00    +0.406 C 
ATOM     20  N   LIG    1       25.075 -21.338   6.112  0.00  0.00    -0.233 N 
ATOM     21  H   LIG    1       25.180 -21.970   5.329  0.00  0.00    +0.160 HD
ATOM     22  O   LIG    1       23.404 -20.544   7.520  0.00  0.00    -0.226 OA
BRANCH  19  23
ATOM     23  O   LIG    1       23.039 -22.242   6.067  0.00  0.00    -0.450 OA
BRANCH  23  24
ATOM     24  C   LIG    1       22.879 -23.438   6.849  0.00  0.00    +0.234 C 
BRANCH  24  25
ATOM     25  C   LIG    1       23.705 -24.604   6.288  0.00  0.00    +0.041 C 
BRANCH  25  26
ATOM     26  C   LIG    1       25.142 -24.627   6.815  0.00  0.00    +0.003 C 
BRANCH  26  28
ATOM     27  C   LIG    1       25.583 -26.305   4.961  0.00  0.00    +0.004 C 
ATOM     28  C   LIG    1       25.928 -25.865   6.377  0.00  0.00    -0.003 C 
ENDBRANCH  26  28
ENDBRANCH  25  26
ENDBRANCH  24  25
ENDBRANCH  23  24
ENDBRANCH  19  23
ENDBRANCH   1  20
TORSDOF 9
ENDMDL
MODEL 6
REMARK VINA RESULT:      -7.5      1.987      2.835
REMARK  Name = *****
REMARK                            x       y       z     vdW  Elec       q    Type
REMARK                         _______ _______ _______ _____ _____    ______ ____
ROOT
ATOM      1  C   LIG    1       28.531 -19.979   7.021  0.00  0.00    +0.170 A 
ATOM      2  C   LIG    1       28.565 -21.233   7.796  0.00  0.00    +0.180 A 
ATOM      3  F   LIG    1       29.565 -21.573   8.612  0.00  0.00    -0.200 F 
ATOM      4  C   LIG    1       27.514 -22.023   7.660  0.00  0.00    +0.135 A 
ATOM      5  N   LIG    1       26.464 -21.680   6.838  0.00  0.00    -0.267 N 
ATOM      6  C   LIG    1       26.552 -20.567   5.993  0.00  0.00    +0.352 A 
ATOM      7  O   LIG    1       25.743 -20.353   5.097  0.00  0.00    -0.244 OA
ATOM      8  N   LIG    1       27.594 -19.679   6.188  0.00  0.00    -0.175 NA
ENDROOT
BRANCH   5   9
ATOM      9  C   LIG    1       25.335 -22.600   6.800  0.00  0.00    +0.255 C 
ATOM     10  C   LIG    1       24.776 -22.999   5.427  0.00  0.00    +0.195 C 
ATOM     11  C   LIG    1       24.201 -24.368   5.744  0.00  0.00    +0.176 C 
ATOM     12  C   LIG    1       25.164 -24.916   6.801  0.00  0.00    +0.149 C 
ATOM     13  C   LIG    1       26.364 -25.651   6.229  0.00  0.00    +0.040 C 
ATOM     14  O   LIG    1       25.669 -23.786   7.535  0.00  0.00    -0.348 OA
BRANCH  10  15
ATOM     15  O   LIG    1       23.777 -22.090   4.955  0.00  0.00    -0.385 OA
ATOM     16  H   LIG    1       23.716 -21.395   5.644  0.00  0.00    +0.210 HD
ENDBRANCH  10  15
BRANCH  11  17
ATOM     17  O   LIG    1       22.888 -24.164   6.302  0.00  0.00    -0.387 OA
ATOM     18  H   LIG    1       22.829 -24.710   7.107  0.00  0.00    +0.210 HD
ENDBRANCH  11  17
ENDBRANCH   5   9
BRANCH   1  20
ATOM     19  C   LIG    1       30.862 -19.178   7.345  0.00  0.00    +0.406 C 
ATOM     20  N   LIG    1       29.518 -19.040   7.141  0.00  0.00    -0.233 N 
ATOM     21  H   LIG    1       29.190 -18.082   7.130  0.00  0.00    +0.160 HD
ATOM     22  O   LIG    1       31.520 -20.211   7.283  0.00  0.00    -0.226 OA
BRANCH  19  23
ATOM     23  O   LIG    1       31.417 -17.973   7.610  0.00  0.00    -0.450 OA
BRANCH  23  24
ATOM     24  C   LIG    1       31.855 -17.820   8.970  0.00  0.00    +0.234 C 
BRANCH  24  25
ATOM     25  C   LIG    1       30.809 -17.098   9.831  0.00  0.00    +0.041 C 
BRANCH  25  26
ATOM     26  C   LIG    1       31.095 -17.202  11.332  0.00  0.00    +0.003 C 
BRANCH  26  28
ATOM     27  C   LIG    1       32.077 -15.901  13.278  0.00  0.00    +0.004 C 
ATOM     28  C   LIG    1       32.203 -16.259  11.804  0.00  0.00    -0.003 C 
ENDBRANCH  26  28
ENDBRANCH  25  26
ENDBRANCH  24  25
ENDBRANCH  23  24
ENDBRANCH  19  23
ENDBRANCH   1  20
TORSDOF 9
ENDMDL
MODEL 7
REMARK VINA RESULT:      -7.1      6.472      9.879
REMARK  Name = *****
REMARK                            x       y       z     vdW  Elec       q    Type
REMARK                         _______ _______ _______ _____ _____    ______ ____
ROOT
ATOM      1  C   LIG    1       24.840 -26.483   5.768  0.00  0.00    +0.170 A 
ATOM      2  C   LIG    1       26.116 -25.889   6.205  0.00  0.00    +0.180 A 
ATOM      3  F   LIG    1       27.295 -26.506   6.101  0.00  0.00    -0.200 F 
ATOM      4  C   LIG    1       26.043 -24.665   6.700  0.00  0.00    +0.135 A 
ATOM      5  N   LIG    1       24.838 -24.005   6.797  0.00  0.00    -0.267 N 
ATOM      6  C   LIG    1       23.635 -24.671   6.532  0.00  0.00    +0.352 A 
ATOM      7  O   LIG    1       22.542 -24.194   6.813  0.00  0.00    -0.244 OA
ATOM      8  N   LIG    1       23.695 -25.912   5.924  0.00  0.00    -0.175 NA
ENDROOT
BRANCH   5   9
ATOM      9  C   LIG    1       24.878 -22.643   7.313  0.00  0.00    +0.255 C 
ATOM     10  C   LIG    1       26.240 -22.067   7.722  0.00  0.00    +0.195 C 
ATOM     11  C   LIG    1       25.995 -20.584   7.504  0.00  0.00    +0.176 C 
ATOM     12  C   LIG    1       25.045 -20.559   6.304  0.00  0.00    +0.149 C 
ATOM     13  C   LIG    1       25.745 -20.550   4.955  0.00  0.00    +0.040 C 
ATOM     14  O   LIG    1       24.258 -21.763   6.366  0.00  0.00    -0.348 OA
BRANCH  10  15
ATOM     15  O   LIG    1       26.578 -22.364   9.080  0.00  0.00    -0.385 OA
ATOM     16  H   LIG    1       27.294 -21.736   9.310  0.00  0.00    +0.210 HD
ENDBRANCH  10  15
BRANCH  11  17
ATOM     17  O   LIG    1       25.343 -20.078   8.686  0.00  0.00    -0.387 OA
ATOM     18  H   LIG    1       24.727 -19.379   8.398  0.00  0.00    +0.210 HD
ENDBRANCH  11  17
ENDBRANCH   5   9
BRANCH   1  20
ATOM     19  C   LIG    1       24.461 -28.937   5.654  0.00  0.00    +0.406 C 
ATOM     20  N   LIG    1       24.795 -27.708   5.160  0.00  0.00    -0.233 N 
ATOM     21  H   LIG    1       25.112 -27.712   4.200  0.00  0.00    +0.160 HD
ATOM     22  O   LIG    1       23.941 -29.187   6.736  0.00  0.00    -0.226 OA
BRANCH  19  23
ATOM     23  O   LIG    1       24.761 -29.897   4.749  0.00  0.00    -0.450 OA
BRANCH  23  24
ATOM     24  C   LIG    1       25.702 -30.873   5.226  0.00  0.00    +0.234 C 
BRANCH  24  25
ATOM     25  C   LIG    1       25.080 -32.274   5.313  0.00  0.00    +0.041 C 
BRANCH  25  26
ATOM     26  C   LIG    1       25.687 -33.261   4.313  0.00  0.00    +0.003 C 
BRANCH  26  28
ATOM     27  C   LIG    1       27.051 -32.998   2.187  0.00  0.00    +0.004 C 
ATOM     28  C   LIG    1       25.724 -32.725   2.879  0.00  0.00    -0.003 C 
ENDBRANCH  26  28
ENDBRANCH  25  26
ENDBRANCH  24  25
ENDBRANCH  23  24
ENDBRANCH  19  23
ENDBRANCH   1  20
TORSDOF 9
ENDMDL
MODEL 8
REMARK VINA RESULT:      -7.0      5.220      7.774
REMARK  Name = *****
REMARK                            x       y       z     vdW  Elec       q    Type
REMARK                         _______ _______ _______ _____ _____    ______ ____
ROOT
ATOM      1  C   LIG    1       25.325 -23.849   6.181  0.00  0.00    +0.170 A 
ATOM      2  C   LIG    1       23.914 -24.206   6.416  0.00  0.00    +0.180 A 
ATOM      3  F   LIG    1       22.940 -23.308   6.581  0.00  0.00    -0.200 F 
ATOM      4  C   LIG    1       23.642 -25.499   6.435  0.00  0.00    +0.135 A 
ATOM      5  N   LIG    1       24.630 -26.440   6.247  0.00  0.00    -0.267 N 
ATOM      6  C   LIG    1       25.977 -26.061   6.200  0.00  0.00    +0.352 A 
ATOM      7  O   LIG    1       26.893 -26.873   6.254  0.00  0.00    -0.244 OA
ATOM      8  N   LIG    1       26.274 -24.715   6.082  0.00  0.00    -0.175 NA
ENDROOT
BRANCH   5   9
ATOM      9  C   LIG    1       24.212 -27.835   6.239  0.00  0.00    +0.255 C 
ATOM     10  C   LIG    1       25.027 -28.827   5.398  0.00  0.00    +0.195 C 
ATOM     11  C   LIG    1       24.776 -30.116   6.161  0.00  0.00    +0.176 C 
ATOM     12  C   LIG    1       24.675 -29.647   7.615  0.00  0.00    +0.149 C 
ATOM     13  C   LIG    1       26.007 -29.580   8.343  0.00  0.00    +0.040 C 
ATOM     14  O   LIG    1       24.138 -28.312   7.590  0.00  0.00    -0.348 OA
BRANCH  10  15
ATOM     15  O   LIG    1       24.571 -28.904   4.045  0.00  0.00    -0.385 OA
ATOM     16  H   LIG    1       24.313 -27.989   3.808  0.00  0.00    +0.210 HD
ENDBRANCH  10  15
BRANCH  11  17
ATOM     17  O   LIG    1       23.518 -30.648   5.704  0.00  0.00    -0.387 OA
ATOM     18  H   LIG    1       22.951 -29.890   5.471  0.00  0.00    +0.210 HD
ENDBRANCH  11  17
ENDBRANCH   5   9
BRANCH   1  20
ATOM     19  C   LIG    1       25.727 -21.523   6.961  0.00  0.00    +0.406 C 
ATOM     20  N   LIG    1       25.719 -22.545   6.054  0.00  0.00    -0.233 N 
ATOM     21  H   LIG    1       26.002 -22.280   5.119  0.00  0.00    +0.160 HD
ATOM     22  O   LIG    1       25.546 -21.602   8.171  0.00  0.00    -0.226 OA
BRANCH  19  23
ATOM     23  O   LIG    1       26.003 -20.354   6.338  0.00  0.00    -0.450 OA
BRANCH  23  24
ATOM     24  C   LIG    1       26.114 -20.467   4.910  0.00  0.00    +0.234 C 
BRANCH  24  25
ATOM     25  C   LIG    1       25.023 -19.667   4.185  0.00  0.00    +0.041 C 
BRANCH  25  26
ATOM     26  C   LIG    1       23.659 -20.362   4.204  0.00  0.00    +0.003 C 
BRANCH  26  28
ATOM     27  C   LIG    1       22.181 -18.326   4.552  0.00  0.00    +0.004 C 
ATOM     28  C   LIG    1       22.638 -19.667   5.108  0.00  0.00    -0.003 C 
ENDBRANCH  26  28
ENDBRANCH  25  26
ENDBRANCH  24  25
ENDBRANCH  23  24
ENDBRANCH  19  23
ENDBRANCH   1  20
TORSDOF 9
ENDMDL
MODEL 9
REMARK VINA RESULT:      -7.0      1.839      2.713
REMARK  Name = *****
REMARK                            x       y       z     vdW  Elec       q    Type
REMARK                         _______ _______ _______ _____ _____    ______ ____
ROOT
ATOM      1  C   LIG    1       28.318 -20.304   6.833  0.00  0.00    +0.170 A 
ATOM      2  C   LIG    1       27.495 -21.239   7.622  0.00  0.00    +0.180 A 
ATOM      3  F   LIG    1       27.954 -21.930   8.668  0.00  0.00    -0.200 F 
ATOM      4  C   LIG    1       26.231 -21.351   7.248  0.00  0.00    +0.135 A 
ATOM      5  N   LIG    1       25.735 -20.632   6.184  0.00  0.00    -0.267 N 
ATOM      6  C   LIG    1       26.591 -19.891   5.361  0.00  0.00    +0.352 A 
ATOM      7  O   LIG    1       26.231 -19.420   4.288  0.00  0.00    -0.244 OA
ATOM      8  N   LIG    1       27.890 -19.684   5.787  0.00  0.00    -0.175 NA
ENDROOT
BRANCH   5   9
ATOM      9  C   LIG    1       24.318 -20.795   5.889  0.00  0.00    +0.255 C 
ATOM     10  C   LIG    1       23.929 -21.550   4.610  0.00  0.00    +0.195 C 
ATOM     11  C   LIG    1       22.571 -22.099   5.008  0.00  0.00    +0.176 C 
ATOM     12  C   LIG    1       22.730 -22.373   6.507  0.00  0.00    +0.149 C 
ATOM     13  C   LIG    1       23.284 -23.750   6.833  0.00  0.00    +0.040 C 
ATOM     14  O   LIG    1       23.670 -21.408   7.013  0.00  0.00    -0.348 OA
BRANCH  10  15
ATOM     15  O   LIG    1       23.850 -20.692   3.468  0.00  0.00    -0.385 OA
ATOM     16  H   LIG    1       23.108 -21.043   2.933  0.00  0.00    +0.210 HD
ENDBRANCH  10  15
BRANCH  11  17
ATOM     17  O   LIG    1       21.601 -21.058   4.777  0.00  0.00    -0.387 OA
ATOM     18  H   LIG    1       21.053 -21.337   4.021  0.00  0.00    +0.210 HD
ENDBRANCH  11  17
ENDBRANCH   5   9
BRANCH   1  20
ATOM     19  C   LIG    1       30.531 -19.196   6.604  0.00  0.00    +0.406 C 
ATOM     20  N   LIG    1       29.616 -20.036   7.172  0.00  0.00    -0.233 N 
ATOM     21  H   LIG    1       29.973 -20.591   7.939  0.00  0.00    +0.160 HD
ATOM     22  O   LIG    1       30.325 -18.341   5.749  0.00  0.00    -0.226 OA
BRANCH  19  23
ATOM     23  O   LIG    1       31.753 -19.410   7.144  0.00  0.00    -0.450 OA
BRANCH  23  24
ATOM     24  C   LIG    1       31.832 -19.102   8.546  0.00  0.00    +0.234 C 
BRANCH  24  25
ATOM     25  C   LIG    1       31.646 -17.603   8.815  0.00  0.00    +0.041 C 
BRANCH  25  26
ATOM     26  C   LIG    1       32.263 -17.152  10.142  0.00  0.00    +0.003 C 
BRANCH  26  28
ATOM     27  C   LIG    1       31.861 -16.183  12.454  0.00  0.00    +0.004 C 
ATOM     28  C   LIG    1       31.236 -16.590  11.127  0.00  0.00    -0.003 C 
ENDBRANCH  26  28
ENDBRANCH  25  26
ENDBRANCH  24  25
ENDBRANCH  23  24
ENDBRANCH  19  23
ENDBRANCH   1  20
TORSDOF 9
ENDMDL
