MODEL 1
REMARK VINA RESULT:       0.5      0.000      0.000
REMARK  Name = *****
REMARK                            x       y       z     vdW  Elec       q    Type
REMARK                         _______ _______ _______ _____ _____    ______ ____
ROOT
ATOM      1  C   LIG    1       27.213 -17.020   4.143  0.00  0.00    -0.000 C 
ATOM      2  C   LIG    1       27.574 -18.213   4.674  0.00  0.00    -0.066 C 
ATOM      3  C   LIG    1       27.028 -19.601   4.398  0.00  0.00    +0.021 C 
ATOM      4  C   LIG    1       25.750 -19.784   3.587  0.00  0.00    +0.009 C 
ATOM      5  C   LIG    1       25.171 -21.090   4.118  0.00  0.00    +0.005 C 
ATOM      6  C   LIG    1       25.425 -21.077   5.636  0.00  0.00    +0.002 C 
ATOM      7  C   LIG    1       26.846 -20.452   5.730  0.00  0.00    -0.022 C 
ATOM      8  C   LIG    1       27.932 -21.570   5.729  0.00  0.00    +0.012 C 
ATOM      9  C   LIG    1       27.059 -19.659   7.025  0.00  0.00    +0.008 C 
ATOM     10  C   LIG    1       28.369 -18.942   7.030  0.00  0.00    +0.005 C 
ATOM     11  C   LIG    1       28.678 -18.394   5.660  0.00  0.00    +0.031 C 
ENDROOT
BRANCH   1  19
ATOM     12  C   LIG    1       24.701 -14.282   4.817  0.00  0.00    +0.015 C 
ATOM     13  C   LIG    1       25.716 -14.040   4.005  0.00  0.00    -0.023 C 
ATOM     14  C   LIG    1       25.659 -13.531   2.561  0.00  0.00    +0.147 C 
ATOM     15  C   LIG    1       26.325 -12.176   2.509  0.00  0.00    +0.067 C 
ATOM     16  C   LIG    1       27.723 -12.216   3.158  0.00  0.00    +0.122 C 
ATOM     17  C   LIG    1       27.841 -13.074   4.454  0.00  0.00    +0.067 C 
ATOM     18  C   LIG    1       27.102 -14.402   4.331  0.00  0.00    -0.040 C 
ATOM     19  C   LIG    1       27.669 -15.626   4.378  0.00  0.00    +0.004 C 
BRANCH  14  20
ATOM     20  O   LIG    1       24.326 -13.444   2.073  0.00  0.00    -0.387 OA
ATOM     21  H   LIG    1       24.320 -12.759   1.384  0.00  0.00    +0.210 HD
ENDBRANCH  14  20
BRANCH  16  22
ATOM     22  O   LIG    1       28.675 -12.680   2.193  0.00  0.00    -0.391 OA
ATOM     23  H   LIG    1       28.838 -11.962   1.556  0.00  0.00    +0.210 HD
ENDBRANCH  16  22
ENDBRANCH   1  19
BRANCH   6  24
ATOM     24  C   LIG    1       24.238 -20.441   6.446  0.00  0.00    +0.012 C 
ATOM     25  C   LIG    1       23.234 -21.435   7.061  0.00  0.00    +0.012 C 
BRANCH  24  26
ATOM     26  C   LIG    1       23.512 -19.324   5.694  0.00  0.00    -0.027 C 
ATOM     27  C   LIG    1       22.716 -19.494   4.621  0.00  0.00    -0.027 C 
BRANCH  27  28
ATOM     28  C   LIG    1       21.975 -18.361   3.920  0.00  0.00    +0.011 C 
ATOM     29  C   LIG    1       22.300 -17.054   4.661  0.00  0.00    +0.012 C 
BRANCH  28  30
ATOM     30  C   LIG    1       20.433 -18.594   3.832  0.00  0.00    -0.011 C 
ATOM     31  C   LIG    1       20.053 -20.080   3.840  0.00  0.00    +0.008 C 
ATOM     32  C   LIG    1       19.817 -17.953   2.577  0.00  0.00    +0.008 C 
ENDBRANCH  28  30
ENDBRANCH  27  28
ENDBRANCH  24  26
ENDBRANCH   6  24
TORSDOF 7
ENDMDL
MODEL 2
REMARK VINA RESULT:       3.1      2.761      7.857
REMARK  Name = *****
REMARK                            x       y       z     vdW  Elec       q    Type
REMARK                         _______ _______ _______ _____ _____    ______ ____
ROOT
ATOM      1  C   LIG    1       23.592 -16.482   3.983  0.00  0.00    -0.000 C 
ATOM      2  C   LIG    1       23.608 -15.133   4.105  0.00  0.00    -0.066 C 
ATOM      3  C   LIG    1       24.289 -14.091   3.239  0.00  0.00    +0.021 C 
ATOM      4  C   LIG    1       25.302 -14.507   2.178  0.00  0.00    +0.009 C 
ATOM      5  C   LIG    1       26.226 -13.299   2.069  0.00  0.00    +0.005 C 
ATOM      6  C   LIG    1       26.407 -12.777   3.506  0.00  0.00    +0.002 C 
ATOM      7  C   LIG    1       24.982 -12.949   4.104  0.00  0.00    -0.022 C 
ATOM      8  C   LIG    1       24.152 -11.644   3.915  0.00  0.00    +0.012 C 
ATOM      9  C   LIG    1       25.003 -13.220   5.614  0.00  0.00    +0.008 C 
ATOM     10  C   LIG    1       23.642 -13.533   6.143  0.00  0.00    +0.005 C 
ATOM     11  C   LIG    1       22.872 -14.376   5.157  0.00  0.00    +0.031 C 
ENDROOT
BRANCH   1  19
ATOM     12  C   LIG    1       25.473 -19.702   4.580  0.00  0.00    +0.015 C 
ATOM     13  C   LIG    1       24.182 -19.752   4.296  0.00  0.00    -0.023 C 
ATOM     14  C   LIG    1       23.503 -20.534   3.167  0.00  0.00    +0.147 C 
ATOM     15  C   LIG    1       22.595 -21.571   3.787  0.00  0.00    +0.067 C 
ATOM     16  C   LIG    1       21.656 -20.937   4.832  0.00  0.00    +0.122 C 
ATOM     17  C   LIG    1       22.296 -19.844   5.740  0.00  0.00    +0.067 C 
ATOM     18  C   LIG    1       23.187 -18.892   4.949  0.00  0.00    -0.040 C 
ATOM     19  C   LIG    1       22.982 -17.566   4.796  0.00  0.00    +0.004 C 
BRANCH  14  20
ATOM     20  O   LIG    1       24.444 -21.157   2.301  0.00  0.00    -0.387 OA
ATOM     21  H   LIG    1       24.850 -20.453   1.770  0.00  0.00    +0.210 HD
ENDBRANCH  14  20
BRANCH  16  22
ATOM     22  O   LIG    1       20.513 -20.390   4.164  0.00  0.00    -0.391 OA
ATOM     23  H   LIG    1       20.323 -20.940   3.383  0.00  0.00    +0.210 HD
ENDBRANCH  16  22
ENDBRANCH   1  19
BRANCH   6  24
ATOM     24  C   LIG    1       27.642 -13.419   4.235  0.00  0.00    +0.012 C 
ATOM     25  C   LIG    1       28.974 -12.657   4.098  0.00  0.00    +0.012 C 
BRANCH  24  26
ATOM     26  C   LIG    1       27.829 -14.906   3.931  0.00  0.00    -0.027 C 
ATOM     27  C   LIG    1       28.231 -15.841   4.813  0.00  0.00    -0.027 C 
BRANCH  27  28
ATOM     28  C   LIG    1       28.367 -17.323   4.483  0.00  0.00    +0.011 C 
ATOM     29  C   LIG    1       27.132 -17.742   3.670  0.00  0.00    +0.012 C 
BRANCH  28  30
ATOM     30  C   LIG    1       28.545 -18.222   5.747  0.00  0.00    -0.011 C 
ATOM     31  C   LIG    1       29.475 -17.600   6.797  0.00  0.00    +0.008 C 
ATOM     32  C   LIG    1       29.091 -19.618   5.399  0.00  0.00    +0.008 C 
ENDBRANCH  28  30
ENDBRANCH  27  28
ENDBRANCH  24  26
ENDBRANCH   6  24
TORSDOF 7
ENDMDL
