MODEL 1
REMARK VINA RESULT:      -9.7      0.000      0.000
REMARK  Name = *****
REMARK                            x       y       z     vdW  Elec       q    Type
REMARK                         _______ _______ _______ _____ _____    ______ ____
ROOT
ATOM      1  C   LIG    1       24.755 -22.462   7.389  0.00  0.00    +0.178 C 
ENDROOT
BRANCH   1   6
ATOM      2 CL   LIG    1       25.164 -28.124   5.198  0.00  0.00    -0.084 Cl
ATOM      3  C   LIG    1       25.045 -26.518   5.811  0.00  0.00    +0.041 A 
ATOM      4  C   LIG    1       23.807 -25.908   5.928  0.00  0.00    +0.020 A 
ATOM      5  C   LIG    1       23.709 -24.603   6.431  0.00  0.00    +0.008 A 
ATOM      6  C   LIG    1       24.857 -23.890   6.827  0.00  0.00    -0.014 A 
ATOM      7  C   LIG    1       26.100 -24.531   6.704  0.00  0.00    +0.008 A 
ATOM      8  C   LIG    1       26.201 -25.833   6.195  0.00  0.00    +0.020 A 
ENDBRANCH   1   6
BRANCH   1   9
ATOM      9  C   LIG    1       24.308 -21.443   6.338  0.00  0.00    -0.015 A 
ATOM     10  C   LIG    1       25.084 -21.227   5.186  0.00  0.00    +0.006 A 
ATOM     11  C   LIG    1       24.692 -20.300   4.217  0.00  0.00    +0.000 A 
ATOM     12  C   LIG    1       23.487 -19.611   4.354  0.00  0.00    +0.000 A 
ATOM     13  C   LIG    1       22.689 -19.840   5.471  0.00  0.00    +0.000 A 
ATOM     14  C   LIG    1       23.103 -20.731   6.466  0.00  0.00    +0.006 A 
ENDBRANCH   1   9
BRANCH   1  15
ATOM     15  O   LIG    1       26.017 -22.085   7.981  0.00  0.00    -0.366 OA
BRANCH  15  16
ATOM     16  C   LIG    1       26.028 -20.753   8.521  0.00  0.00    +0.176 C 
BRANCH  16  17
ATOM     17  C   LIG    1       27.325 -20.028   8.096  0.00  0.00    +0.112 C 
BRANCH  17  18
ATOM     18  N   LIG    1       28.210 -20.794   7.189  0.00  0.00    -0.300 NA
ATOM     19  C   LIG    1       28.499 -20.048   5.949  0.00  0.00    +0.084 C 
ATOM     20  C   LIG    1       29.433 -18.849   6.146  0.00  0.00    +0.015 C 
ATOM     21  C   LIG    1       30.724 -19.250   6.854  0.00  0.00    +0.002 C 
ATOM     22  C   LIG    1       30.445 -20.085   8.100  0.00  0.00    +0.015 C 
ATOM     23  C   LIG    1       29.475 -21.230   7.800  0.00  0.00    +0.084 C 
ENDBRANCH  17  18
ENDBRANCH  16  17
ENDBRANCH  15  16
ENDBRANCH   1  15
TORSDOF 6
ENDMDL
MODEL 2
REMARK VINA RESULT:      -9.6      0.046      1.005
REMARK  Name = *****
REMARK                            x       y       z     vdW  Elec       q    Type
REMARK                         _______ _______ _______ _____ _____    ______ ____
ROOT
ATOM      1  C   LIG    1       24.760 -22.469   7.348  0.00  0.00    +0.178 C 
ENDROOT
BRANCH   1   6
ATOM      2 CL   LIG    1       25.197 -28.156   5.228  0.00  0.00    -0.084 Cl
ATOM      3  C   LIG    1       25.070 -26.543   5.820  0.00  0.00    +0.041 A 
ATOM      4  C   LIG    1       23.831 -25.932   5.914  0.00  0.00    +0.020 A 
ATOM      5  C   LIG    1       23.726 -24.622   6.401  0.00  0.00    +0.008 A 
ATOM      6  C   LIG    1       24.869 -23.904   6.804  0.00  0.00    -0.014 A 
ATOM      7  C   LIG    1       26.113 -24.546   6.704  0.00  0.00    +0.008 A 
ATOM      8  C   LIG    1       26.220 -25.853   6.211  0.00  0.00    +0.020 A 
ENDBRANCH   1   6
BRANCH   1   9
ATOM      9  C   LIG    1       24.324 -21.463   6.281  0.00  0.00    -0.015 A 
ATOM     10  C   LIG    1       23.119 -20.753   6.426  0.00  0.00    +0.006 A 
ATOM     11  C   LIG    1       22.707 -19.831   5.461  0.00  0.00    +0.000 A 
ATOM     12  C   LIG    1       23.517 -19.560   4.359  0.00  0.00    +0.000 A 
ATOM     13  C   LIG    1       24.730 -20.227   4.219  0.00  0.00    +0.000 A 
ATOM     14  C   LIG    1       25.123 -21.186   5.157  0.00  0.00    +0.006 A 
ENDBRANCH   1   9
BRANCH   1  15
ATOM     15  O   LIG    1       26.015 -22.085   7.950  0.00  0.00    -0.366 OA
BRANCH  15  16
ATOM     16  C   LIG    1       26.018 -20.748   8.477  0.00  0.00    +0.176 C 
BRANCH  16  17
ATOM     17  C   LIG    1       27.330 -20.033   8.083  0.00  0.00    +0.112 C 
BRANCH  17  18
ATOM     18  N   LIG    1       28.208 -20.788   7.160  0.00  0.00    -0.300 NA
ATOM     19  C   LIG    1       28.478 -20.032   5.922  0.00  0.00    +0.084 C 
ATOM     20  C   LIG    1       29.408 -18.829   6.116  0.00  0.00    +0.015 C 
ATOM     21  C   LIG    1       30.709 -19.228   6.806  0.00  0.00    +0.002 C 
ATOM     22  C   LIG    1       30.449 -20.073   8.050  0.00  0.00    +0.015 C 
ATOM     23  C   LIG    1       29.483 -21.221   7.753  0.00  0.00    +0.084 C 
ENDBRANCH  17  18
ENDBRANCH  16  17
ENDBRANCH  15  16
ENDBRANCH   1  15
TORSDOF 6
ENDMDL
MODEL 3
REMARK VINA RESULT:      -8.9      2.831      6.092
REMARK  Name = *****
REMARK                            x       y       z     vdW  Elec       q    Type
REMARK                         _______ _______ _______ _____ _____    ______ ____
ROOT
ATOM      1  C   LIG    1       25.742 -21.371   6.036  0.00  0.00    +0.178 C 
ENDROOT
BRANCH   1   6
ATOM      2 CL   LIG    1       30.701 -18.335   7.829  0.00  0.00    -0.084 Cl
ATOM      3  C   LIG    1       29.293 -19.187   7.318  0.00  0.00    +0.041 A 
ATOM      4  C   LIG    1       28.974 -19.260   5.972  0.00  0.00    +0.020 A 
ATOM      5  C   LIG    1       27.831 -19.957   5.556  0.00  0.00    +0.008 A 
ATOM      6  C   LIG    1       26.991 -20.596   6.488  0.00  0.00    -0.014 A 
ATOM      7  C   LIG    1       27.338 -20.513   7.845  0.00  0.00    +0.008 A 
ATOM      8  C   LIG    1       28.476 -19.810   8.264  0.00  0.00    +0.020 A 
ENDBRANCH   1   6
BRANCH   1   9
ATOM      9  C   LIG    1       24.687 -20.469   5.389  0.00  0.00    -0.015 A 
ATOM     10  C   LIG    1       24.936 -19.871   4.142  0.00  0.00    +0.006 A 
ATOM     11  C   LIG    1       23.985 -19.045   3.538  0.00  0.00    +0.000 A 
ATOM     12  C   LIG    1       22.745 -18.845   4.143  0.00  0.00    +0.000 A 
ATOM     13  C   LIG    1       22.468 -19.460   5.360  0.00  0.00    +0.000 A 
ATOM     14  C   LIG    1       23.436 -20.248   5.991  0.00  0.00    +0.006 A 
ENDBRANCH   1   9
BRANCH   1  15
ATOM     15  O   LIG    1       25.193 -22.098   7.157  0.00  0.00    -0.366 OA
BRANCH  15  16
ATOM     16  C   LIG    1       24.730 -23.417   6.821  0.00  0.00    +0.176 C 
BRANCH  16  17
ATOM     17  C   LIG    1       25.871 -24.438   7.027  0.00  0.00    +0.112 C 
BRANCH  17  18
ATOM     18  N   LIG    1       26.200 -25.267   5.844  0.00  0.00    -0.300 NA
ATOM     19  C   LIG    1       26.710 -26.596   6.233  0.00  0.00    +0.084 C 
ATOM     20  C   LIG    1       25.641 -27.527   6.817  0.00  0.00    +0.015 C 
ATOM     21  C   LIG    1       24.437 -27.655   5.889  0.00  0.00    +0.002 C 
ATOM     22  C   LIG    1       23.942 -26.290   5.420  0.00  0.00    +0.015 C 
ATOM     23  C   LIG    1       25.092 -25.431   4.891  0.00  0.00    +0.084 C 
ENDBRANCH  17  18
ENDBRANCH  16  17
ENDBRANCH  15  16
ENDBRANCH   1  15
TORSDOF 6
ENDMDL
MODEL 4
REMARK VINA RESULT:      -8.4      2.351      4.478
REMARK  Name = *****
REMARK                            x       y       z     vdW  Elec       q    Type
REMARK                         _______ _______ _______ _____ _____    ______ ____
ROOT
ATOM      1  C   LIG    1       25.882 -22.021   6.328  0.00  0.00    +0.178 C 
ENDROOT
BRANCH   1   6
ATOM      2 CL   LIG    1       21.623 -18.397   3.929  0.00  0.00    -0.084 Cl
ATOM      3  C   LIG    1       22.829 -19.418   4.616  0.00  0.00    +0.041 A 
ATOM      4  C   LIG    1       22.577 -20.096   5.797  0.00  0.00    +0.020 A 
ATOM      5  C   LIG    1       23.556 -20.930   6.353  0.00  0.00    +0.008 A 
ATOM      6  C   LIG    1       24.807 -21.099   5.727  0.00  0.00    -0.014 A 
ATOM      7  C   LIG    1       25.037 -20.406   4.529  0.00  0.00    +0.008 A 
ATOM      8  C   LIG    1       24.062 -19.565   3.975  0.00  0.00    +0.020 A 
ENDBRANCH   1   6
BRANCH   1   9
ATOM      9  C   LIG    1       25.554 -23.506   6.149  0.00  0.00    -0.015 A 
ATOM     10  C   LIG    1       25.888 -24.431   7.153  0.00  0.00    +0.006 A 
ATOM     11  C   LIG    1       25.597 -25.789   7.006  0.00  0.00    +0.000 A 
ATOM     12  C   LIG    1       24.917 -26.242   5.876  0.00  0.00    +0.000 A 
ATOM     13  C   LIG    1       24.546 -25.334   4.889  0.00  0.00    +0.000 A 
ATOM     14  C   LIG    1       24.879 -23.981   5.011  0.00  0.00    +0.006 A 
ENDBRANCH   1   9
BRANCH   1  15
ATOM     15  O   LIG    1       26.077 -21.692   7.720  0.00  0.00    -0.366 OA
BRANCH  15  16
ATOM     16  C   LIG    1       26.575 -20.362   7.936  0.00  0.00    +0.176 C 
BRANCH  16  17
ATOM     17  C   LIG    1       28.001 -20.427   8.526  0.00  0.00    +0.112 C 
BRANCH  17  18
ATOM     18  N   LIG    1       29.024 -21.034   7.644  0.00  0.00    -0.300 NA
ATOM     19  C   LIG    1       29.205 -20.257   6.402  0.00  0.00    +0.084 C 
ATOM     20  C   LIG    1       29.913 -18.912   6.606  0.00  0.00    +0.015 C 
ATOM     21  C   LIG    1       31.239 -19.080   7.343  0.00  0.00    +0.002 C 
ATOM     22  C   LIG    1       31.083 -19.943   8.591  0.00  0.00    +0.015 C 
ATOM     23  C   LIG    1       30.332 -21.240   8.283  0.00  0.00    +0.084 C 
ENDBRANCH  17  18
ENDBRANCH  16  17
ENDBRANCH  15  16
ENDBRANCH   1  15
TORSDOF 6
ENDMDL
MODEL 5
REMARK VINA RESULT:      -7.9      1.813      4.503
REMARK  Name = *****
REMARK                            x       y       z     vdW  Elec       q    Type
REMARK                         _______ _______ _______ _____ _____    ______ ____
ROOT
ATOM      1  C   LIG    1       25.289 -22.133   6.557  0.00  0.00    +0.178 C 
ENDROOT
BRANCH   1   6
ATOM      2 CL   LIG    1       25.611 -28.081   5.313  0.00  0.00    -0.084 Cl
ATOM      3  C   LIG    1       25.526 -26.395   5.658  0.00  0.00    +0.041 A 
ATOM      4  C   LIG    1       25.081 -25.508   4.692  0.00  0.00    +0.020 A 
ATOM      5  C   LIG    1       25.008 -24.137   4.975  0.00  0.00    +0.008 A 
ATOM      6  C   LIG    1       25.378 -23.635   6.237  0.00  0.00    -0.014 A 
ATOM      7  C   LIG    1       25.820 -24.554   7.202  0.00  0.00    +0.008 A 
ATOM      8  C   LIG    1       25.901 -25.924   6.919  0.00  0.00    +0.020 A 
ENDBRANCH   1   6
BRANCH   1   9
ATOM      9  C   LIG    1       26.664 -21.474   6.692  0.00  0.00    -0.015 A 
ATOM     10  C   LIG    1       27.031 -20.419   5.838  0.00  0.00    +0.006 A 
ATOM     11  C   LIG    1       28.281 -19.807   5.947  0.00  0.00    +0.000 A 
ATOM     12  C   LIG    1       29.169 -20.200   6.948  0.00  0.00    +0.000 A 
ATOM     13  C   LIG    1       28.807 -21.218   7.825  0.00  0.00    +0.000 A 
ATOM     14  C   LIG    1       27.576 -21.866   7.687  0.00  0.00    +0.006 A 
ENDBRANCH   1   9
BRANCH   1  15
ATOM     15  O   LIG    1       24.496 -21.939   7.748  0.00  0.00    -0.366 OA
BRANCH  15  16
ATOM     16  C   LIG    1       23.166 -21.462   7.486  0.00  0.00    +0.176 C 
BRANCH  16  17
ATOM     17  C   LIG    1       23.230 -20.187   6.615  0.00  0.00    +0.112 C 
BRANCH  17  18
ATOM     18  N   LIG    1       22.392 -20.212   5.394  0.00  0.00    -0.300 NA
ATOM     19  C   LIG    1       22.276 -18.873   4.784  0.00  0.00    +0.084 C 
ATOM     20  C   LIG    1       23.563 -18.382   4.111  0.00  0.00    +0.015 C 
ATOM     21  C   LIG    1       24.096 -19.397   3.104  0.00  0.00    +0.002 C 
ATOM     22  C   LIG    1       24.153 -20.801   3.698  0.00  0.00    +0.015 C 
ATOM     23  C   LIG    1       22.833 -21.175   4.374  0.00  0.00    +0.084 C 
ENDBRANCH  17  18
ENDBRANCH  16  17
ENDBRANCH  15  16
ENDBRANCH   1  15
TORSDOF 6
ENDMDL
MODEL 6
REMARK VINA RESULT:      -7.7      2.819      5.922
REMARK  Name = *****
REMARK                            x       y       z     vdW  Elec       q    Type
REMARK                         _______ _______ _______ _____ _____    ______ ____
ROOT
ATOM      1  C   LIG    1       25.822 -22.611   7.849  0.00  0.00    +0.178 C 
ENDROOT
BRANCH   1   6
ATOM      2 CL   LIG    1       30.237 -18.852   6.003  0.00  0.00    -0.084 Cl
ATOM      3  C   LIG    1       28.992 -19.924   6.523  0.00  0.00    +0.041 A 
ATOM      4  C   LIG    1       29.243 -20.849   7.521  0.00  0.00    +0.020 A 
ATOM      5  C   LIG    1       28.229 -21.718   7.948  0.00  0.00    +0.008 A 
ATOM      6  C   LIG    1       26.942 -21.667   7.377  0.00  0.00    -0.014 A 
ATOM      7  C   LIG    1       26.710 -20.717   6.371  0.00  0.00    +0.008 A 
ATOM      8  C   LIG    1       27.725 -19.853   5.937  0.00  0.00    +0.020 A 
ENDBRANCH   1   6
BRANCH   1   9
ATOM      9  C   LIG    1       25.594 -23.783   6.892  0.00  0.00    -0.015 A 
ATOM     10  C   LIG    1       25.750 -25.106   7.343  0.00  0.00    +0.006 A 
ATOM     11  C   LIG    1       25.547 -26.188   6.483  0.00  0.00    +0.000 A 
ATOM     12  C   LIG    1       25.130 -25.971   5.171  0.00  0.00    +0.000 A 
ATOM     13  C   LIG    1       24.935 -24.669   4.718  0.00  0.00    +0.000 A 
ATOM     14  C   LIG    1       25.185 -23.583   5.562  0.00  0.00    +0.006 A 
ENDBRANCH   1   9
BRANCH   1  15
ATOM     15  O   LIG    1       24.608 -21.855   8.050  0.00  0.00    -0.366 OA
BRANCH  15  16
ATOM     16  C   LIG    1       23.577 -22.153   7.094  0.00  0.00    +0.176 C 
BRANCH  16  17
ATOM     17  C   LIG    1       23.075 -20.844   6.443  0.00  0.00    +0.112 C 
BRANCH  17  18
ATOM     18  N   LIG    1       22.677 -20.956   5.021  0.00  0.00    -0.300 NA
ATOM     19  C   LIG    1       21.748 -19.879   4.628  0.00  0.00    +0.084 C 
ATOM     20  C   LIG    1       22.403 -18.497   4.525  0.00  0.00    +0.015 C 
ATOM     21  C   LIG    1       23.628 -18.521   3.615  0.00  0.00    +0.002 C 
ATOM     22  C   LIG    1       24.564 -19.675   3.964  0.00  0.00    +0.015 C 
ATOM     23  C   LIG    1       23.803 -20.996   4.077  0.00  0.00    +0.084 C 
ENDBRANCH  17  18
ENDBRANCH  16  17
ENDBRANCH  15  16
ENDBRANCH   1  15
TORSDOF 6
ENDMDL
