MODEL 1
REMARK VINA RESULT:      -9.8      0.000      0.000
REMARK  Name = *****
REMARK                            x       y       z     vdW  Elec       q    Type
REMARK                         _______ _______ _______ _____ _____    ______ ____
ROOT
ATOM      1  C   LIG    1       25.799 -22.414   7.852  0.00  0.00    +0.128 A 
ATOM      2  C   LIG    1       24.565 -21.938   7.404  0.00  0.00    +0.054 A 
ATOM      3  C   LIG    1       23.680 -22.763   6.694  0.00  0.00    -0.018 A 
ATOM      4  C   LIG    1       24.029 -24.095   6.469  0.00  0.00    +0.053 A 
ATOM      5  C   LIG    1       25.246 -24.579   6.930  0.00  0.00    +0.121 A 
ATOM      6  C   LIG    1       26.139 -23.757   7.626  0.00  0.00    +0.091 A 
ENDROOT
BRANCH   3   7
ATOM      7  C   LIG    1       22.404 -22.229   6.218  0.00  0.00    +0.009 C 
ATOM      8  C   LIG    1       22.190 -21.200   5.360  0.00  0.00    +0.008 C 
BRANCH   8   9
ATOM      9  C   LIG    1       23.163 -20.338   4.670  0.00  0.00    -0.025 A 
ATOM     10  C   LIG    1       22.901 -18.957   4.590  0.00  0.00    +0.011 A 
ATOM     11  C   LIG    1       23.810 -18.093   3.976  0.00  0.00    +0.046 A 
ATOM     12  C   LIG    1       24.971 -18.606   3.404  0.00  0.00    +0.117 A 
ATOM     13  C   LIG    1       25.219 -19.973   3.422  0.00  0.00    +0.046 A 
ATOM     14  C   LIG    1       24.309 -20.831   4.037  0.00  0.00    +0.011 A 
BRANCH  12  15
ATOM     15  O   LIG    1       25.847 -17.735   2.833  0.00  0.00    -0.507 OA
ATOM     16  H   LIG    1       25.351 -16.958   2.529  0.00  0.00    +0.292 HD
ENDBRANCH  12  15
ENDBRANCH   8   9
ENDBRANCH   3   7
BRANCH   5  17
ATOM     17  O   LIG    1       25.534 -25.887   6.663  0.00  0.00    -0.507 OA
ATOM     18  H   LIG    1       26.054 -25.938   5.846  0.00  0.00    +0.292 HD
ENDBRANCH   5  17
BRANCH   1  19
ATOM     19  O   LIG    1       26.740 -21.635   8.498  0.00  0.00    -0.461 OA
BRANCH  19  24
ATOM     20  C   LIG    1       30.374 -21.438   8.096  0.00  0.00    +0.179 C 
ATOM     21  C   LIG    1       30.509 -20.007   7.581  0.00  0.00    +0.177 C 
ATOM     22  C   LIG    1       29.402 -19.725   6.566  0.00  0.00    +0.180 C 
ATOM     23  C   LIG    1       28.010 -20.021   7.150  0.00  0.00    +0.214 C 
ATOM     24  C   LIG    1       27.980 -21.442   7.775  0.00  0.00    +0.339 C 
ATOM     25  O   LIG    1       29.084 -21.593   8.670  0.00  0.00    -0.331 OA
BRANCH  21  26
ATOM     26  O   LIG    1       31.788 -19.784   6.983  0.00  0.00    -0.387 OA
ATOM     27  H   LIG    1       31.993 -20.615   6.506  0.00  0.00    +0.210 HD
ENDBRANCH  21  26
BRANCH  22  28
ATOM     28  O   LIG    1       29.504 -18.349   6.166  0.00  0.00    -0.386 OA
ATOM     29  H   LIG    1       29.535 -18.347   5.188  0.00  0.00    +0.210 HD
ENDBRANCH  22  28
BRANCH  23  30
ATOM     30  O   LIG    1       27.041 -19.818   6.105  0.00  0.00    -0.383 OA
ATOM     31  H   LIG    1       27.149 -20.513   5.431  0.00  0.00    +0.210 HD
ENDBRANCH  23  30
BRANCH  20  32
ATOM     32  C   LIG    1       31.396 -21.739   9.202  0.00  0.00    +0.190 C 
BRANCH  32  33
ATOM     33  O   LIG    1       32.291 -20.663   9.444  0.00  0.00    -0.392 OA
ATOM     34  H   LIG    1       33.000 -20.721   8.770  0.00  0.00    +0.209 HD
ENDBRANCH  32  33
ENDBRANCH  20  32
ENDBRANCH  19  24
ENDBRANCH   1  19
TORSDOF 11
ENDMDL
MODEL 2
REMARK VINA RESULT:      -9.4      2.628      5.910
REMARK  Name = *****
REMARK                            x       y       z     vdW  Elec       q    Type
REMARK                         _______ _______ _______ _____ _____    ______ ____
ROOT
ATOM      1  C   LIG    1       25.521 -22.959   7.273  0.00  0.00    +0.128 A 
ATOM      2  C   LIG    1       26.060 -23.990   6.502  0.00  0.00    +0.054 A 
ATOM      3  C   LIG    1       25.236 -24.935   5.871  0.00  0.00    -0.018 A 
ATOM      4  C   LIG    1       23.852 -24.811   5.987  0.00  0.00    +0.053 A 
ATOM      5  C   LIG    1       23.311 -23.774   6.737  0.00  0.00    +0.121 A 
ATOM      6  C   LIG    1       24.128 -22.839   7.380  0.00  0.00    +0.091 A 
ENDROOT
BRANCH   3   7
ATOM      7  C   LIG    1       25.831 -26.018   5.088  0.00  0.00    +0.009 C 
ATOM      8  C   LIG    1       26.029 -27.310   5.453  0.00  0.00    +0.008 C 
BRANCH   8   9
ATOM      9  C   LIG    1       25.705 -27.986   6.720  0.00  0.00    -0.025 A 
ATOM     10  C   LIG    1       24.597 -28.853   6.754  0.00  0.00    +0.011 A 
ATOM     11  C   LIG    1       24.269 -29.544   7.922  0.00  0.00    +0.046 A 
ATOM     12  C   LIG    1       25.024 -29.347   9.076  0.00  0.00    +0.117 A 
ATOM     13  C   LIG    1       26.085 -28.450   9.077  0.00  0.00    +0.046 A 
ATOM     14  C   LIG    1       26.409 -27.763   7.907  0.00  0.00    +0.011 A 
BRANCH  12  15
ATOM     15  O   LIG    1       24.692 -30.052  10.192  0.00  0.00    -0.507 OA
ATOM     16  H   LIG    1       24.226 -29.456  10.802  0.00  0.00    +0.292 HD
ENDBRANCH  12  15
ENDBRANCH   8   9
ENDBRANCH   3   7
BRANCH   5  17
ATOM     17  O   LIG    1       21.949 -23.719   6.824  0.00  0.00    -0.507 OA
ATOM     18  H   LIG    1       21.700 -23.089   7.519  0.00  0.00    +0.292 HD
ENDBRANCH   5  17
BRANCH   1  19
ATOM     19  O   LIG    1       26.280 -22.038   7.971  0.00  0.00    -0.461 OA
BRANCH  19  24
ATOM     20  C   LIG    1       29.898 -21.499   8.121  0.00  0.00    +0.179 C 
ATOM     21  C   LIG    1       29.992 -20.129   7.454  0.00  0.00    +0.177 C 
ATOM     22  C   LIG    1       29.051 -20.082   6.251  0.00  0.00    +0.180 C 
ATOM     23  C   LIG    1       27.613 -20.458   6.643  0.00  0.00    +0.214 C 
ATOM     24  C   LIG    1       27.602 -21.795   7.432  0.00  0.00    +0.339 C 
ATOM     25  O   LIG    1       28.548 -21.726   8.501  0.00  0.00    -0.331 OA
BRANCH  21  26
ATOM     26  O   LIG    1       31.330 -19.838   7.040  0.00  0.00    -0.387 OA
ATOM     27  H   LIG    1       31.245 -19.516   6.118  0.00  0.00    +0.210 HD
ENDBRANCH  21  26
BRANCH  22  28
ATOM     28  O   LIG    1       29.099 -18.756   5.699  0.00  0.00    -0.386 OA
ATOM     29  H   LIG    1       30.034 -18.588   5.466  0.00  0.00    +0.210 HD
ENDBRANCH  22  28
BRANCH  23  30
ATOM     30  O   LIG    1       26.819 -20.479   5.442  0.00  0.00    -0.383 OA
ATOM     31  H   LIG    1       25.876 -20.460   5.683  0.00  0.00    +0.210 HD
ENDBRANCH  23  30
BRANCH  20  32
ATOM     32  C   LIG    1       30.742 -21.563   9.402  0.00  0.00    +0.190 C 
BRANCH  32  33
ATOM     33  O   LIG    1       32.105 -21.880   9.158  0.00  0.00    -0.392 OA
ATOM     34  H   LIG    1       32.474 -22.228   9.997  0.00  0.00    +0.209 HD
ENDBRANCH  32  33
ENDBRANCH  20  32
ENDBRANCH  19  24
ENDBRANCH   1  19
TORSDOF 11
ENDMDL
MODEL 3
REMARK VINA RESULT:      -9.3      1.867      4.925
REMARK  Name = *****
REMARK                            x       y       z     vdW  Elec       q    Type
REMARK                         _______ _______ _______ _____ _____    ______ ____
ROOT
ATOM      1  C   LIG    1       27.742 -19.859   5.856  0.00  0.00    +0.128 A 
ATOM      2  C   LIG    1       26.909 -20.404   6.834  0.00  0.00    +0.054 A 
ATOM      3  C   LIG    1       25.548 -20.636   6.585  0.00  0.00    -0.018 A 
ATOM      4  C   LIG    1       25.033 -20.352   5.320  0.00  0.00    +0.053 A 
ATOM      5  C   LIG    1       25.863 -19.829   4.337  0.00  0.00    +0.121 A 
ATOM      6  C   LIG    1       27.217 -19.582   4.585  0.00  0.00    +0.091 A 
ENDROOT
BRANCH   3   7
ATOM      7  C   LIG    1       24.695 -21.187   7.638  0.00  0.00    +0.009 C 
ATOM      8  C   LIG    1       24.327 -22.478   7.834  0.00  0.00    +0.008 C 
BRANCH   8   9
ATOM      9  C   LIG    1       24.676 -23.679   7.058  0.00  0.00    -0.025 A 
ATOM     10  C   LIG    1       23.634 -24.445   6.500  0.00  0.00    +0.011 A 
ATOM     11  C   LIG    1       23.915 -25.573   5.726  0.00  0.00    +0.046 A 
ATOM     12  C   LIG    1       25.237 -25.966   5.534  0.00  0.00    +0.117 A 
ATOM     13  C   LIG    1       26.275 -25.258   6.125  0.00  0.00    +0.046 A 
ATOM     14  C   LIG    1       25.989 -24.131   6.895  0.00  0.00    +0.011 A 
BRANCH  12  15
ATOM     15  O   LIG    1       25.478 -27.058   4.757  0.00  0.00    -0.507 OA
ATOM     16  H   LIG    1       24.781 -27.714   4.926  0.00  0.00    +0.292 HD
ENDBRANCH  12  15
ENDBRANCH   8   9
ENDBRANCH   3   7
BRANCH   5  17
ATOM     17  O   LIG    1       25.293 -19.559   3.125  0.00  0.00    -0.507 OA
ATOM     18  H   LIG    1       24.562 -18.933   3.250  0.00  0.00    +0.292 HD
ENDBRANCH   5  17
BRANCH   1  19
ATOM     19  O   LIG    1       29.073 -19.546   6.060  0.00  0.00    -0.461 OA
BRANCH  19  24
ATOM     20  C   LIG    1       30.426 -17.767   8.959  0.00  0.00    +0.179 C 
ATOM     21  C   LIG    1       31.569 -18.705   9.339  0.00  0.00    +0.177 C 
ATOM     22  C   LIG    1       31.099 -20.154   9.220  0.00  0.00    +0.180 C 
ATOM     23  C   LIG    1       30.523 -20.449   7.825  0.00  0.00    +0.214 C 
ATOM     24  C   LIG    1       29.461 -19.382   7.446  0.00  0.00    +0.339 C 
ATOM     25  O   LIG    1       30.007 -18.076   7.637  0.00  0.00    -0.331 OA
BRANCH  21  26
ATOM     26  O   LIG    1       32.037 -18.450  10.666  0.00  0.00    -0.387 OA
ATOM     27  H   LIG    1       32.562 -17.625  10.595  0.00  0.00    +0.210 HD
ENDBRANCH  21  26
BRANCH  22  28
ATOM     28  O   LIG    1       32.219 -21.010   9.500  0.00  0.00    -0.386 OA
ATOM     29  H   LIG    1       32.842 -20.903   8.753  0.00  0.00    +0.210 HD
ENDBRANCH  22  28
BRANCH  23  30
ATOM     30  O   LIG    1       30.024 -21.799   7.831  0.00  0.00    -0.383 OA
ATOM     31  H   LIG    1       30.752 -22.409   7.619  0.00  0.00    +0.210 HD
ENDBRANCH  23  30
BRANCH  20  32
ATOM     32  C   LIG    1       30.878 -16.299   8.955  0.00  0.00    +0.190 C 
BRANCH  32  33
ATOM     33  O   LIG    1       32.275 -16.145   8.750  0.00  0.00    -0.392 OA
ATOM     34  H   LIG    1       32.506 -15.232   9.020  0.00  0.00    +0.209 HD
ENDBRANCH  32  33
ENDBRANCH  20  32
ENDBRANCH  19  24
ENDBRANCH   1  19
TORSDOF 11
ENDMDL
MODEL 4
REMARK VINA RESULT:      -8.9      4.168      7.264
REMARK  Name = *****
REMARK                            x       y       z     vdW  Elec       q    Type
REMARK                         _______ _______ _______ _____ _____    ______ ____
ROOT
ATOM      1  C   LIG    1       25.287 -25.762   6.404  0.00  0.00    +0.128 A 
ATOM      2  C   LIG    1       26.113 -24.651   6.579  0.00  0.00    +0.054 A 
ATOM      3  C   LIG    1       25.578 -23.365   6.751  0.00  0.00    -0.018 A 
ATOM      4  C   LIG    1       24.192 -23.209   6.788  0.00  0.00    +0.053 A 
ATOM      5  C   LIG    1       23.367 -24.315   6.636  0.00  0.00    +0.121 A 
ATOM      6  C   LIG    1       23.895 -25.596   6.449  0.00  0.00    +0.091 A 
ENDROOT
BRANCH   3   7
ATOM      7  C   LIG    1       26.469 -22.216   6.908  0.00  0.00    +0.009 C 
ATOM      8  C   LIG    1       26.287 -20.943   6.474  0.00  0.00    +0.008 C 
BRANCH   8   9
ATOM      9  C   LIG    1       25.156 -20.359   5.734  0.00  0.00    -0.025 A 
ATOM     10  C   LIG    1       23.893 -20.324   6.355  0.00  0.00    +0.011 A 
ATOM     11  C   LIG    1       22.797 -19.749   5.709  0.00  0.00    +0.046 A 
ATOM     12  C   LIG    1       22.945 -19.236   4.422  0.00  0.00    +0.117 A 
ATOM     13  C   LIG    1       24.170 -19.314   3.771  0.00  0.00    +0.046 A 
ATOM     14  C   LIG    1       25.261 -19.889   4.421  0.00  0.00    +0.011 A 
BRANCH  12  15
ATOM     15  O   LIG    1       21.863 -18.663   3.828  0.00  0.00    -0.507 OA
ATOM     16  H   LIG    1       21.266 -19.371   3.533  0.00  0.00    +0.292 HD
ENDBRANCH  12  15
ENDBRANCH   8   9
ENDBRANCH   3   7
BRANCH   5  17
ATOM     17  O   LIG    1       22.019 -24.091   6.667  0.00  0.00    -0.507 OA
ATOM     18  H   LIG    1       21.745 -23.926   7.583  0.00  0.00    +0.292 HD
ENDBRANCH   5  17
BRANCH   1  19
ATOM     19  O   LIG    1       25.753 -27.042   6.165  0.00  0.00    -0.461 OA
BRANCH  19  24
ATOM     20  C   LIG    1       25.221 -29.710   8.614  0.00  0.00    +0.179 C 
ATOM     21  C   LIG    1       24.953 -30.885   7.676  0.00  0.00    +0.177 C 
ATOM     22  C   LIG    1       24.055 -30.425   6.529  0.00  0.00    +0.180 C 
ATOM     23  C   LIG    1       24.644 -29.204   5.804  0.00  0.00    +0.214 C 
ATOM     24  C   LIG    1       25.016 -28.099   6.828  0.00  0.00    +0.339 C 
ATOM     25  O   LIG    1       25.820 -28.662   7.867  0.00  0.00    -0.331 OA
BRANCH  21  26
ATOM     26  O   LIG    1       24.343 -31.979   8.367  0.00  0.00    -0.387 OA
ATOM     27  H   LIG    1       23.741 -31.562   9.018  0.00  0.00    +0.210 HD
ENDBRANCH  21  26
BRANCH  22  28
ATOM     28  O   LIG    1       23.892 -31.527   5.621  0.00  0.00    -0.386 OA
ATOM     29  H   LIG    1       22.928 -31.653   5.510  0.00  0.00    +0.210 HD
ENDBRANCH  22  28
BRANCH  23  30
ATOM     30  O   LIG    1       23.695 -28.784   4.806  0.00  0.00    -0.383 OA
ATOM     31  H   LIG    1       22.865 -29.279   4.926  0.00  0.00    +0.210 HD
ENDBRANCH  23  30
BRANCH  20  32
ATOM     32  C   LIG    1       26.210 -30.090   9.726  0.00  0.00    +0.190 C 
BRANCH  32  33
ATOM     33  O   LIG    1       27.517 -29.575   9.512  0.00  0.00    -0.392 OA
ATOM     34  H   LIG    1       27.975 -30.195   8.908  0.00  0.00    +0.209 HD
ENDBRANCH  32  33
ENDBRANCH  20  32
ENDBRANCH  19  24
ENDBRANCH   1  19
TORSDOF 11
ENDMDL
MODEL 5
REMARK VINA RESULT:      -8.5      2.964      6.369
REMARK  Name = *****
REMARK                            x       y       z     vdW  Elec       q    Type
REMARK                         _______ _______ _______ _____ _____    ______ ____
ROOT
ATOM      1  C   LIG    1       25.474 -24.453   6.731  0.00  0.00    +0.128 A 
ATOM      2  C   LIG    1       24.277 -23.941   6.230  0.00  0.00    +0.054 A 
ATOM      3  C   LIG    1       23.769 -22.709   6.671  0.00  0.00    -0.018 A 
ATOM      4  C   LIG    1       24.503 -21.969   7.599  0.00  0.00    +0.053 A 
ATOM      5  C   LIG    1       25.705 -22.465   8.085  0.00  0.00    +0.121 A 
ATOM      6  C   LIG    1       26.207 -23.699   7.660  0.00  0.00    +0.091 A 
ENDROOT
BRANCH   3   7
ATOM      7  C   LIG    1       22.500 -22.209   6.144  0.00  0.00    +0.009 C 
ATOM      8  C   LIG    1       22.292 -21.176   5.290  0.00  0.00    +0.008 C 
BRANCH   8   9
ATOM      9  C   LIG    1       23.267 -20.275   4.654  0.00  0.00    -0.025 A 
ATOM     10  C   LIG    1       22.886 -18.944   4.399  0.00  0.00    +0.011 A 
ATOM     11  C   LIG    1       23.787 -18.042   3.829  0.00  0.00    +0.046 A 
ATOM     12  C   LIG    1       25.064 -18.471   3.478  0.00  0.00    +0.117 A 
ATOM     13  C   LIG    1       25.439 -19.795   3.668  0.00  0.00    +0.046 A 
ATOM     14  C   LIG    1       24.536 -20.692   4.238  0.00  0.00    +0.011 A 
BRANCH  12  15
ATOM     15  O   LIG    1       25.926 -17.561   2.945  0.00  0.00    -0.507 OA
ATOM     16  H   LIG    1       25.823 -16.724   3.427  0.00  0.00    +0.292 HD
ENDBRANCH  12  15
ENDBRANCH   8   9
ENDBRANCH   3   7
BRANCH   5  17
ATOM     17  O   LIG    1       26.365 -21.698   9.003  0.00  0.00    -0.507 OA
ATOM     18  H   LIG    1       25.884 -20.865   9.126  0.00  0.00    +0.292 HD
ENDBRANCH   5  17
BRANCH   1  19
ATOM     19  O   LIG    1       25.992 -25.688   6.386  0.00  0.00    -0.461 OA
BRANCH  19  24
ATOM     20  C   LIG    1       25.594 -28.646   8.506  0.00  0.00    +0.179 C 
ATOM     21  C   LIG    1       25.284 -29.697   7.443  0.00  0.00    +0.177 C 
ATOM     22  C   LIG    1       24.327 -29.107   6.407  0.00  0.00    +0.180 C 
ATOM     23  C   LIG    1       24.875 -27.799   5.812  0.00  0.00    +0.214 C 
ATOM     24  C   LIG    1       25.294 -26.826   6.947  0.00  0.00    +0.339 C 
ATOM     25  O   LIG    1       26.150 -27.506   7.867  0.00  0.00    -0.331 OA
BRANCH  21  26
ATOM     26  O   LIG    1       24.714 -30.874   8.020  0.00  0.00    -0.387 OA
ATOM     27  H   LIG    1       25.188 -30.995   8.869  0.00  0.00    +0.210 HD
ENDBRANCH  21  26
BRANCH  22  28
ATOM     28  O   LIG    1       24.124 -30.089   5.378  0.00  0.00    -0.386 OA
ATOM     29  H   LIG    1       23.260 -30.508   5.564  0.00  0.00    +0.210 HD
ENDBRANCH  22  28
BRANCH  23  30
ATOM     30  O   LIG    1       23.876 -27.268   4.922  0.00  0.00    -0.383 OA
ATOM     31  H   LIG    1       23.486 -26.469   5.321  0.00  0.00    +0.210 HD
ENDBRANCH  23  30
BRANCH  20  32
ATOM     32  C   LIG    1       26.639 -29.151   9.512  0.00  0.00    +0.190 C 
BRANCH  32  33
ATOM     33  O   LIG    1       27.332 -30.308   9.064  0.00  0.00    -0.392 OA
ATOM     34  H   LIG    1       28.079 -29.999   8.510  0.00  0.00    +0.209 HD
ENDBRANCH  32  33
ENDBRANCH  20  32
ENDBRANCH  19  24
ENDBRANCH   1  19
TORSDOF 11
ENDMDL
MODEL 6
REMARK VINA RESULT:      -8.5      1.632      4.488
REMARK  Name = *****
REMARK                            x       y       z     vdW  Elec       q    Type
REMARK                         _______ _______ _______ _____ _____    ______ ____
ROOT
ATOM      1  C   LIG    1       26.342 -20.348   6.767  0.00  0.00    +0.128 A 
ATOM      2  C   LIG    1       25.347 -21.231   7.189  0.00  0.00    +0.054 A 
ATOM      3  C   LIG    1       24.394 -21.738   6.292  0.00  0.00    -0.018 A 
ATOM      4  C   LIG    1       24.474 -21.381   4.946  0.00  0.00    +0.053 A 
ATOM      5  C   LIG    1       25.475 -20.519   4.517  0.00  0.00    +0.121 A 
ATOM      6  C   LIG    1       26.418 -19.999   5.410  0.00  0.00    +0.091 A 
ENDROOT
BRANCH   3   7
ATOM      7  C   LIG    1       23.349 -22.643   6.769  0.00  0.00    +0.009 C 
ATOM      8  C   LIG    1       23.353 -24.001   6.783  0.00  0.00    +0.008 C 
BRANCH   8   9
ATOM      9  C   LIG    1       24.394 -24.939   6.333  0.00  0.00    -0.025 A 
ATOM     10  C   LIG    1       24.042 -25.941   5.409  0.00  0.00    +0.011 A 
ATOM     11  C   LIG    1       25.001 -26.833   4.925  0.00  0.00    +0.046 A 
ATOM     12  C   LIG    1       26.312 -26.754   5.387  0.00  0.00    +0.117 A 
ATOM     13  C   LIG    1       26.666 -25.809   6.343  0.00  0.00    +0.046 A 
ATOM     14  C   LIG    1       25.704 -24.920   6.822  0.00  0.00    +0.011 A 
BRANCH  12  15
ATOM     15  O   LIG    1       27.228 -27.624   4.880  0.00  0.00    -0.507 OA
ATOM     16  H   LIG    1       27.639 -28.101   5.620  0.00  0.00    +0.292 HD
ENDBRANCH  12  15
ENDBRANCH   8   9
ENDBRANCH   3   7
BRANCH   5  17
ATOM     17  O   LIG    1       25.488 -20.196   3.190  0.00  0.00    -0.507 OA
ATOM     18  H   LIG    1       25.899 -20.919   2.691  0.00  0.00    +0.292 HD
ENDBRANCH   5  17
BRANCH   1  19
ATOM     19  O   LIG    1       27.267 -19.764   7.612  0.00  0.00    -0.461 OA
BRANCH  19  24
ATOM     20  C   LIG    1       30.275 -21.627   8.554  0.00  0.00    +0.179 C 
ATOM     21  C   LIG    1       31.285 -20.484   8.626  0.00  0.00    +0.177 C 
ATOM     22  C   LIG    1       31.060 -19.531   7.454  0.00  0.00    +0.180 C 
ATOM     23  C   LIG    1       29.604 -19.038   7.397  0.00  0.00    +0.214 C 
ATOM     24  C   LIG    1       28.626 -20.242   7.460  0.00  0.00    +0.339 C 
ATOM     25  O   LIG    1       28.966 -21.075   8.570  0.00  0.00    -0.331 OA
BRANCH  21  26
ATOM     26  O   LIG    1       32.630 -20.972   8.608  0.00  0.00    -0.387 OA
ATOM     27  H   LIG    1       33.179 -20.208   8.881  0.00  0.00    +0.210 HD
ENDBRANCH  21  26
BRANCH  22  28
ATOM     28  O   LIG    1       31.966 -18.425   7.597  0.00  0.00    -0.386 OA
ATOM     29  H   LIG    1       32.613 -18.686   8.284  0.00  0.00    +0.210 HD
ENDBRANCH  22  28
BRANCH  23  30
ATOM     30  O   LIG    1       29.460 -18.225   6.218  0.00  0.00    -0.383 OA
ATOM     31  H   LIG    1       30.322 -18.158   5.770  0.00  0.00    +0.210 HD
ENDBRANCH  23  30
BRANCH  20  32
ATOM     32  C   LIG    1       30.385 -22.556   9.771  0.00  0.00    +0.190 C 
BRANCH  32  33
ATOM     33  O   LIG    1       30.909 -21.909  10.923  0.00  0.00    -0.392 OA
ATOM     34  H   LIG    1       31.868 -22.108  10.953  0.00  0.00    +0.209 HD
ENDBRANCH  32  33
ENDBRANCH  20  32
ENDBRANCH  19  24
ENDBRANCH   1  19
TORSDOF 11
ENDMDL
MODEL 7
REMARK VINA RESULT:      -8.4      3.094      7.197
REMARK  Name = *****
REMARK                            x       y       z     vdW  Elec       q    Type
REMARK                         _______ _______ _______ _____ _____    ______ ____
ROOT
ATOM      1  C   LIG    1       25.576 -24.923   5.892  0.00  0.00    +0.128 A 
ATOM      2  C   LIG    1       25.832 -24.232   7.078  0.00  0.00    +0.054 A 
ATOM      3  C   LIG    1       25.511 -22.872   7.213  0.00  0.00    -0.018 A 
ATOM      4  C   LIG    1       24.885 -22.217   6.153  0.00  0.00    +0.053 A 
ATOM      5  C   LIG    1       24.610 -22.905   4.979  0.00  0.00    +0.121 A 
ATOM      6  C   LIG    1       24.942 -24.256   4.833  0.00  0.00    +0.091 A 
ENDROOT
BRANCH   3   7
ATOM      7  C   LIG    1       25.813 -22.170   8.459  0.00  0.00    +0.009 C 
ATOM      8  C   LIG    1       26.652 -21.121   8.653  0.00  0.00    +0.008 C 
BRANCH   8   9
ATOM      9  C   LIG    1       27.485 -20.397   7.679  0.00  0.00    -0.025 A 
ATOM     10  C   LIG    1       28.690 -19.821   8.123  0.00  0.00    +0.011 A 
ATOM     11  C   LIG    1       29.533 -19.154   7.231  0.00  0.00    +0.046 A 
ATOM     12  C   LIG    1       29.160 -19.025   5.895  0.00  0.00    +0.117 A 
ATOM     13  C   LIG    1       27.947 -19.536   5.451  0.00  0.00    +0.046 A 
ATOM     14  C   LIG    1       27.111 -20.202   6.346  0.00  0.00    +0.011 A 
BRANCH  12  15
ATOM     15  O   LIG    1       30.014 -18.388   5.047  0.00  0.00    -0.507 OA
ATOM     16  H   LIG    1       29.550 -18.232   4.207  0.00  0.00    +0.292 HD
ENDBRANCH  12  15
ENDBRANCH   8   9
ENDBRANCH   3   7
BRANCH   5  17
ATOM     17  O   LIG    1       24.011 -22.200   3.973  0.00  0.00    -0.507 OA
ATOM     18  H   LIG    1       23.154 -21.868   4.285  0.00  0.00    +0.292 HD
ENDBRANCH   5  17
BRANCH   1  19
ATOM     19  O   LIG    1       25.928 -26.242   5.674  0.00  0.00    -0.461 OA
BRANCH  19  24
ATOM     20  C   LIG    1       25.588 -28.576   8.475  0.00  0.00    +0.179 C 
ATOM     21  C   LIG    1       25.272 -29.862   7.714  0.00  0.00    +0.177 C 
ATOM     22  C   LIG    1       24.295 -29.555   6.580  0.00  0.00    +0.180 C 
ATOM     23  C   LIG    1       24.821 -28.435   5.667  0.00  0.00    +0.214 C 
ATOM     24  C   LIG    1       25.248 -27.207   6.515  0.00  0.00    +0.339 C 
ATOM     25  O   LIG    1       26.125 -27.630   7.561  0.00  0.00    -0.331 OA
BRANCH  21  26
ATOM     26  O   LIG    1       24.721 -30.859   8.578  0.00  0.00    -0.387 OA
ATOM     27  H   LIG    1       24.851 -30.509   9.484  0.00  0.00    +0.210 HD
ENDBRANCH  21  26
BRANCH  22  28
ATOM     28  O   LIG    1       24.085 -30.765   5.833  0.00  0.00    -0.386 OA
ATOM     29  H   LIG    1       23.192 -31.085   6.073  0.00  0.00    +0.210 HD
ENDBRANCH  22  28
BRANCH  23  30
ATOM     30  O   LIG    1       23.804 -28.149   4.689  0.00  0.00    -0.383 OA
ATOM     31  H   LIG    1       23.129 -27.573   5.091  0.00  0.00    +0.210 HD
ENDBRANCH  23  30
BRANCH  20  32
ATOM     32  C   LIG    1       26.653 -28.807   9.557  0.00  0.00    +0.190 C 
BRANCH  32  33
ATOM     33  O   LIG    1       27.407 -29.994   9.355  0.00  0.00    -0.392 OA
ATOM     34  H   LIG    1       26.771 -30.702   9.121  0.00  0.00    +0.209 HD
ENDBRANCH  32  33
ENDBRANCH  20  32
ENDBRANCH  19  24
ENDBRANCH   1  19
TORSDOF 11
ENDMDL
MODEL 8
REMARK VINA RESULT:      -8.4      2.977      6.770
REMARK  Name = *****
REMARK                            x       y       z     vdW  Elec       q    Type
REMARK                         _______ _______ _______ _____ _____    ______ ____
ROOT
ATOM      1  C   LIG    1       25.690 -23.663   7.276  0.00  0.00    +0.128 A 
ATOM      2  C   LIG    1       26.042 -24.784   6.522  0.00  0.00    +0.054 A 
ATOM      3  C   LIG    1       25.076 -25.524   5.823  0.00  0.00    -0.018 A 
ATOM      4  C   LIG    1       23.747 -25.102   5.855  0.00  0.00    +0.053 A 
ATOM      5  C   LIG    1       23.395 -23.976   6.587  0.00  0.00    +0.121 A 
ATOM      6  C   LIG    1       24.352 -23.243   7.297  0.00  0.00    +0.091 A 
ENDROOT
BRANCH   3   7
ATOM      7  C   LIG    1       25.472 -26.708   5.060  0.00  0.00    +0.009 C 
ATOM      8  C   LIG    1       25.621 -27.982   5.501  0.00  0.00    +0.008 C 
BRANCH   8   9
ATOM      9  C   LIG    1       25.428 -28.535   6.851  0.00  0.00    -0.025 A 
ATOM     10  C   LIG    1       24.351 -29.414   7.070  0.00  0.00    +0.011 A 
ATOM     11  C   LIG    1       24.146 -29.992   8.325  0.00  0.00    +0.046 A 
ATOM     12  C   LIG    1       24.995 -29.668   9.380  0.00  0.00    +0.117 A 
ATOM     13  C   LIG    1       26.028 -28.758   9.199  0.00  0.00    +0.046 A 
ATOM     14  C   LIG    1       26.229 -28.184   7.943  0.00  0.00    +0.011 A 
BRANCH  12  15
ATOM     15  O   LIG    1       24.782 -30.265  10.585  0.00  0.00    -0.507 OA
ATOM     16  H   LIG    1       25.419 -30.992  10.683  0.00  0.00    +0.292 HD
ENDBRANCH  12  15
ENDBRANCH   8   9
ENDBRANCH   3   7
BRANCH   5  17
ATOM     17  O   LIG    1       22.075 -23.626   6.589  0.00  0.00    -0.507 OA
ATOM     18  H   LIG    1       21.957 -22.826   6.052  0.00  0.00    +0.292 HD
ENDBRANCH   5  17
BRANCH   1  19
ATOM     19  O   LIG    1       26.583 -22.932   8.037  0.00  0.00    -0.461 OA
BRANCH  19  24
ATOM     20  C   LIG    1       26.416 -20.143   5.673  0.00  0.00    +0.179 C 
ATOM     21  C   LIG    1       27.903 -19.941   5.392  0.00  0.00    +0.177 C 
ATOM     22  C   LIG    1       28.689 -20.063   6.697  0.00  0.00    +0.180 C 
ATOM     23  C   LIG    1       28.391 -21.391   7.413  0.00  0.00    +0.214 C 
ATOM     24  C   LIG    1       26.859 -21.597   7.549  0.00  0.00    +0.339 C 
ATOM     25  O   LIG    1       26.238 -21.417   6.275  0.00  0.00    -0.331 OA
BRANCH  21  26
ATOM     26  O   LIG    1       28.154 -18.669   4.787  0.00  0.00    -0.387 OA
ATOM     27  H   LIG    1       27.267 -18.296   4.606  0.00  0.00    +0.210 HD
ENDBRANCH  21  26
BRANCH  22  28
ATOM     28  O   LIG    1       30.088 -19.954   6.386  0.00  0.00    -0.386 OA
ATOM     29  H   LIG    1       30.571 -20.219   7.195  0.00  0.00    +0.210 HD
ENDBRANCH  22  28
BRANCH  23  30
ATOM     30  O   LIG    1       29.096 -21.382   8.668  0.00  0.00    -0.383 OA
ATOM     31  H   LIG    1       29.904 -21.918   8.584  0.00  0.00    +0.210 HD
ENDBRANCH  23  30
BRANCH  20  32
ATOM     32  C   LIG    1       25.591 -20.139   4.377  0.00  0.00    +0.190 C 
BRANCH  32  33
ATOM     33  O   LIG    1       25.724 -18.936   3.633  0.00  0.00    -0.392 OA
ATOM     34  H   LIG    1       26.641 -18.911   3.289  0.00  0.00    +0.209 HD
ENDBRANCH  32  33
ENDBRANCH  20  32
ENDBRANCH  19  24
ENDBRANCH   1  19
TORSDOF 11
ENDMDL
MODEL 9
REMARK VINA RESULT:      -8.2      1.975      3.324
REMARK  Name = *****
REMARK                            x       y       z     vdW  Elec       q    Type
REMARK                         _______ _______ _______ _____ _____    ______ ____
ROOT
ATOM      1  C   LIG    1       27.327 -20.302   6.811  0.00  0.00    +0.128 A 
ATOM      2  C   LIG    1       26.519 -20.633   5.722  0.00  0.00    +0.054 A 
ATOM      3  C   LIG    1       25.340 -21.376   5.887  0.00  0.00    -0.018 A 
ATOM      4  C   LIG    1       24.953 -21.752   7.174  0.00  0.00    +0.053 A 
ATOM      5  C   LIG    1       25.743 -21.407   8.263  0.00  0.00    +0.121 A 
ATOM      6  C   LIG    1       26.927 -20.681   8.101  0.00  0.00    +0.091 A 
ENDROOT
BRANCH   3   7
ATOM      7  C   LIG    1       24.527 -21.727   4.724  0.00  0.00    +0.009 C 
ATOM      8  C   LIG    1       23.782 -20.907   3.939  0.00  0.00    +0.008 C 
BRANCH   8   9
ATOM      9  C   LIG    1       23.583 -19.451   4.029  0.00  0.00    -0.025 A 
ATOM     10  C   LIG    1       22.360 -18.970   4.532  0.00  0.00    +0.011 A 
ATOM     11  C   LIG    1       22.136 -17.598   4.670  0.00  0.00    +0.046 A 
ATOM     12  C   LIG    1       23.119 -16.696   4.271  0.00  0.00    +0.117 A 
ATOM     13  C   LIG    1       24.309 -17.150   3.717  0.00  0.00    +0.046 A 
ATOM     14  C   LIG    1       24.528 -18.521   3.584  0.00  0.00    +0.011 A 
BRANCH  12  15
ATOM     15  O   LIG    1       22.878 -15.366   4.438  0.00  0.00    -0.507 OA
ATOM     16  H   LIG    1       21.958 -15.256   4.732  0.00  0.00    +0.292 HD
ENDBRANCH  12  15
ENDBRANCH   8   9
ENDBRANCH   3   7
BRANCH   5  17
ATOM     17  O   LIG    1       25.315 -21.820   9.493  0.00  0.00    -0.507 OA
ATOM     18  H   LIG    1       25.389 -22.786   9.547  0.00  0.00    +0.292 HD
ENDBRANCH   5  17
BRANCH   1  19
ATOM     19  O   LIG    1       28.531 -19.631   6.705  0.00  0.00    -0.461 OA
BRANCH  19  24
ATOM     20  C   LIG    1       30.440 -17.726   9.180  0.00  0.00    +0.179 C 
ATOM     21  C   LIG    1       31.688 -18.599   9.286  0.00  0.00    +0.177 C 
ATOM     22  C   LIG    1       31.279 -20.071   9.297  0.00  0.00    +0.180 C 
ATOM     23  C   LIG    1       30.404 -20.424   8.083  0.00  0.00    +0.214 C 
ATOM     24  C   LIG    1       29.228 -19.419   7.957  0.00  0.00    +0.339 C 
ATOM     25  O   LIG    1       29.736 -18.084   8.000  0.00  0.00    -0.331 OA
BRANCH  21  26
ATOM     26  O   LIG    1       32.444 -18.293  10.461  0.00  0.00    -0.387 OA
ATOM     27  H   LIG    1       31.778 -18.199  11.173  0.00  0.00    +0.210 HD
ENDBRANCH  21  26
BRANCH  22  28
ATOM     28  O   LIG    1       32.476 -20.867   9.311  0.00  0.00    -0.386 OA
ATOM     29  H   LIG    1       33.139 -20.376   8.784  0.00  0.00    +0.210 HD
ENDBRANCH  22  28
BRANCH  23  30
ATOM     30  O   LIG    1       29.990 -21.796   8.222  0.00  0.00    -0.383 OA
ATOM     31  H   LIG    1       30.664 -22.374   7.821  0.00  0.00    +0.210 HD
ENDBRANCH  23  30
BRANCH  20  32
ATOM     32  C   LIG    1       30.802 -16.238   9.054  0.00  0.00    +0.190 C 
BRANCH  32  33
ATOM     33  O   LIG    1       32.186 -16.017   8.826  0.00  0.00    -0.392 OA
ATOM     34  H   LIG    1       32.348 -15.058   8.947  0.00  0.00    +0.209 HD
ENDBRANCH  32  33
ENDBRANCH  20  32
ENDBRANCH  19  24
ENDBRANCH   1  19
TORSDOF 11
ENDMDL
