MODEL 1
REMARK VINA RESULT:      -4.0      0.000      0.000
REMARK  Name = *****
REMARK                            x       y       z     vdW  Elec       q    Type
REMARK                         _______ _______ _______ _____ _____    ______ ____
ROOT
ATOM      1  C   LIG    1       26.401 -20.808   6.130  0.00  0.00    +0.421 C 
ATOM      2  N   LIG    1       25.074 -20.530   5.781  0.00  0.00    -0.231 N 
ATOM      3  C   LIG    1       24.496 -19.647   4.780  0.00  0.00    +0.170 C 
ATOM      4  S   LIG    1       25.236 -18.649   3.672  0.00  0.00    -0.012 S 
ATOM      5  N   LIG    1       23.085 -19.805   4.955  0.00  0.00    -0.329 N 
ATOM      6  C   LIG    1       22.048 -19.118   4.218  0.00  0.00    +0.151 C 
ATOM      7  C   LIG    1       22.850 -20.690   5.981  0.00  0.00    +0.106 C 
ATOM      8  C   LIG    1       24.018 -21.118   6.468  0.00  0.00    +0.117 C 
ATOM      9  O   LIG    1       26.722 -21.547   7.062  0.00  0.00    -0.223 OA
ENDROOT
BRANCH   1  10
ATOM     10  O   LIG    1       27.306 -20.164   5.347  0.00  0.00    -0.448 OA
BRANCH  10  12
ATOM     11  C   LIG    1       29.128 -18.589   5.501  0.00  0.00    +0.048 C 
ATOM     12  C   LIG    1       28.611 -19.959   5.901  0.00  0.00    +0.231 C 
ENDBRANCH  10  12
ENDBRANCH   1  10
TORSDOF 2
ENDMDL
MODEL 2
REMARK VINA RESULT:      -3.5      2.578      4.843
REMARK  Name = *****
REMARK                            x       y       z     vdW  Elec       q    Type
REMARK                         _______ _______ _______ _____ _____    ______ ____
ROOT
ATOM      1  C   LIG    1       25.453 -18.729   3.684  0.00  0.00    +0.421 C 
ATOM      2  N   LIG    1       26.354 -19.342   4.563  0.00  0.00    -0.231 N 
ATOM      3  C   LIG    1       26.237 -20.517   5.413  0.00  0.00    +0.170 C 
ATOM      4  S   LIG    1       24.962 -21.565   5.626  0.00  0.00    -0.012 S 
ATOM      5  N   LIG    1       27.502 -20.589   6.076  0.00  0.00    -0.329 N 
ATOM      6  C   LIG    1       27.897 -21.570   7.062  0.00  0.00    +0.151 C 
ATOM      7  C   LIG    1       28.290 -19.540   5.668  0.00  0.00    +0.106 C 
ATOM      8  C   LIG    1       27.618 -18.805   4.777  0.00  0.00    +0.117 C 
ATOM      9  O   LIG    1       25.693 -17.684   3.079  0.00  0.00    -0.223 OA
ENDROOT
BRANCH   1  10
ATOM     10  O   LIG    1       24.272 -19.394   3.579  0.00  0.00    -0.448 OA
BRANCH  10  12
ATOM     11  C   LIG    1       22.388 -19.186   5.072  0.00  0.00    +0.048 C 
ATOM     12  C   LIG    1       23.082 -18.640   3.838  0.00  0.00    +0.231 C 
ENDBRANCH  10  12
ENDBRANCH   1  10
TORSDOF 2
ENDMDL
MODEL 3
REMARK VINA RESULT:      -3.1      3.166      4.103
REMARK  Name = *****
REMARK                            x       y       z     vdW  Elec       q    Type
REMARK                         _______ _______ _______ _____ _____    ______ ____
ROOT
ATOM      1  C   LIG    1       25.392 -17.534   3.475  0.00  0.00    +0.421 C 
ATOM      2  N   LIG    1       24.717 -18.712   3.814  0.00  0.00    -0.231 N 
ATOM      3  C   LIG    1       23.357 -18.958   4.270  0.00  0.00    +0.170 C 
ATOM      4  S   LIG    1       22.106 -17.894   4.539  0.00  0.00    -0.012 S 
ATOM      5  N   LIG    1       23.310 -20.374   4.464  0.00  0.00    -0.329 N 
ATOM      6  C   LIG    1       22.178 -21.136   4.945  0.00  0.00    +0.151 C 
ATOM      7  C   LIG    1       24.538 -20.916   4.167  0.00  0.00    +0.106 C 
ATOM      8  C   LIG    1       25.367 -19.941   3.784  0.00  0.00    +0.117 C 
ATOM      9  O   LIG    1       26.583 -17.494   3.165  0.00  0.00    -0.223 OA
ENDROOT
BRANCH   1  10
ATOM     10  O   LIG    1       24.604 -16.429   3.541  0.00  0.00    -0.448 OA
BRANCH  10  12
ATOM     11  C   LIG    1       24.290 -14.099   4.085  0.00  0.00    +0.048 C 
ATOM     12  C   LIG    1       25.272 -15.165   3.632  0.00  0.00    +0.231 C 
ENDBRANCH  10  12
ENDBRANCH   1  10
TORSDOF 2
ENDMDL
MODEL 4
REMARK VINA RESULT:      -2.8      2.948      4.300
REMARK  Name = *****
REMARK                            x       y       z     vdW  Elec       q    Type
REMARK                         _______ _______ _______ _____ _____    ______ ____
ROOT
ATOM      1  C   LIG    1       25.847 -18.506   3.797  0.00  0.00    +0.421 C 
ATOM      2  N   LIG    1       26.365 -19.415   4.728  0.00  0.00    -0.231 N 
ATOM      3  C   LIG    1       27.650 -19.486   5.408  0.00  0.00    +0.170 C 
ATOM      4  S   LIG    1       28.971 -18.478   5.314  0.00  0.00    -0.012 S 
ATOM      5  N   LIG    1       27.552 -20.668   6.207  0.00  0.00    -0.329 N 
ATOM      6  C   LIG    1       28.583 -21.212   7.062  0.00  0.00    +0.151 C 
ATOM      7  C   LIG    1       26.325 -21.254   6.004  0.00  0.00    +0.106 C 
ATOM      8  C   LIG    1       25.625 -20.519   5.136  0.00  0.00    +0.117 C 
ATOM      9  O   LIG    1       24.745 -18.630   3.263  0.00  0.00    -0.223 OA
ENDROOT
BRANCH   1  10
ATOM     10  O   LIG    1       26.694 -17.479   3.525  0.00  0.00    -0.448 OA
BRANCH  10  12
ATOM     11  C   LIG    1       27.114 -15.103   3.523  0.00  0.00    +0.048 C 
ATOM     12  C   LIG    1       26.099 -16.202   3.269  0.00  0.00    +0.231 C 
ENDBRANCH  10  12
ENDBRANCH   1  10
TORSDOF 2
ENDMDL
MODEL 5
REMARK VINA RESULT:      -2.7      4.757      5.940
REMARK  Name = *****
REMARK                            x       y       z     vdW  Elec       q    Type
REMARK                         _______ _______ _______ _____ _____    ______ ____
ROOT
ATOM      1  C   LIG    1       25.640 -17.004   3.378  0.00  0.00    +0.421 C 
ATOM      2  N   LIG    1       25.502 -15.622   3.555  0.00  0.00    -0.231 N 
ATOM      3  C   LIG    1       24.400 -14.808   4.046  0.00  0.00    +0.170 C 
ATOM      4  S   LIG    1       22.893 -15.259   4.590  0.00  0.00    -0.012 S 
ATOM      5  N   LIG    1       24.892 -13.469   3.952  0.00  0.00    -0.329 N 
ATOM      6  C   LIG    1       24.168 -12.265   4.293  0.00  0.00    +0.151 C 
ATOM      7  C   LIG    1       26.165 -13.487   3.434  0.00  0.00    +0.106 C 
ATOM      8  C   LIG    1       26.527 -14.752   3.200  0.00  0.00    +0.117 C 
ATOM      9  O   LIG    1       26.635 -17.533   2.881  0.00  0.00    -0.223 OA
ENDROOT
BRANCH   1  10
ATOM     10  O   LIG    1       24.553 -17.706   3.792  0.00  0.00    -0.448 OA
BRANCH  10  12
ATOM     11  C   LIG    1       23.432 -19.772   4.339  0.00  0.00    +0.048 C 
ATOM     12  C   LIG    1       24.590 -19.126   3.601  0.00  0.00    +0.231 C 
ENDBRANCH  10  12
ENDBRANCH   1  10
TORSDOF 2
ENDMDL
MODEL 6
REMARK VINA RESULT:      -2.5      2.050      2.719
REMARK  Name = *****
REMARK                            x       y       z     vdW  Elec       q    Type
REMARK                         _______ _______ _______ _____ _____    ______ ____
ROOT
ATOM      1  C   LIG    1       26.948 -19.105   4.687  0.00  0.00    +0.421 C 
ATOM      2  N   LIG    1       25.939 -19.950   5.165  0.00  0.00    -0.231 N 
ATOM      3  C   LIG    1       24.520 -20.046   4.854  0.00  0.00    +0.170 C 
ATOM      4  S   LIG    1       23.594 -19.166   3.787  0.00  0.00    -0.012 S 
ATOM      5  N   LIG    1       24.051 -21.095   5.704  0.00  0.00    -0.329 N 
ATOM      6  C   LIG    1       22.690 -21.571   5.806  0.00  0.00    +0.151 C 
ATOM      7  C   LIG    1       25.096 -21.566   6.464  0.00  0.00    +0.106 C 
ATOM      8  C   LIG    1       26.207 -20.895   6.148  0.00  0.00    +0.117 C 
ATOM      9  O   LIG    1       28.104 -19.114   5.110  0.00  0.00    -0.223 OA
ENDROOT
BRANCH   1  10
ATOM     10  O   LIG    1       26.518 -18.255   3.718  0.00  0.00    -0.448 OA
BRANCH  10  12
ATOM     11  C   LIG    1       26.092 -15.909   3.348  0.00  0.00    +0.048 C 
ATOM     12  C   LIG    1       27.135 -16.964   3.671  0.00  0.00    +0.231 C 
ENDBRANCH  10  12
ENDBRANCH   1  10
TORSDOF 2
ENDMDL
MODEL 7
REMARK VINA RESULT:      -2.3      4.774      6.323
REMARK  Name = *****
REMARK                            x       y       z     vdW  Elec       q    Type
REMARK                         _______ _______ _______ _____ _____    ______ ____
ROOT
ATOM      1  C   LIG    1       23.040 -16.163   4.527  0.00  0.00    +0.421 C 
ATOM      2  N   LIG    1       24.074 -15.299   4.146  0.00  0.00    -0.231 N 
ATOM      3  C   LIG    1       25.395 -15.549   3.589  0.00  0.00    +0.170 C 
ATOM      4  S   LIG    1       26.141 -16.984   3.197  0.00  0.00    -0.012 S 
ATOM      5  N   LIG    1       25.963 -14.244   3.451  0.00  0.00    -0.329 N 
ATOM      6  C   LIG    1       27.288 -13.933   2.965  0.00  0.00    +0.151 C 
ATOM      7  C   LIG    1       25.064 -13.306   3.903  0.00  0.00    +0.106 C 
ATOM      8  C   LIG    1       23.952 -13.924   4.311  0.00  0.00    +0.117 C 
ATOM      9  O   LIG    1       21.992 -15.784   5.050  0.00  0.00    -0.223 OA
ENDROOT
BRANCH   1  10
ATOM     10  O   LIG    1       23.318 -17.470   4.280  0.00  0.00    -0.448 OA
BRANCH  10  12
ATOM     11  C   LIG    1       22.616 -19.563   5.255  0.00  0.00    +0.048 C 
ATOM     12  C   LIG    1       22.224 -18.391   4.373  0.00  0.00    +0.231 C 
ENDBRANCH  10  12
ENDBRANCH   1  10
TORSDOF 2
ENDMDL
MODEL 8
REMARK VINA RESULT:      -2.0      3.856      4.720
REMARK  Name = *****
REMARK                            x       y       z     vdW  Elec       q    Type
REMARK                         _______ _______ _______ _____ _____    ______ ____
ROOT
ATOM      1  C   LIG    1       23.758 -15.863   4.130  0.00  0.00    +0.421 C 
ATOM      2  N   LIG    1       23.516 -17.241   4.184  0.00  0.00    -0.231 N 
ATOM      3  C   LIG    1       24.342 -18.388   3.839  0.00  0.00    +0.170 C 
ATOM      4  S   LIG    1       25.901 -18.453   3.259  0.00  0.00    -0.012 S 
ATOM      5  N   LIG    1       23.497 -19.512   4.101  0.00  0.00    -0.329 N 
ATOM      6  C   LIG    1       23.833 -20.903   3.893  0.00  0.00    +0.151 C 
ATOM      7  C   LIG    1       22.274 -19.068   4.543  0.00  0.00    +0.106 C 
ATOM      8  C   LIG    1       22.283 -17.733   4.594  0.00  0.00    +0.117 C 
ATOM      9  O   LIG    1       22.913 -15.010   4.403  0.00  0.00    -0.223 OA
ENDROOT
BRANCH   1  10
ATOM     10  O   LIG    1       25.019 -15.557   3.726  0.00  0.00    -0.448 OA
BRANCH  10  12
ATOM     11  C   LIG    1       26.149 -13.812   2.501  0.00  0.00    +0.048 C 
ATOM     12  C   LIG    1       25.392 -14.175   3.766  0.00  0.00    +0.231 C 
ENDBRANCH  10  12
ENDBRANCH   1  10
TORSDOF 2
ENDMDL
MODEL 9
REMARK VINA RESULT:      -2.0      4.115      5.101
REMARK  Name = *****
REMARK                            x       y       z     vdW  Elec       q    Type
REMARK                         _______ _______ _______ _____ _____    ______ ____
ROOT
ATOM      1  C   LIG    1       25.483 -15.939   3.430  0.00  0.00    +0.421 C 
ATOM      2  N   LIG    1       25.050 -17.262   3.574  0.00  0.00    -0.231 N 
ATOM      3  C   LIG    1       23.785 -17.829   4.019  0.00  0.00    +0.170 C 
ATOM      4  S   LIG    1       22.385 -17.076   4.510  0.00  0.00    -0.012 S 
ATOM      5  N   LIG    1       24.001 -19.242   3.959  0.00  0.00    -0.329 N 
ATOM      6  C   LIG    1       23.054 -20.269   4.329  0.00  0.00    +0.151 C 
ATOM      7  C   LIG    1       25.285 -19.488   3.534  0.00  0.00    +0.106 C 
ATOM      8  C   LIG    1       25.903 -18.326   3.306  0.00  0.00    +0.117 C 
ATOM      9  O   LIG    1       26.627 -15.628   3.096  0.00  0.00    -0.223 OA
ENDROOT
BRANCH   1  10
ATOM     10  O   LIG    1       24.518 -15.026   3.715  0.00  0.00    -0.448 OA
BRANCH  10  12
ATOM     11  C   LIG    1       24.349 -13.037   2.360  0.00  0.00    +0.048 C 
ATOM     12  C   LIG    1       24.892 -13.646   3.640  0.00  0.00    +0.231 C 
ENDBRANCH  10  12
ENDBRANCH   1  10
TORSDOF 2
ENDMDL
