MODEL 1
REMARK VINA RESULT:      -8.4      0.000      0.000
REMARK  Name = *****
REMARK                            x       y       z     vdW  Elec       q    Type
REMARK                         _______ _______ _______ _____ _____    ______ ____
ROOT
ATOM      1  C   LIG    1       26.011 -28.069   7.521  0.00  0.00    +0.160 C 
ENDROOT
BRANCH   1   2
ATOM      2  N   LIG    1       25.605 -26.662   7.589  0.00  0.00    -0.302 N 
ATOM      3  H   LIG    1       24.659 -26.537   7.914  0.00  0.00    +0.149 HD
ATOM      4  C   LIG    1       26.058 -25.685   6.712  0.00  0.00    +0.234 C 
ATOM      5  O   LIG    1       26.874 -25.924   5.821  0.00  0.00    -0.274 OA
BRANCH   4   6
ATOM      6  C   LIG    1       25.530 -24.242   6.965  0.00  0.00    +0.163 C 
BRANCH   6   7
ATOM      7  N   LIG    1       26.643 -23.296   6.762  0.00  0.00    -0.304 N 
ATOM      8  H   LIG    1       27.301 -23.526   6.024  0.00  0.00    +0.149 HD
ATOM      9  C   LIG    1       26.959 -22.285   7.631  0.00  0.00    +0.215 C 
ATOM     10  O   LIG    1       26.337 -22.050   8.661  0.00  0.00    -0.276 OA
BRANCH   9  11
ATOM     11  C   LIG    1       28.155 -21.466   7.208  0.00  0.00    +0.114 C 
BRANCH  11  12
ATOM     12  C   LIG    1       29.374 -21.847   8.021  0.00  0.00    +0.117 C 
BRANCH  12  13
ATOM     13  N   LIG    1       30.221 -20.692   8.227  0.00  0.00    -0.281 N 
ATOM     14  H   LIG    1       30.002 -19.797   7.805  0.00  0.00    +0.152 HD
ATOM     15  C   LIG    1       31.368 -20.756   8.937  0.00  0.00    +0.400 C 
ATOM     16  O   LIG    1       31.822 -21.806   9.434  0.00  0.00    -0.227 OA
BRANCH  15  17
ATOM     17  O   LIG    1       31.913 -19.539   9.094  0.00  0.00    -0.450 OA
BRANCH  17  18
ATOM     18  C   LIG    1       31.292 -18.486   8.336  0.00  0.00    +0.236 C 
BRANCH  18  19
ATOM     19  C   LIG    1       31.068 -17.278   9.261  0.00  0.00    +0.021 C 
ATOM     20  C   LIG    1       32.363 -16.485   9.465  0.00  0.00    +0.010 C 
ATOM     21  C   LIG    1       30.506 -17.698  10.616  0.00  0.00    +0.010 C 
ENDBRANCH  18  19
ENDBRANCH  17  18
ENDBRANCH  15  17
ENDBRANCH  12  13
ENDBRANCH  11  12
ENDBRANCH   9  11
ENDBRANCH   6   7
BRANCH   6  22
ATOM     22  C   LIG    1       24.402 -23.812   6.025  0.00  0.00    +0.069 C 
BRANCH  22  23
ATOM     23  C   LIG    1       23.821 -22.461   6.260  0.00  0.00    -0.020 C 
ATOM     24  C   LIG    1       23.710 -21.398   5.300  0.00  0.00    +0.003 C 
ATOM     25  C   LIG    1       23.162 -20.308   5.970  0.00  0.00    +0.047 C 
ATOM     26  C   LIG    1       22.960 -19.065   5.369  0.00  0.00    +0.026 C 
ATOM     27  C   LIG    1       23.187 -18.969   3.996  0.00  0.00    +0.002 C 
ATOM     28  C   LIG    1       23.702 -20.046   3.280  0.00  0.00    +0.001 C 
ATOM     29  N   LIG    1       22.890 -20.715   7.250  0.00  0.00    -0.360 NA
ATOM     30  H   LIG    1       22.440 -20.143   7.944  0.00  0.00    +0.165 HD
ATOM     31  C   LIG    1       24.010 -21.252   3.927  0.00  0.00    +0.010 C 
ATOM     32  C   LIG    1       23.219 -22.027   7.423  0.00  0.00    +0.087 C 
ENDBRANCH  22  23
ENDBRANCH   6  22
ENDBRANCH   4   6
ENDBRANCH   1   2
BRANCH   1  33
ATOM     33  C   LIG    1       24.767 -29.022   7.366  0.00  0.00    +0.234 C 
ATOM     34  N   LIG    1       24.764 -30.201   8.111  0.00  0.00    -0.302 N 
ATOM     35  H   LIG    1       25.529 -30.369   8.753  0.00  0.00    +0.149 HD
ATOM     36  O   LIG    1       23.913 -28.812   6.504  0.00  0.00    -0.274 OA
BRANCH  34  37
ATOM     37  C   LIG    1       23.763 -31.294   7.900  0.00  0.00    +0.169 C 
BRANCH  37  38
ATOM     38  C   LIG    1       23.191 -31.806   9.279  0.00  0.00    +0.234 C 
ATOM     39  N   LIG    1       22.393 -30.915   9.980  0.00  0.00    -0.302 N 
ATOM     40  H   LIG    1       21.873 -30.263   9.402  0.00  0.00    +0.149 HD
ATOM     41  O   LIG    1       23.567 -32.869   9.771  0.00  0.00    -0.274 OA
BRANCH  39  42
ATOM     42  C   LIG    1       21.832 -31.167  11.336  0.00  0.00    +0.163 C 
BRANCH  42  43
ATOM     43  C   LIG    1       20.286 -31.144  11.460  0.00  0.00    +0.231 C 
ATOM     44  O   LIG    1       19.686 -31.639  12.410  0.00  0.00    -0.274 OA
ATOM     45  N   LIG    1       19.610 -30.575  10.426  0.00  0.00    -0.328 N 
ATOM     46  H   LIG    1       18.605 -30.501  10.450  0.00  0.00    +0.145 HD
ATOM     47  H   LIG    1       20.034 -30.672   9.501  0.00  0.00    +0.145 HD
ENDBRANCH  42  43
BRANCH  42  48
ATOM     48  C   LIG    1       22.534 -30.530  12.566  0.00  0.00    +0.067 C 
BRANCH  48  49
ATOM     49  C   LIG    1       22.484 -29.026  12.658  0.00  0.00    -0.045 C 
ATOM     50  C   LIG    1       21.258 -28.362  12.676  0.00  0.00    +0.003 C 
ATOM     51  C   LIG    1       21.201 -27.011  13.018  0.00  0.00    +0.000 C 
ATOM     52  C   LIG    1       22.358 -26.328  13.389  0.00  0.00    +0.000 C 
ATOM     53  C   LIG    1       23.592 -26.961  13.298  0.00  0.00    +0.000 C 
ATOM     54  C   LIG    1       23.658 -28.280  12.855  0.00  0.00    +0.003 C 
ENDBRANCH  48  49
ENDBRANCH  42  48
ENDBRANCH  39  42
ENDBRANCH  37  38
BRANCH  37  55
ATOM     55  C   LIG    1       24.433 -32.471   7.167  0.00  0.00    +0.152 C 
BRANCH  55  56
ATOM     56  C   LIG    1       25.438 -32.008   6.149  0.00  0.00    +0.307 C 
ATOM     57  O   LIG    1       26.646 -32.148   6.268  0.00  0.00    -0.251 OA
BRANCH  56  58
ATOM     58  O   LIG    1       24.873 -31.477   5.041  0.00  0.00    -0.481 OA
ATOM     59  H   LIG    1       24.717 -30.513   5.085  0.00  0.00    +0.295 HD
ENDBRANCH  56  58
ENDBRANCH  55  56
ENDBRANCH  37  55
ENDBRANCH  34  37
ENDBRANCH   1  33
BRANCH   1  60
ATOM     60  C   LIG    1       26.875 -28.484   8.734  0.00  0.00    +0.042 C 
BRANCH  60  61
ATOM     61  C   LIG    1       26.329 -27.924  10.044  0.00  0.00    +0.071 C 
BRANCH  61  63
ATOM     62  C   LIG    1       26.551 -30.082  11.702  0.00  0.00    +0.084 C 
ATOM     63  S   LIG    1       27.290 -28.440  11.497  0.00  0.00    -0.164 S 
ENDBRANCH  61  63
ENDBRANCH  60  61
ENDBRANCH   1  60
TORSDOF 24
ENDMDL
MODEL 2
REMARK VINA RESULT:      -8.3      2.282      3.288
REMARK  Name = *****
REMARK                            x       y       z     vdW  Elec       q    Type
REMARK                         _______ _______ _______ _____ _____    ______ ____
ROOT
ATOM      1  C   LIG    1       24.894 -26.796   6.454  0.00  0.00    +0.160 C 
ENDROOT
BRANCH   1   2
ATOM      2  N   LIG    1       25.163 -25.366   6.270  0.00  0.00    -0.302 N 
ATOM      3  H   LIG    1       26.111 -25.109   6.497  0.00  0.00    +0.149 HD
ATOM      4  C   LIG    1       24.219 -24.370   6.480  0.00  0.00    +0.234 C 
ATOM      5  O   LIG    1       23.057 -24.619   6.805  0.00  0.00    -0.274 OA
BRANCH   4   6
ATOM      6  C   LIG    1       24.691 -22.912   6.207  0.00  0.00    +0.163 C 
BRANCH   6   7
ATOM      7  N   LIG    1       26.079 -22.773   6.686  0.00  0.00    -0.304 N 
ATOM      8  H   LIG    1       26.661 -23.602   6.628  0.00  0.00    +0.149 HD
ATOM      9  C   LIG    1       26.542 -21.695   7.394  0.00  0.00    +0.215 C 
ATOM     10  O   LIG    1       25.854 -20.723   7.687  0.00  0.00    -0.276 OA
BRANCH   9  11
ATOM     11  C   LIG    1       27.995 -21.801   7.788  0.00  0.00    +0.114 C 
BRANCH  11  12
ATOM     12  C   LIG    1       28.872 -21.075   6.787  0.00  0.00    +0.117 C 
BRANCH  12  13
ATOM     13  N   LIG    1       30.030 -20.514   7.449  0.00  0.00    -0.281 N 
ATOM     14  H   LIG    1       30.390 -20.914   8.308  0.00  0.00    +0.152 HD
ATOM     15  C   LIG    1       30.653 -19.406   6.995  0.00  0.00    +0.400 C 
ATOM     16  O   LIG    1       30.269 -18.746   6.009  0.00  0.00    -0.227 OA
BRANCH  15  17
ATOM     17  O   LIG    1       31.769 -19.152   7.697  0.00  0.00    -0.450 OA
BRANCH  17  18
ATOM     18  C   LIG    1       31.576 -18.964   9.110  0.00  0.00    +0.236 C 
BRANCH  18  19
ATOM     19  C   LIG    1       31.079 -17.529   9.355  0.00  0.00    +0.021 C 
ATOM     20  C   LIG    1       32.230 -16.521   9.278  0.00  0.00    +0.010 C 
ATOM     21  C   LIG    1       30.369 -17.397  10.698  0.00  0.00    +0.010 C 
ENDBRANCH  18  19
ENDBRANCH  17  18
ENDBRANCH  15  17
ENDBRANCH  12  13
ENDBRANCH  11  12
ENDBRANCH   9  11
ENDBRANCH   6   7
BRANCH   6  22
ATOM     22  C   LIG    1       24.689 -22.518   4.728  0.00  0.00    +0.069 C 
BRANCH  22  23
ATOM     23  C   LIG    1       24.796 -21.063   4.429  0.00  0.00    -0.020 C 
ATOM     24  C   LIG    1       23.725 -20.105   4.438  0.00  0.00    +0.003 C 
ATOM     25  C   LIG    1       24.271 -18.888   4.044  0.00  0.00    +0.047 C 
ATOM     26  C   LIG    1       23.512 -17.729   3.878  0.00  0.00    +0.026 C 
ATOM     27  C   LIG    1       22.175 -17.773   4.270  0.00  0.00    +0.002 C 
ATOM     28  C   LIG    1       21.596 -18.964   4.703  0.00  0.00    +0.001 C 
ATOM     29  N   LIG    1       25.617 -19.084   3.875  0.00  0.00    -0.360 NA
ATOM     30  H   LIG    1       26.272 -18.358   3.640  0.00  0.00    +0.165 HD
ATOM     31  C   LIG    1       22.347 -20.147   4.750  0.00  0.00    +0.010 C 
ATOM     32  C   LIG    1       25.961 -20.370   4.167  0.00  0.00    +0.087 C 
ENDBRANCH  22  23
ENDBRANCH   6  22
ENDBRANCH   4   6
ENDBRANCH   1   2
BRANCH   1  33
ATOM     33  C   LIG    1       25.932 -27.458   7.435  0.00  0.00    +0.234 C 
ATOM     34  N   LIG    1       25.487 -28.523   8.218  0.00  0.00    -0.302 N 
ATOM     35  H   LIG    1       24.540 -28.856   8.088  0.00  0.00    +0.149 HD
ATOM     36  O   LIG    1       27.040 -26.954   7.618  0.00  0.00    -0.274 OA
BRANCH  34  37
ATOM     37  C   LIG    1       26.293 -29.099   9.341  0.00  0.00    +0.169 C 
BRANCH  37  38
ATOM     38  C   LIG    1       25.504 -30.263  10.058  0.00  0.00    +0.234 C 
ATOM     39  N   LIG    1       24.253 -29.938  10.558  0.00  0.00    -0.302 N 
ATOM     40  H   LIG    1       23.768 -29.207  10.048  0.00  0.00    +0.149 HD
ATOM     41  O   LIG    1       26.042 -31.344  10.300  0.00  0.00    -0.274 OA
BRANCH  39  42
ATOM     42  C   LIG    1       23.390 -30.861  11.345  0.00  0.00    +0.163 C 
BRANCH  42  43
ATOM     43  C   LIG    1       22.129 -31.409  10.626  0.00  0.00    +0.231 C 
ATOM     44  O   LIG    1       21.953 -31.306   9.415  0.00  0.00    -0.274 OA
ATOM     45  N   LIG    1       21.189 -31.986  11.423  0.00  0.00    -0.328 N 
ATOM     46  H   LIG    1       20.356 -32.388  11.022  0.00  0.00    +0.145 HD
ATOM     47  H   LIG    1       21.098 -31.602  12.364  0.00  0.00    +0.145 HD
ENDBRANCH  42  43
BRANCH  42  48
ATOM     48  C   LIG    1       23.128 -30.545  12.842  0.00  0.00    +0.067 C 
BRANCH  48  49
ATOM     49  C   LIG    1       22.806 -29.110  13.176  0.00  0.00    -0.045 C 
ATOM     50  C   LIG    1       23.822 -28.225  13.535  0.00  0.00    +0.003 C 
ATOM     51  C   LIG    1       23.567 -26.855  13.590  0.00  0.00    +0.000 C 
ATOM     52  C   LIG    1       22.312 -26.357  13.244  0.00  0.00    +0.000 C 
ATOM     53  C   LIG    1       21.274 -27.237  12.963  0.00  0.00    +0.000 C 
ATOM     54  C   LIG    1       21.504 -28.610  13.009  0.00  0.00    +0.003 C 
ENDBRANCH  48  49
ENDBRANCH  42  48
ENDBRANCH  39  42
ENDBRANCH  37  38
BRANCH  37  55
ATOM     55  C   LIG    1       26.604 -27.995  10.369  0.00  0.00    +0.152 C 
BRANCH  55  56
ATOM     56  C   LIG    1       27.634 -28.430  11.374  0.00  0.00    +0.307 C 
ATOM     57  O   LIG    1       28.511 -29.249  11.144  0.00  0.00    -0.251 OA
BRANCH  56  58
ATOM     58  O   LIG    1       27.545 -27.771  12.552  0.00  0.00    -0.481 OA
ATOM     59  H   LIG    1       26.680 -27.348  12.718  0.00  0.00    +0.295 HD
ENDBRANCH  56  58
ENDBRANCH  55  56
ENDBRANCH  37  55
ENDBRANCH  34  37
ENDBRANCH   1  33
BRANCH   1  60
ATOM     60  C   LIG    1       24.845 -27.555   5.108  0.00  0.00    +0.042 C 
BRANCH  60  61
ATOM     61  C   LIG    1       24.124 -28.894   5.233  0.00  0.00    +0.071 C 
BRANCH  61  63
ATOM     62  C   LIG    1       24.294 -31.378   6.355  0.00  0.00    +0.084 C 
ATOM     63  S   LIG    1       25.255 -30.317   5.243  0.00  0.00    -0.164 S 
ENDBRANCH  61  63
ENDBRANCH  60  61
ENDBRANCH   1  60
TORSDOF 24
ENDMDL
MODEL 3
REMARK VINA RESULT:      -8.1      2.465      3.595
REMARK  Name = *****
REMARK                            x       y       z     vdW  Elec       q    Type
REMARK                         _______ _______ _______ _____ _____    ______ ____
ROOT
ATOM      1  C   LIG    1       24.495 -28.260   6.339  0.00  0.00    +0.160 C 
ENDROOT
BRANCH   1   2
ATOM      2  N   LIG    1       24.337 -26.817   6.545  0.00  0.00    -0.302 N 
ATOM      3  H   LIG    1       23.557 -26.428   6.039  0.00  0.00    +0.149 HD
ATOM      4  C   LIG    1       25.400 -25.946   6.747  0.00  0.00    +0.234 C 
ATOM      5  O   LIG    1       26.568 -26.331   6.807  0.00  0.00    -0.274 OA
BRANCH   4   6
ATOM      6  C   LIG    1       25.024 -24.451   6.973  0.00  0.00    +0.163 C 
BRANCH   6   7
ATOM      7  N   LIG    1       26.225 -23.629   6.737  0.00  0.00    -0.304 N 
ATOM      8  H   LIG    1       26.848 -23.942   6.000  0.00  0.00    +0.149 HD
ATOM      9  C   LIG    1       26.650 -22.633   7.578  0.00  0.00    +0.215 C 
ATOM     10  O   LIG    1       26.066 -22.312   8.607  0.00  0.00    -0.276 OA
BRANCH   9  11
ATOM     11  C   LIG    1       27.918 -21.951   7.125  0.00  0.00    +0.114 C 
BRANCH  11  12
ATOM     12  C   LIG    1       27.818 -20.453   7.329  0.00  0.00    +0.117 C 
BRANCH  12  13
ATOM     13  N   LIG    1       29.126 -19.895   7.596  0.00  0.00    -0.281 N 
ATOM     14  H   LIG    1       29.651 -20.156   8.423  0.00  0.00    +0.152 HD
ATOM     15  C   LIG    1       29.690 -18.964   6.796  0.00  0.00    +0.400 C 
ATOM     16  O   LIG    1       29.128 -18.472   5.799  0.00  0.00    -0.227 OA
BRANCH  15  17
ATOM     17  O   LIG    1       30.949 -18.693   7.176  0.00  0.00    -0.450 OA
BRANCH  17  18
ATOM     18  C   LIG    1       31.197 -18.781   8.590  0.00  0.00    +0.236 C 
BRANCH  18  19
ATOM     19  C   LIG    1       30.932 -17.405   9.224  0.00  0.00    +0.021 C 
ATOM     20  C   LIG    1       32.198 -16.542   9.231  0.00  0.00    +0.010 C 
ATOM     21  C   LIG    1       30.388 -17.530  10.644  0.00  0.00    +0.010 C 
ENDBRANCH  18  19
ENDBRANCH  17  18
ENDBRANCH  15  17
ENDBRANCH  12  13
ENDBRANCH  11  12
ENDBRANCH   9  11
ENDBRANCH   6   7
BRANCH   6  22
ATOM     22  C   LIG    1       23.934 -23.929   6.034  0.00  0.00    +0.069 C 
BRANCH  22  23
ATOM     23  C   LIG    1       23.610 -22.480   6.135  0.00  0.00    -0.020 C 
ATOM     24  C   LIG    1       23.758 -21.495   5.099  0.00  0.00    +0.003 C 
ATOM     25  C   LIG    1       23.393 -20.271   5.654  0.00  0.00    +0.047 C 
ATOM     26  C   LIG    1       23.467 -19.065   4.956  0.00  0.00    +0.026 C 
ATOM     27  C   LIG    1       23.783 -19.124   3.599  0.00  0.00    +0.002 C 
ATOM     28  C   LIG    1       24.122 -20.333   2.997  0.00  0.00    +0.001 C 
ATOM     29  N   LIG    1       22.978 -20.516   6.937  0.00  0.00    -0.360 NA
ATOM     30  H   LIG    1       22.607 -19.817   7.557  0.00  0.00    +0.165 HD
ATOM     31  C   LIG    1       24.157 -21.519   3.744  0.00  0.00    +0.010 C 
ATOM     32  C   LIG    1       23.038 -21.848   7.221  0.00  0.00    +0.087 C 
ENDBRANCH  22  23
ENDBRANCH   6  22
ENDBRANCH   4   6
ENDBRANCH   1   2
BRANCH   1  33
ATOM     33  C   LIG    1       24.572 -29.035   7.708  0.00  0.00    +0.234 C 
ATOM     34  N   LIG    1       25.785 -29.005   8.395  0.00  0.00    -0.302 N 
ATOM     35  H   LIG    1       26.543 -28.450   8.016  0.00  0.00    +0.149 HD
ATOM     36  O   LIG    1       23.652 -29.765   8.074  0.00  0.00    -0.274 OA
BRANCH  34  37
ATOM     37  C   LIG    1       26.067 -29.867   9.586  0.00  0.00    +0.169 C 
BRANCH  37  38
ATOM     38  C   LIG    1       26.613 -29.004  10.789  0.00  0.00    +0.234 C 
ATOM     39  N   LIG    1       26.575 -29.602  12.039  0.00  0.00    -0.302 N 
ATOM     40  H   LIG    1       26.664 -30.612  12.030  0.00  0.00    +0.149 HD
ATOM     41  O   LIG    1       26.901 -27.816  10.644  0.00  0.00    -0.274 OA
BRANCH  39  42
ATOM     42  C   LIG    1       26.956 -28.930  13.311  0.00  0.00    +0.163 C 
BRANCH  42  43
ATOM     43  C   LIG    1       28.249 -29.438  14.002  0.00  0.00    +0.231 C 
ATOM     44  O   LIG    1       28.508 -30.631  14.137  0.00  0.00    -0.274 OA
ATOM     45  N   LIG    1       29.079 -28.481  14.497  0.00  0.00    -0.328 N 
ATOM     46  H   LIG    1       29.950 -28.737  14.935  0.00  0.00    +0.145 HD
ATOM     47  H   LIG    1       28.632 -27.630  14.842  0.00  0.00    +0.145 HD
ENDBRANCH  42  43
BRANCH  42  48
ATOM     48  C   LIG    1       25.841 -28.572  14.331  0.00  0.00    +0.067 C 
BRANCH  48  49
ATOM     49  C   LIG    1       24.599 -27.931  13.764  0.00  0.00    -0.045 C 
ATOM     50  C   LIG    1       23.536 -28.721  13.327  0.00  0.00    +0.003 C 
ATOM     51  C   LIG    1       22.301 -28.136  13.048  0.00  0.00    +0.000 C 
ATOM     52  C   LIG    1       22.106 -26.771  13.247  0.00  0.00    +0.000 C 
ATOM     53  C   LIG    1       23.181 -25.965  13.607  0.00  0.00    +0.000 C 
ATOM     54  C   LIG    1       24.439 -26.536  13.784  0.00  0.00    +0.003 C 
ENDBRANCH  48  49
ENDBRANCH  42  48
ENDBRANCH  39  42
ENDBRANCH  37  38
BRANCH  37  55
ATOM     55  C   LIG    1       27.118 -30.930   9.213  0.00  0.00    +0.152 C 
BRANCH  55  56
ATOM     56  C   LIG    1       26.550 -32.322   9.232  0.00  0.00    +0.307 C 
ATOM     57  O   LIG    1       27.182 -33.314   9.562  0.00  0.00    -0.251 OA
BRANCH  56  58
ATOM     58  O   LIG    1       25.236 -32.369   8.915  0.00  0.00    -0.481 OA
ATOM     59  H   LIG    1       24.709 -32.991   9.454  0.00  0.00    +0.295 HD
ENDBRANCH  56  58
ENDBRANCH  55  56
ENDBRANCH  37  55
ENDBRANCH  34  37
ENDBRANCH   1  33
BRANCH   1  60
ATOM     60  C   LIG    1       25.714 -28.590   5.449  0.00  0.00    +0.042 C 
BRANCH  60  61
ATOM     61  C   LIG    1       25.489 -29.846   4.611  0.00  0.00    +0.071 C 
BRANCH  61  63
ATOM     62  C   LIG    1       24.370 -32.153   5.552  0.00  0.00    +0.084 C 
ATOM     63  S   LIG    1       26.002 -31.371   5.456  0.00  0.00    -0.164 S 
ENDBRANCH  61  63
ENDBRANCH  60  61
ENDBRANCH   1  60
TORSDOF 24
ENDMDL
MODEL 4
REMARK VINA RESULT:      -8.0      3.776      6.838
REMARK  Name = *****
REMARK                            x       y       z     vdW  Elec       q    Type
REMARK                         _______ _______ _______ _____ _____    ______ ____
ROOT
ATOM      1  C   LIG    1       24.987 -32.366   6.242  0.00  0.00    +0.160 C 
ENDROOT
BRANCH   1   2
ATOM      2  N   LIG    1       25.581 -31.076   6.608  0.00  0.00    -0.302 N 
ATOM      3  H   LIG    1       26.339 -31.162   7.267  0.00  0.00    +0.149 HD
ATOM      4  C   LIG    1       24.862 -29.892   6.691  0.00  0.00    +0.234 C 
ATOM      5  O   LIG    1       23.662 -29.827   6.424  0.00  0.00    -0.274 OA
BRANCH   4   6
ATOM      6  C   LIG    1       25.679 -28.621   7.071  0.00  0.00    +0.163 C 
BRANCH   6   7
ATOM      7  N   LIG    1       25.173 -27.486   6.278  0.00  0.00    -0.304 N 
ATOM      8  H   LIG    1       24.174 -27.314   6.324  0.00  0.00    +0.149 HD
ATOM      9  C   LIG    1       25.911 -26.819   5.335  0.00  0.00    +0.215 C 
ATOM     10  O   LIG    1       27.077 -27.086   5.065  0.00  0.00    -0.276 OA
BRANCH   9  11
ATOM     11  C   LIG    1       25.159 -25.706   4.645  0.00  0.00    +0.114 C 
BRANCH  11  12
ATOM     12  C   LIG    1       24.786 -24.623   5.636  0.00  0.00    +0.117 C 
BRANCH  12  13
ATOM     13  N   LIG    1       24.944 -23.317   5.033  0.00  0.00    -0.281 N 
ATOM     14  H   LIG    1       25.086 -23.211   4.035  0.00  0.00    +0.152 HD
ATOM     15  C   LIG    1       24.968 -22.182   5.767  0.00  0.00    +0.400 C 
ATOM     16  O   LIG    1       24.905 -22.157   7.011  0.00  0.00    -0.227 OA
BRANCH  15  17
ATOM     17  O   LIG    1       24.999 -21.094   4.980  0.00  0.00    -0.450 OA
BRANCH  17  18
ATOM     18  C   LIG    1       23.936 -21.004   4.015  0.00  0.00    +0.236 C 
BRANCH  18  19
ATOM     19  C   LIG    1       23.817 -19.544   3.547  0.00  0.00    +0.021 C 
ATOM     20  C   LIG    1       25.154 -18.807   3.678  0.00  0.00    +0.010 C 
ATOM     21  C   LIG    1       22.737 -18.788   4.316  0.00  0.00    +0.010 C 
ENDBRANCH  18  19
ENDBRANCH  17  18
ENDBRANCH  15  17
ENDBRANCH  12  13
ENDBRANCH  11  12
ENDBRANCH   9  11
ENDBRANCH   6   7
BRANCH   6  22
ATOM     22  C   LIG    1       25.569 -28.221   8.544  0.00  0.00    +0.069 C 
BRANCH  22  23
ATOM     23  C   LIG    1       26.446 -28.954   9.498  0.00  0.00    -0.020 C 
ATOM     24  C   LIG    1       26.785 -28.549  10.834  0.00  0.00    +0.003 C 
ATOM     25  C   LIG    1       27.671 -29.501  11.330  0.00  0.00    +0.047 C 
ATOM     26  C   LIG    1       28.265 -29.407  12.589  0.00  0.00    +0.026 C 
ATOM     27  C   LIG    1       27.831 -28.386  13.432  0.00  0.00    +0.002 C 
ATOM     28  C   LIG    1       26.920 -27.431  12.988  0.00  0.00    +0.001 C 
ATOM     29  N   LIG    1       27.804 -30.469  10.369  0.00  0.00    -0.360 NA
ATOM     30  H   LIG    1       28.347 -31.308  10.479  0.00  0.00    +0.165 HD
ATOM     31  C   LIG    1       26.422 -27.474  11.677  0.00  0.00    +0.010 C 
ATOM     32  C   LIG    1       27.023 -30.190   9.287  0.00  0.00    +0.087 C 
ENDBRANCH  22  23
ENDBRANCH   6  22
ENDBRANCH   4   6
ENDBRANCH   1   2
BRANCH   1  33
ATOM     33  C   LIG    1       23.835 -32.774   7.235  0.00  0.00    +0.234 C 
ATOM     34  N   LIG    1       23.967 -32.383   8.568  0.00  0.00    -0.302 N 
ATOM     35  H   LIG    1       24.764 -31.815   8.828  0.00  0.00    +0.149 HD
ATOM     36  O   LIG    1       22.939 -33.541   6.883  0.00  0.00    -0.274 OA
BRANCH  34  37
ATOM     37  C   LIG    1       23.069 -32.884   9.655  0.00  0.00    +0.169 C 
BRANCH  37  38
ATOM     38  C   LIG    1       22.365 -31.684  10.400  0.00  0.00    +0.234 C 
ATOM     39  N   LIG    1       22.749 -31.470  11.715  0.00  0.00    -0.302 N 
ATOM     40  H   LIG    1       23.704 -31.737  11.929  0.00  0.00    +0.149 HD
ATOM     41  O   LIG    1       21.418 -31.085   9.893  0.00  0.00    -0.274 OA
BRANCH  39  42
ATOM     42  C   LIG    1       22.145 -30.453  12.619  0.00  0.00    +0.163 C 
BRANCH  42  43
ATOM     43  C   LIG    1       20.725 -30.767  13.160  0.00  0.00    +0.231 C 
ATOM     44  O   LIG    1       19.756 -30.043  12.949  0.00  0.00    -0.274 OA
ATOM     45  N   LIG    1       20.611 -31.882  13.930  0.00  0.00    -0.328 N 
ATOM     46  H   LIG    1       19.714 -32.162  14.294  0.00  0.00    +0.145 HD
ATOM     47  H   LIG    1       21.425 -32.125  14.497  0.00  0.00    +0.145 HD
ENDBRANCH  42  43
BRANCH  42  48
ATOM     48  C   LIG    1       22.332 -28.949  12.284  0.00  0.00    +0.067 C 
BRANCH  48  49
ATOM     49  C   LIG    1       22.869 -28.080  13.393  0.00  0.00    -0.045 C 
ATOM     50  C   LIG    1       23.480 -28.656  14.506  0.00  0.00    +0.003 C 
ATOM     51  C   LIG    1       24.199 -27.860  15.398  0.00  0.00    +0.000 C 
ATOM     52  C   LIG    1       24.350 -26.495  15.161  0.00  0.00    +0.000 C 
ATOM     53  C   LIG    1       23.679 -25.901  14.099  0.00  0.00    +0.000 C 
ATOM     54  C   LIG    1       22.876 -26.681  13.268  0.00  0.00    +0.003 C 
ENDBRANCH  48  49
ENDBRANCH  42  48
ENDBRANCH  39  42
ENDBRANCH  37  38
BRANCH  37  55
ATOM     55  C   LIG    1       23.896 -33.692  10.674  0.00  0.00    +0.152 C 
BRANCH  55  56
ATOM     56  C   LIG    1       25.355 -33.335  10.631  0.00  0.00    +0.307 C 
ATOM     57  O   LIG    1       26.157 -33.825   9.850  0.00  0.00    -0.251 OA
BRANCH  56  58
ATOM     58  O   LIG    1       25.694 -32.356  11.501  0.00  0.00    -0.481 OA
ATOM     59  H   LIG    1       26.443 -32.575  12.089  0.00  0.00    +0.295 HD
ENDBRANCH  56  58
ENDBRANCH  55  56
ENDBRANCH  37  55
ENDBRANCH  34  37
ENDBRANCH   1  33
BRANCH   1  60
ATOM     60  C   LIG    1       26.048 -33.485   6.137  0.00  0.00    +0.042 C 
BRANCH  60  61
ATOM     61  C   LIG    1       26.601 -33.618   4.721  0.00  0.00    +0.071 C 
BRANCH  61  63
ATOM     62  C   LIG    1       26.487 -33.033   2.056  0.00  0.00    +0.084 C 
ATOM     63  S   LIG    1       25.349 -33.333   3.435  0.00  0.00    -0.164 S 
ENDBRANCH  61  63
ENDBRANCH  60  61
ENDBRANCH   1  60
TORSDOF 24
ENDMDL
MODEL 5
REMARK VINA RESULT:      -7.6      3.121      9.912
REMARK  Name = *****
REMARK                            x       y       z     vdW  Elec       q    Type
REMARK                         _______ _______ _______ _____ _____    ______ ____
ROOT
ATOM      1  C   LIG    1       26.206 -28.657  10.577  0.00  0.00    +0.160 C 
ENDROOT
BRANCH   1   2
ATOM      2  N   LIG    1       25.644 -29.887  11.144  0.00  0.00    -0.302 N 
ATOM      3  H   LIG    1       26.264 -30.678  11.065  0.00  0.00    +0.149 HD
ATOM      4  C   LIG    1       24.291 -30.197  11.126  0.00  0.00    +0.234 C 
ATOM      5  O   LIG    1       23.444 -29.435  10.659  0.00  0.00    -0.274 OA
BRANCH   4   6
ATOM      6  C   LIG    1       23.888 -31.541  11.802  0.00  0.00    +0.163 C 
BRANCH   6   7
ATOM      7  N   LIG    1       22.702 -31.302  12.644  0.00  0.00    -0.304 N 
ATOM      8  H   LIG    1       21.802 -31.341  12.177  0.00  0.00    +0.149 HD
ATOM      9  C   LIG    1       22.755 -30.821  13.927  0.00  0.00    +0.215 C 
ATOM     10  O   LIG    1       23.798 -30.555  14.514  0.00  0.00    -0.276 OA
BRANCH   9  11
ATOM     11  C   LIG    1       21.401 -30.645  14.570  0.00  0.00    +0.114 C 
BRANCH  11  12
ATOM     12  C   LIG    1       20.847 -29.266  14.274  0.00  0.00    +0.117 C 
BRANCH  12  13
ATOM     13  N   LIG    1       21.925 -28.339  14.006  0.00  0.00    -0.281 N 
ATOM     14  H   LIG    1       22.860 -28.504  14.359  0.00  0.00    +0.152 HD
ATOM     15  C   LIG    1       21.733 -27.188  13.327  0.00  0.00    +0.400 C 
ATOM     16  O   LIG    1       20.623 -26.799  12.915  0.00  0.00    -0.227 OA
BRANCH  15  17
ATOM     17  O   LIG    1       22.897 -26.558  13.097  0.00  0.00    -0.450 OA
BRANCH  17  18
ATOM     18  C   LIG    1       24.059 -27.188  13.665  0.00  0.00    +0.236 C 
BRANCH  18  19
ATOM     19  C   LIG    1       25.274 -26.272  13.445  0.00  0.00    +0.021 C 
ATOM     20  C   LIG    1       26.473 -26.727  14.283  0.00  0.00    +0.010 C 
ATOM     21  C   LIG    1       24.950 -24.815  13.763  0.00  0.00    +0.010 C 
ENDBRANCH  18  19
ENDBRANCH  17  18
ENDBRANCH  15  17
ENDBRANCH  12  13
ENDBRANCH  11  12
ENDBRANCH   9  11
ENDBRANCH   6   7
BRANCH   6  22
ATOM     22  C   LIG    1       23.521 -32.654  10.819  0.00  0.00    +0.069 C 
BRANCH  22  23
ATOM     23  C   LIG    1       24.547 -33.003   9.799  0.00  0.00    -0.020 C 
ATOM     24  C   LIG    1       24.351 -33.079   8.377  0.00  0.00    +0.003 C 
ATOM     25  C   LIG    1       25.560 -33.495   7.827  0.00  0.00    +0.047 C 
ATOM     26  C   LIG    1       25.734 -33.739   6.464  0.00  0.00    +0.026 C 
ATOM     27  C   LIG    1       24.682 -33.407   5.611  0.00  0.00    +0.002 C 
ATOM     28  C   LIG    1       23.466 -32.956   6.117  0.00  0.00    +0.001 C 
ATOM     29  N   LIG    1       26.460 -33.595   8.855  0.00  0.00    -0.360 NA
ATOM     30  H   LIG    1       27.431 -33.827   8.739  0.00  0.00    +0.165 HD
ATOM     31  C   LIG    1       23.272 -32.829   7.500  0.00  0.00    +0.010 C 
ATOM     32  C   LIG    1       25.886 -33.239  10.039  0.00  0.00    +0.087 C 
ENDBRANCH  22  23
ENDBRANCH   6  22
ENDBRANCH   4   6
ENDBRANCH   1   2
BRANCH   1  33
ATOM     33  C   LIG    1       26.191 -28.687   9.002  0.00  0.00    +0.234 C 
ATOM     34  N   LIG    1       25.970 -27.480   8.339  0.00  0.00    -0.302 N 
ATOM     35  H   LIG    1       25.880 -26.635   8.890  0.00  0.00    +0.149 HD
ATOM     36  O   LIG    1       26.214 -29.754   8.390  0.00  0.00    -0.274 OA
BRANCH  34  37
ATOM     37  C   LIG    1       25.714 -27.396   6.867  0.00  0.00    +0.169 C 
BRANCH  37  38
ATOM     38  C   LIG    1       25.772 -25.899   6.370  0.00  0.00    +0.234 C 
ATOM     39  N   LIG    1       25.355 -24.937   7.277  0.00  0.00    -0.302 N 
ATOM     40  H   LIG    1       25.505 -25.176   8.251  0.00  0.00    +0.149 HD
ATOM     41  O   LIG    1       26.017 -25.625   5.196  0.00  0.00    -0.274 OA
BRANCH  39  42
ATOM     42  C   LIG    1       25.246 -23.483   6.977  0.00  0.00    +0.163 C 
BRANCH  42  43
ATOM     43  C   LIG    1       26.227 -22.546   7.731  0.00  0.00    +0.231 C 
ATOM     44  O   LIG    1       26.053 -22.197   8.896  0.00  0.00    -0.274 OA
ATOM     45  N   LIG    1       27.287 -22.088   7.015  0.00  0.00    -0.328 N 
ATOM     46  H   LIG    1       27.980 -21.496   7.447  0.00  0.00    +0.145 HD
ATOM     47  H   LIG    1       27.130 -21.943   6.016  0.00  0.00    +0.145 HD
ENDBRANCH  42  43
BRANCH  42  48
ATOM     48  C   LIG    1       23.835 -22.856   6.815  0.00  0.00    +0.067 C 
BRANCH  48  49
ATOM     49  C   LIG    1       23.700 -21.778   5.769  0.00  0.00    -0.045 C 
ATOM     50  C   LIG    1       22.789 -20.736   5.946  0.00  0.00    +0.003 C 
ATOM     51  C   LIG    1       22.845 -19.614   5.119  0.00  0.00    +0.000 C 
ATOM     52  C   LIG    1       23.834 -19.505   4.144  0.00  0.00    +0.000 C 
ATOM     53  C   LIG    1       24.693 -20.572   3.910  0.00  0.00    +0.000 C 
ATOM     54  C   LIG    1       24.570 -21.734   4.668  0.00  0.00    +0.003 C 
ENDBRANCH  48  49
ENDBRANCH  42  48
ENDBRANCH  39  42
ENDBRANCH  37  38
BRANCH  37  55
ATOM     55  C   LIG    1       24.321 -27.975   6.554  0.00  0.00    +0.152 C 
BRANCH  55  56
ATOM     56  C   LIG    1       24.397 -29.193   5.676  0.00  0.00    +0.307 C 
ATOM     57  O   LIG    1       25.440 -29.664   5.248  0.00  0.00    -0.251 OA
BRANCH  56  58
ATOM     58  O   LIG    1       23.194 -29.772   5.456  0.00  0.00    -0.481 OA
ATOM     59  H   LIG    1       22.450 -29.144   5.368  0.00  0.00    +0.295 HD
ENDBRANCH  56  58
ENDBRANCH  55  56
ENDBRANCH  37  55
ENDBRANCH  34  37
ENDBRANCH   1  33
BRANCH   1  60
ATOM     60  C   LIG    1       27.627 -28.368  11.110  0.00  0.00    +0.042 C 
BRANCH  60  61
ATOM     61  C   LIG    1       28.287 -29.618  11.687  0.00  0.00    +0.071 C 
BRANCH  61  63
ATOM     62  C   LIG    1       27.460 -30.345  14.186  0.00  0.00    +0.084 C 
ATOM     63  S   LIG    1       28.812 -29.416  13.415  0.00  0.00    -0.164 S 
ENDBRANCH  61  63
ENDBRANCH  60  61
ENDBRANCH   1  60
TORSDOF 24
ENDMDL
MODEL 6
REMARK VINA RESULT:      -7.6      3.103     10.429
REMARK  Name = *****
REMARK                            x       y       z     vdW  Elec       q    Type
REMARK                         _______ _______ _______ _____ _____    ______ ____
ROOT
ATOM      1  C   LIG    1       25.337 -29.002  10.261  0.00  0.00    +0.160 C 
ENDROOT
BRANCH   1   2
ATOM      2  N   LIG    1       24.915 -30.403  10.348  0.00  0.00    -0.302 N 
ATOM      3  H   LIG    1       25.669 -31.030  10.584  0.00  0.00    +0.149 HD
ATOM      4  C   LIG    1       23.914 -30.958   9.562  0.00  0.00    +0.234 C 
ATOM      5  O   LIG    1       23.271 -30.297   8.746  0.00  0.00    -0.274 OA
BRANCH   4   6
ATOM      6  C   LIG    1       23.594 -32.460   9.822  0.00  0.00    +0.163 C 
BRANCH   6   7
ATOM      7  N   LIG    1       22.185 -32.570  10.242  0.00  0.00    -0.304 N 
ATOM      8  H   LIG    1       21.497 -32.631   9.499  0.00  0.00    +0.149 HD
ATOM      9  C   LIG    1       21.749 -32.371  11.526  0.00  0.00    +0.215 C 
ATOM     10  O   LIG    1       22.489 -32.096  12.464  0.00  0.00    -0.276 OA
BRANCH   9  11
ATOM     11  C   LIG    1       20.256 -32.522  11.695  0.00  0.00    +0.114 C 
BRANCH  11  12
ATOM     12  C   LIG    1       19.562 -31.189  11.506  0.00  0.00    +0.117 C 
BRANCH  12  13
ATOM     13  N   LIG    1       20.392 -30.116  12.008  0.00  0.00    -0.281 N 
ATOM     14  H   LIG    1       21.215 -29.807  11.504  0.00  0.00    +0.152 HD
ATOM     15  C   LIG    1       20.150 -29.511  13.191  0.00  0.00    +0.400 C 
ATOM     16  O   LIG    1       19.236 -29.845  13.970  0.00  0.00    -0.227 OA
BRANCH  15  17
ATOM     17  O   LIG    1       20.974 -28.468  13.383  0.00  0.00    -0.450 OA
BRANCH  17  18
ATOM     18  C   LIG    1       22.097 -28.399  12.486  0.00  0.00    +0.236 C 
BRANCH  18  19
ATOM     19  C   LIG    1       23.310 -27.851  13.254  0.00  0.00    +0.021 C 
ATOM     20  C   LIG    1       23.517 -28.599  14.575  0.00  0.00    +0.010 C 
ATOM     21  C   LIG    1       23.180 -26.355  13.527  0.00  0.00    +0.010 C 
ENDBRANCH  18  19
ENDBRANCH  17  18
ENDBRANCH  15  17
ENDBRANCH  12  13
ENDBRANCH  11  12
ENDBRANCH   9  11
ENDBRANCH   6   7
BRANCH   6  22
ATOM     22  C   LIG    1       23.767 -33.361   8.597  0.00  0.00    +0.069 C 
BRANCH  22  23
ATOM     23  C   LIG    1       25.068 -33.263   7.881  0.00  0.00    -0.020 C 
ATOM     24  C   LIG    1       25.263 -33.250   6.457  0.00  0.00    +0.003 C 
ATOM     25  C   LIG    1       26.637 -33.206   6.240  0.00  0.00    +0.047 C 
ATOM     26  C   LIG    1       27.210 -33.241   4.969  0.00  0.00    +0.026 C 
ATOM     27  C   LIG    1       26.352 -33.169   3.872  0.00  0.00    +0.002 C 
ATOM     28  C   LIG    1       24.970 -33.177   4.046  0.00  0.00    +0.001 C 
ATOM     29  N   LIG    1       27.238 -33.124   7.469  0.00  0.00    -0.360 NA
ATOM     30  H   LIG    1       28.229 -33.027   7.611  0.00  0.00    +0.165 HD
ATOM     31  C   LIG    1       24.411 -33.261   5.329  0.00  0.00    +0.010 C 
ATOM     32  C   LIG    1       26.307 -33.090   8.464  0.00  0.00    +0.087 C 
ENDBRANCH  22  23
ENDBRANCH   6  22
ENDBRANCH   4   6
ENDBRANCH   1   2
BRANCH   1  33
ATOM     33  C   LIG    1       25.920 -28.661   8.839  0.00  0.00    +0.234 C 
ATOM     34  N   LIG    1       25.304 -27.636   8.121  0.00  0.00    -0.302 N 
ATOM     35  H   LIG    1       24.547 -27.125   8.559  0.00  0.00    +0.149 HD
ATOM     36  O   LIG    1       26.779 -29.374   8.321  0.00  0.00    -0.274 OA
BRANCH  34  37
ATOM     37  C   LIG    1       25.608 -27.355   6.682  0.00  0.00    +0.169 C 
BRANCH  37  38
ATOM     38  C   LIG    1       25.860 -25.814   6.452  0.00  0.00    +0.234 C 
ATOM     39  N   LIG    1       24.858 -24.958   6.885  0.00  0.00    -0.302 N 
ATOM     40  H   LIG    1       24.326 -25.294   7.681  0.00  0.00    +0.149 HD
ATOM     41  O   LIG    1       26.812 -25.415   5.783  0.00  0.00    -0.274 OA
BRANCH  39  42
ATOM     42  C   LIG    1       24.858 -23.484   6.681  0.00  0.00    +0.163 C 
BRANCH  42  43
ATOM     43  C   LIG    1       25.726 -22.650   7.660  0.00  0.00    +0.231 C 
ATOM     44  O   LIG    1       25.275 -22.136   8.680  0.00  0.00    -0.274 OA
ATOM     45  N   LIG    1       27.028 -22.478   7.308  0.00  0.00    -0.328 N 
ATOM     46  H   LIG    1       27.658 -21.970   7.909  0.00  0.00    +0.145 HD
ATOM     47  H   LIG    1       27.223 -22.431   6.306  0.00  0.00    +0.145 HD
ENDBRANCH  42  43
BRANCH  42  48
ATOM     48  C   LIG    1       23.521 -22.778   6.328  0.00  0.00    +0.067 C 
BRANCH  48  49
ATOM     49  C   LIG    1       23.633 -21.461   5.603  0.00  0.00    -0.045 C 
ATOM     50  C   LIG    1       24.514 -21.319   4.530  0.00  0.00    +0.003 C 
ATOM     51  C   LIG    1       24.433 -20.198   3.705  0.00  0.00    +0.000 C 
ATOM     52  C   LIG    1       23.446 -19.237   3.915  0.00  0.00    +0.000 C 
ATOM     53  C   LIG    1       22.617 -19.330   5.027  0.00  0.00    +0.000 C 
ATOM     54  C   LIG    1       22.768 -20.397   5.910  0.00  0.00    +0.003 C 
ENDBRANCH  48  49
ENDBRANCH  42  48
ENDBRANCH  39  42
ENDBRANCH  37  38
BRANCH  37  55
ATOM     55  C   LIG    1       24.423 -27.806   5.808  0.00  0.00    +0.152 C 
BRANCH  55  56
ATOM     56  C   LIG    1       24.436 -29.287   5.554  0.00  0.00    +0.307 C 
ATOM     57  O   LIG    1       25.443 -29.925   5.284  0.00  0.00    -0.251 OA
BRANCH  56  58
ATOM     58  O   LIG    1       23.229 -29.872   5.722  0.00  0.00    -0.481 OA
ATOM     59  H   LIG    1       23.184 -30.508   6.463  0.00  0.00    +0.295 HD
ENDBRANCH  56  58
ENDBRANCH  55  56
ENDBRANCH  37  55
ENDBRANCH  34  37
ENDBRANCH   1  33
BRANCH   1  60
ATOM     60  C   LIG    1       26.342 -28.627  11.374  0.00  0.00    +0.042 C 
BRANCH  60  61
ATOM     61  C   LIG    1       27.123 -29.840  11.871  0.00  0.00    +0.071 C 
BRANCH  61  63
ATOM     62  C   LIG    1       27.232 -28.080  13.955  0.00  0.00    +0.084 C 
ATOM     63  S   LIG    1       28.190 -29.469  13.295  0.00  0.00    -0.164 S 
ENDBRANCH  61  63
ENDBRANCH  60  61
ENDBRANCH   1  60
TORSDOF 24
ENDMDL
MODEL 7
REMARK VINA RESULT:      -7.5      2.596      4.153
REMARK  Name = *****
REMARK                            x       y       z     vdW  Elec       q    Type
REMARK                         _______ _______ _______ _____ _____    ______ ____
ROOT
ATOM      1  C   LIG    1       24.775 -26.686   6.688  0.00  0.00    +0.160 C 
ENDROOT
BRANCH   1   2
ATOM      2  N   LIG    1       25.074 -25.271   6.441  0.00  0.00    -0.302 N 
ATOM      3  H   LIG    1       26.020 -25.019   6.682  0.00  0.00    +0.149 HD
ATOM      4  C   LIG    1       24.141 -24.251   6.575  0.00  0.00    +0.234 C 
ATOM      5  O   LIG    1       22.967 -24.464   6.878  0.00  0.00    -0.274 OA
BRANCH   4   6
ATOM      6  C   LIG    1       24.647 -22.816   6.243  0.00  0.00    +0.163 C 
BRANCH   6   7
ATOM      7  N   LIG    1       26.044 -22.697   6.698  0.00  0.00    -0.304 N 
ATOM      8  H   LIG    1       26.616 -23.532   6.622  0.00  0.00    +0.149 HD
ATOM      9  C   LIG    1       26.532 -21.629   7.406  0.00  0.00    +0.215 C 
ATOM     10  O   LIG    1       25.861 -20.652   7.719  0.00  0.00    -0.276 OA
BRANCH   9  11
ATOM     11  C   LIG    1       27.992 -21.754   7.771  0.00  0.00    +0.114 C 
BRANCH  11  12
ATOM     12  C   LIG    1       28.858 -21.046   6.751  0.00  0.00    +0.117 C 
BRANCH  12  13
ATOM     13  N   LIG    1       30.069 -20.556   7.374  0.00  0.00    -0.281 N 
ATOM     14  H   LIG    1       30.468 -21.017   8.183  0.00  0.00    +0.152 HD
ATOM     15  C   LIG    1       30.695 -19.436   6.952  0.00  0.00    +0.400 C 
ATOM     16  O   LIG    1       30.272 -18.707   6.033  0.00  0.00    -0.227 OA
BRANCH  15  17
ATOM     17  O   LIG    1       31.856 -19.253   7.600  0.00  0.00    -0.450 OA
BRANCH  17  18
ATOM     18  C   LIG    1       31.737 -18.930   8.996  0.00  0.00    +0.236 C 
BRANCH  18  19
ATOM     19  C   LIG    1       31.399 -17.436   9.130  0.00  0.00    +0.021 C 
ATOM     20  C   LIG    1       32.571 -16.651   9.727  0.00  0.00    +0.010 C 
ATOM     21  C   LIG    1       30.148 -17.211   9.974  0.00  0.00    +0.010 C 
ENDBRANCH  18  19
ENDBRANCH  17  18
ENDBRANCH  15  17
ENDBRANCH  12  13
ENDBRANCH  11  12
ENDBRANCH   9  11
ENDBRANCH   6   7
BRANCH   6  22
ATOM     22  C   LIG    1       24.633 -22.474   4.751  0.00  0.00    +0.069 C 
BRANCH  22  23
ATOM     23  C   LIG    1       24.756 -21.032   4.400  0.00  0.00    -0.020 C 
ATOM     24  C   LIG    1       23.702 -20.055   4.413  0.00  0.00    +0.003 C 
ATOM     25  C   LIG    1       24.257 -18.862   3.960  0.00  0.00    +0.047 C 
ATOM     26  C   LIG    1       23.513 -17.694   3.781  0.00  0.00    +0.026 C 
ATOM     27  C   LIG    1       22.190 -17.700   4.219  0.00  0.00    +0.002 C 
ATOM     28  C   LIG    1       21.605 -18.864   4.711  0.00  0.00    +0.001 C 
ATOM     29  N   LIG    1       25.592 -19.089   3.752  0.00  0.00    -0.360 NA
ATOM     30  H   LIG    1       26.251 -18.383   3.471  0.00  0.00    +0.165 HD
ATOM     31  C   LIG    1       22.336 -20.060   4.773  0.00  0.00    +0.010 C 
ATOM     32  C   LIG    1       25.923 -20.371   4.075  0.00  0.00    +0.087 C 
ENDBRANCH  22  23
ENDBRANCH   6  22
ENDBRANCH   4   6
ENDBRANCH   1   2
BRANCH   1  33
ATOM     33  C   LIG    1       25.927 -27.386   7.501  0.00  0.00    +0.234 C 
ATOM     34  N   LIG    1       25.560 -28.384   8.405  0.00  0.00    -0.302 N 
ATOM     35  H   LIG    1       24.584 -28.649   8.463  0.00  0.00    +0.149 HD
ATOM     36  O   LIG    1       27.081 -26.961   7.458  0.00  0.00    -0.274 OA
BRANCH  34  37
ATOM     37  C   LIG    1       26.514 -28.976   9.394  0.00  0.00    +0.169 C 
BRANCH  37  38
ATOM     38  C   LIG    1       26.576 -30.546   9.245  0.00  0.00    +0.234 C 
ATOM     39  N   LIG    1       25.431 -31.162   8.765  0.00  0.00    -0.302 N 
ATOM     40  H   LIG    1       24.873 -30.593   8.137  0.00  0.00    +0.149 HD
ATOM     41  O   LIG    1       27.528 -31.192   9.683  0.00  0.00    -0.274 OA
BRANCH  39  42
ATOM     42  C   LIG    1       25.251 -32.634   8.637  0.00  0.00    +0.163 C 
BRANCH  42  43
ATOM     43  C   LIG    1       25.624 -33.259   7.268  0.00  0.00    +0.231 C 
ATOM     44  O   LIG    1       26.772 -33.271   6.830  0.00  0.00    -0.274 OA
ATOM     45  N   LIG    1       24.594 -33.768   6.541  0.00  0.00    -0.328 N 
ATOM     46  H   LIG    1       24.765 -34.214   5.653  0.00  0.00    +0.145 HD
ATOM     47  H   LIG    1       23.693 -33.299   6.644  0.00  0.00    +0.145 HD
ENDBRANCH  42  43
BRANCH  42  48
ATOM     48  C   LIG    1       23.992 -33.291   9.265  0.00  0.00    +0.067 C 
BRANCH  48  49
ATOM     49  C   LIG    1       23.198 -32.435  10.219  0.00  0.00    -0.045 C 
ATOM     50  C   LIG    1       23.800 -31.909  11.362  0.00  0.00    +0.003 C 
ATOM     51  C   LIG    1       23.151 -30.919  12.099  0.00  0.00    +0.000 C 
ATOM     52  C   LIG    1       21.922 -30.416  11.677  0.00  0.00    +0.000 C 
ATOM     53  C   LIG    1       21.280 -30.990  10.586  0.00  0.00    +0.000 C 
ATOM     54  C   LIG    1       21.882 -32.050   9.912  0.00  0.00    +0.003 C 
ENDBRANCH  48  49
ENDBRANCH  42  48
ENDBRANCH  39  42
ENDBRANCH  37  38
BRANCH  37  55
ATOM     55  C   LIG    1       26.057 -28.625  10.823  0.00  0.00    +0.152 C 
BRANCH  55  56
ATOM     56  C   LIG    1       27.216 -28.357  11.741  0.00  0.00    +0.307 C 
ATOM     57  O   LIG    1       27.896 -29.231  12.257  0.00  0.00    -0.251 OA
BRANCH  56  58
ATOM     58  O   LIG    1       27.489 -27.040  11.889  0.00  0.00    -0.481 OA
ATOM     59  H   LIG    1       26.723 -26.448  11.754  0.00  0.00    +0.295 HD
ENDBRANCH  56  58
ENDBRANCH  55  56
ENDBRANCH  37  55
ENDBRANCH  34  37
ENDBRANCH   1  33
BRANCH   1  60
ATOM     60  C   LIG    1       24.478 -27.453   5.379  0.00  0.00    +0.042 C 
BRANCH  60  61
ATOM     61  C   LIG    1       25.673 -28.283   4.918  0.00  0.00    +0.071 C 
BRANCH  61  63
ATOM     62  C   LIG    1       23.769 -29.999   5.858  0.00  0.00    +0.084 C 
ATOM     63  S   LIG    1       25.452 -30.066   5.189  0.00  0.00    -0.164 S 
ENDBRANCH  61  63
ENDBRANCH  60  61
ENDBRANCH   1  60
TORSDOF 24
ENDMDL
MODEL 8
REMARK VINA RESULT:      -7.4      3.054      5.490
REMARK  Name = *****
REMARK                            x       y       z     vdW  Elec       q    Type
REMARK                         _______ _______ _______ _____ _____    ______ ____
ROOT
ATOM      1  C   LIG    1       24.877 -26.362   6.540  0.00  0.00    +0.160 C 
ENDROOT
BRANCH   1   2
ATOM      2  N   LIG    1       25.468 -25.038   6.314  0.00  0.00    -0.302 N 
ATOM      3  H   LIG    1       26.466 -25.021   6.453  0.00  0.00    +0.149 HD
ATOM      4  C   LIG    1       24.815 -23.845   6.594  0.00  0.00    +0.234 C 
ATOM      5  O   LIG    1       23.662 -23.807   7.023  0.00  0.00    -0.274 OA
BRANCH   4   6
ATOM      6  C   LIG    1       25.601 -22.542   6.260  0.00  0.00    +0.163 C 
BRANCH   6   7
ATOM      7  N   LIG    1       24.647 -21.418   6.227  0.00  0.00    -0.304 N 
ATOM      8  H   LIG    1       24.332 -21.067   7.125  0.00  0.00    +0.149 HD
ATOM      9  C   LIG    1       24.008 -20.988   5.093  0.00  0.00    +0.215 C 
ATOM     10  O   LIG    1       24.176 -21.483   3.984  0.00  0.00    -0.276 OA
BRANCH   9  11
ATOM     11  C   LIG    1       23.065 -19.832   5.324  0.00  0.00    +0.114 C 
BRANCH  11  12
ATOM     12  C   LIG    1       22.754 -19.130   4.019  0.00  0.00    +0.117 C 
BRANCH  12  13
ATOM     13  N   LIG    1       23.371 -17.822   3.993  0.00  0.00    -0.281 N 
ATOM     14  H   LIG    1       22.850 -16.989   4.246  0.00  0.00    +0.152 HD
ATOM     15  C   LIG    1       24.643 -17.632   3.582  0.00  0.00    +0.400 C 
ATOM     16  O   LIG    1       25.377 -18.542   3.149  0.00  0.00    -0.227 OA
BRANCH  15  17
ATOM     17  O   LIG    1       25.030 -16.360   3.765  0.00  0.00    -0.450 OA
BRANCH  17  18
ATOM     18  C   LIG    1       26.397 -16.077   3.416  0.00  0.00    +0.236 C 
BRANCH  18  19
ATOM     19  C   LIG    1       26.512 -14.592   3.032  0.00  0.00    +0.021 C 
ATOM     20  C   LIG    1       27.750 -13.949   3.665  0.00  0.00    +0.010 C 
ATOM     21  C   LIG    1       25.266 -13.807   3.429  0.00  0.00    +0.010 C 
ENDBRANCH  18  19
ENDBRANCH  17  18
ENDBRANCH  15  17
ENDBRANCH  12  13
ENDBRANCH  11  12
ENDBRANCH   9  11
ENDBRANCH   6   7
BRANCH   6  22
ATOM     22  C   LIG    1       26.681 -22.181   7.282  0.00  0.00    +0.069 C 
BRANCH  22  23
ATOM     23  C   LIG    1       27.648 -21.124   6.880  0.00  0.00    -0.020 C 
ATOM     24  C   LIG    1       28.938 -20.875   7.463  0.00  0.00    +0.003 C 
ATOM     25  C   LIG    1       29.464 -19.762   6.815  0.00  0.00    +0.047 C 
ATOM     26  C   LIG    1       30.688 -19.186   7.159  0.00  0.00    +0.026 C 
ATOM     27  C   LIG    1       31.474 -19.856   8.096  0.00  0.00    +0.002 C 
ATOM     28  C   LIG    1       31.000 -20.993   8.743  0.00  0.00    +0.001 C 
ATOM     29  N   LIG    1       28.569 -19.399   5.842  0.00  0.00    -0.360 NA
ATOM     30  H   LIG    1       28.717 -18.654   5.184  0.00  0.00    +0.165 HD
ATOM     31  C   LIG    1       29.717 -21.489   8.470  0.00  0.00    +0.010 C 
ATOM     32  C   LIG    1       27.503 -20.248   5.822  0.00  0.00    +0.087 C 
ENDBRANCH  22  23
ENDBRANCH   6  22
ENDBRANCH   4   6
ENDBRANCH   1   2
BRANCH   1  33
ATOM     33  C   LIG    1       25.892 -27.333   7.251  0.00  0.00    +0.234 C 
ATOM     34  N   LIG    1       25.363 -28.307   8.098  0.00  0.00    -0.302 N 
ATOM     35  H   LIG    1       24.356 -28.381   8.181  0.00  0.00    +0.149 HD
ATOM     36  O   LIG    1       27.105 -27.138   7.186  0.00  0.00    -0.274 OA
BRANCH  34  37
ATOM     37  C   LIG    1       26.211 -29.147   9.001  0.00  0.00    +0.169 C 
BRANCH  37  38
ATOM     38  C   LIG    1       25.363 -30.313   9.643  0.00  0.00    +0.234 C 
ATOM     39  N   LIG    1       24.250 -29.931  10.375  0.00  0.00    -0.302 N 
ATOM     40  H   LIG    1       23.813 -29.069  10.066  0.00  0.00    +0.149 HD
ATOM     41  O   LIG    1       25.764 -31.477   9.629  0.00  0.00    -0.274 OA
BRANCH  39  42
ATOM     42  C   LIG    1       23.373 -30.864  11.133  0.00  0.00    +0.163 C 
BRANCH  42  43
ATOM     43  C   LIG    1       22.313 -31.641  10.309  0.00  0.00    +0.231 C 
ATOM     44  O   LIG    1       21.112 -31.389  10.361  0.00  0.00    -0.274 OA
ATOM     45  N   LIG    1       22.781 -32.662   9.542  0.00  0.00    -0.328 N 
ATOM     46  H   LIG    1       22.153 -33.193   8.960  0.00  0.00    +0.145 HD
ATOM     47  H   LIG    1       23.595 -33.162   9.903  0.00  0.00    +0.145 HD
ENDBRANCH  42  43
BRANCH  42  48
ATOM     48  C   LIG    1       22.837 -30.425  12.523  0.00  0.00    +0.067 C 
BRANCH  48  49
ATOM     49  C   LIG    1       22.486 -28.966  12.672  0.00  0.00    -0.045 C 
ATOM     50  C   LIG    1       21.165 -28.541  12.528  0.00  0.00    +0.003 C 
ATOM     51  C   LIG    1       20.802 -27.252  12.916  0.00  0.00    +0.000 C 
ATOM     52  C   LIG    1       21.739 -26.397  13.491  0.00  0.00    +0.000 C 
ATOM     53  C   LIG    1       23.072 -26.784  13.565  0.00  0.00    +0.000 C 
ATOM     54  C   LIG    1       23.454 -28.034  13.081  0.00  0.00    +0.003 C 
ENDBRANCH  48  49
ENDBRANCH  42  48
ENDBRANCH  39  42
ENDBRANCH  37  38
BRANCH  37  55
ATOM     55  C   LIG    1       26.790 -28.269  10.127  0.00  0.00    +0.152 C 
BRANCH  55  56
ATOM     56  C   LIG    1       27.450 -29.086  11.202  0.00  0.00    +0.307 C 
ATOM     57  O   LIG    1       28.508 -29.679  11.057  0.00  0.00    -0.251 OA
BRANCH  56  58
ATOM     58  O   LIG    1       26.795 -29.047  12.384  0.00  0.00    -0.481 OA
ATOM     59  H   LIG    1       27.227 -28.502  13.071  0.00  0.00    +0.295 HD
ENDBRANCH  56  58
ENDBRANCH  55  56
ENDBRANCH  37  55
ENDBRANCH  34  37
ENDBRANCH   1  33
BRANCH   1  60
ATOM     60  C   LIG    1       24.338 -26.987   5.233  0.00  0.00    +0.042 C 
BRANCH  60  61
ATOM     61  C   LIG    1       25.024 -28.311   4.907  0.00  0.00    +0.071 C 
BRANCH  61  63
ATOM     62  C   LIG    1       25.445 -30.917   5.603  0.00  0.00    +0.084 C 
ATOM     63  S   LIG    1       24.060 -29.762   5.422  0.00  0.00    -0.164 S 
ENDBRANCH  61  63
ENDBRANCH  60  61
ENDBRANCH   1  60
TORSDOF 24
ENDMDL
MODEL 9
REMARK VINA RESULT:      -7.4      2.551      3.546
REMARK  Name = *****
REMARK                            x       y       z     vdW  Elec       q    Type
REMARK                         _______ _______ _______ _____ _____    ______ ____
ROOT
ATOM      1  C   LIG    1       25.640 -26.914   6.973  0.00  0.00    +0.160 C 
ENDROOT
BRANCH   1   2
ATOM      2  N   LIG    1       25.926 -25.608   7.575  0.00  0.00    -0.302 N 
ATOM      3  H   LIG    1       25.720 -25.573   8.561  0.00  0.00    +0.149 HD
ATOM      4  C   LIG    1       25.787 -24.401   6.903  0.00  0.00    +0.234 C 
ATOM      5  O   LIG    1       25.443 -24.338   5.722  0.00  0.00    -0.274 OA
BRANCH   4   6
ATOM      6  C   LIG    1       26.166 -23.123   7.708  0.00  0.00    +0.163 C 
BRANCH   6   7
ATOM      7  N   LIG    1       27.125 -22.337   6.910  0.00  0.00    -0.304 N 
ATOM      8  H   LIG    1       27.141 -22.523   5.913  0.00  0.00    +0.149 HD
ATOM      9  C   LIG    1       28.121 -21.565   7.451  0.00  0.00    +0.215 C 
ATOM     10  O   LIG    1       28.306 -21.434   8.655  0.00  0.00    -0.276 OA
BRANCH   9  11
ATOM     11  C   LIG    1       28.984 -20.874   6.422  0.00  0.00    +0.114 C 
BRANCH  11  12
ATOM     12  C   LIG    1       29.052 -19.386   6.698  0.00  0.00    +0.117 C 
BRANCH  12  13
ATOM     13  N   LIG    1       29.938 -19.122   7.811  0.00  0.00    -0.281 N 
ATOM     14  H   LIG    1       29.575 -18.921   8.736  0.00  0.00    +0.152 HD
ATOM     15  C   LIG    1       31.280 -19.075   7.669  0.00  0.00    +0.400 C 
ATOM     16  O   LIG    1       31.869 -19.204   6.578  0.00  0.00    -0.227 OA
BRANCH  15  17
ATOM     17  O   LIG    1       31.892 -18.940   8.857  0.00  0.00    -0.450 OA
BRANCH  17  18
ATOM     18  C   LIG    1       32.245 -17.593   9.217  0.00  0.00    +0.236 C 
BRANCH  18  19
ATOM     19  C   LIG    1       31.894 -17.369  10.697  0.00  0.00    +0.021 C 
ATOM     20  C   LIG    1       30.377 -17.299  10.904  0.00  0.00    +0.010 C 
ATOM     21  C   LIG    1       32.545 -16.105  11.249  0.00  0.00    +0.010 C 
ENDBRANCH  18  19
ENDBRANCH  17  18
ENDBRANCH  15  17
ENDBRANCH  12  13
ENDBRANCH  11  12
ENDBRANCH   9  11
ENDBRANCH   6   7
BRANCH   6  22
ATOM     22  C   LIG    1       24.984 -22.202   8.017  0.00  0.00    +0.069 C 
BRANCH  22  23
ATOM     23  C   LIG    1       24.088 -21.867   6.877  0.00  0.00    -0.020 C 
ATOM     24  C   LIG    1       24.381 -20.973   5.791  0.00  0.00    +0.003 C 
ATOM     25  C   LIG    1       23.241 -20.919   4.995  0.00  0.00    +0.047 C 
ATOM     26  C   LIG    1       23.132 -20.099   3.871  0.00  0.00    +0.026 C 
ATOM     27  C   LIG    1       24.277 -19.420   3.457  0.00  0.00    +0.002 C 
ATOM     28  C   LIG    1       25.450 -19.473   4.205  0.00  0.00    +0.001 C 
ATOM     29  N   LIG    1       22.331 -21.791   5.533  0.00  0.00    -0.360 NA
ATOM     30  H   LIG    1       21.432 -21.994   5.130  0.00  0.00    +0.165 HD
ATOM     31  C   LIG    1       25.504 -20.209   5.398  0.00  0.00    +0.010 C 
ATOM     32  C   LIG    1       22.848 -22.420   6.626  0.00  0.00    +0.087 C 
ENDBRANCH  22  23
ENDBRANCH   6  22
ENDBRANCH   4   6
ENDBRANCH   1   2
BRANCH   1  33
ATOM     33  C   LIG    1       25.930 -28.090   7.978  0.00  0.00    +0.234 C 
ATOM     34  N   LIG    1       24.995 -29.123   8.045  0.00  0.00    -0.302 N 
ATOM     35  H   LIG    1       24.202 -29.101   7.414  0.00  0.00    +0.149 HD
ATOM     36  O   LIG    1       26.858 -28.020   8.783  0.00  0.00    -0.274 OA
BRANCH  34  37
ATOM     37  C   LIG    1       25.028 -30.184   9.101  0.00  0.00    +0.169 C 
BRANCH  37  38
ATOM     38  C   LIG    1       24.806 -29.558  10.533  0.00  0.00    +0.234 C 
ATOM     39  N   LIG    1       25.947 -29.153  11.208  0.00  0.00    -0.302 N 
ATOM     40  H   LIG    1       26.709 -28.850  10.612  0.00  0.00    +0.149 HD
ATOM     41  O   LIG    1       23.702 -29.583  11.076  0.00  0.00    -0.274 OA
BRANCH  39  42
ATOM     42  C   LIG    1       25.964 -28.625  12.600  0.00  0.00    +0.163 C 
BRANCH  42  43
ATOM     43  C   LIG    1       25.968 -29.678  13.739  0.00  0.00    +0.231 C 
ATOM     44  O   LIG    1       26.956 -29.910  14.430  0.00  0.00    -0.274 OA
ATOM     45  N   LIG    1       24.813 -30.375  13.914  0.00  0.00    -0.328 N 
ATOM     46  H   LIG    1       24.734 -31.057  14.652  0.00  0.00    +0.145 HD
ATOM     47  H   LIG    1       24.262 -30.554  13.073  0.00  0.00    +0.145 HD
ENDBRANCH  42  43
BRANCH  42  48
ATOM     48  C   LIG    1       25.092 -27.386  12.941  0.00  0.00    +0.067 C 
BRANCH  48  49
ATOM     49  C   LIG    1       25.754 -26.312  13.767  0.00  0.00    -0.045 C 
ATOM     50  C   LIG    1       27.144 -26.238  13.844  0.00  0.00    +0.003 C 
ATOM     51  C   LIG    1       27.754 -25.107  14.387  0.00  0.00    +0.000 C 
ATOM     52  C   LIG    1       26.984 -24.027  14.813  0.00  0.00    +0.000 C 
ATOM     53  C   LIG    1       25.597 -24.125  14.812  0.00  0.00    +0.000 C 
ATOM     54  C   LIG    1       24.990 -25.296  14.366  0.00  0.00    +0.003 C 
ENDBRANCH  48  49
ENDBRANCH  42  48
ENDBRANCH  39  42
ENDBRANCH  37  38
BRANCH  37  55
ATOM     55  C   LIG    1       26.394 -30.896   9.071  0.00  0.00    +0.152 C 
BRANCH  55  56
ATOM     56  C   LIG    1       26.392 -32.091   8.159  0.00  0.00    +0.307 C 
ATOM     57  O   LIG    1       25.472 -32.891   8.084  0.00  0.00    -0.251 OA
BRANCH  56  58
ATOM     58  O   LIG    1       27.484 -32.162   7.365  0.00  0.00    -0.481 OA
ATOM     59  H   LIG    1       28.169 -31.491   7.554  0.00  0.00    +0.295 HD
ENDBRANCH  56  58
ENDBRANCH  55  56
ENDBRANCH  37  55
ENDBRANCH  34  37
ENDBRANCH   1  33
BRANCH   1  60
ATOM     60  C   LIG    1       26.404 -27.122   5.645  0.00  0.00    +0.042 C 
BRANCH  60  61
ATOM     61  C   LIG    1       25.480 -27.573   4.518  0.00  0.00    +0.071 C 
BRANCH  61  63
ATOM     62  C   LIG    1       25.549 -30.261   4.994  0.00  0.00    +0.084 C 
ATOM     63  S   LIG    1       24.346 -28.905   5.012  0.00  0.00    -0.164 S 
ENDBRANCH  61  63
ENDBRANCH  60  61
ENDBRANCH   1  60
TORSDOF 24
ENDMDL
