MODEL 1
REMARK VINA RESULT:      -7.1      0.000      0.000
REMARK  Name = *****
REMARK                            x       y       z     vdW  Elec       q    Type
REMARK                         _______ _______ _______ _____ _____    ______ ____
ROOT
ATOM      1  C   LIG    1       24.825 -29.285   7.625  0.00  0.00    +0.152 A 
ATOM      2  N   LIG    1       24.739 -29.785   8.912  0.00  0.00    -0.280 N 
ATOM      3  C   LIG    1       25.448 -29.423  10.078  0.00  0.00    +0.059 A 
ATOM      4  C   LIG    1       24.829 -29.467  11.339  0.00  0.00    +0.026 A 
ATOM      5  C   LIG    1       23.353 -29.673  11.508  0.00  0.00    +0.075 C 
ATOM      6  N   LIG    1       22.678 -30.622  10.954  0.00  0.00    -0.275 NA
ATOM      7  C   LIG    1       23.341 -31.540  10.027  0.00  0.00    +0.218 C 
ATOM      8  C   LIG    1       25.587 -29.203  12.492  0.00  0.00    +0.032 A 
ATOM      9  C   LIG    1       26.934 -28.869  12.381  0.00  0.00    +0.042 A 
ATOM     10 CL   LIG    1       27.845 -28.515  13.796  0.00  0.00    -0.084 Cl
ATOM     11  C   LIG    1       27.545 -28.808  11.133  0.00  0.00    +0.022 A 
ATOM     12  C   LIG    1       26.809 -29.092   9.982  0.00  0.00    +0.028 A 
ATOM     13  C   LIG    1       23.808 -30.799   8.831  0.00  0.00    +0.160 A 
ATOM     14  N   LIG    1       23.490 -31.008   7.572  0.00  0.00    -0.132 NA
ATOM     15  N   LIG    1       24.126 -30.060   6.816  0.00  0.00    -0.133 NA
ENDROOT
BRANCH   5  16
ATOM     16  C   LIG    1       22.605 -28.685  12.357  0.00  0.00    +0.001 A 
ATOM     17  C   LIG    1       21.237 -28.862  12.589  0.00  0.00    +0.010 A 
ATOM     18  C   LIG    1       20.537 -27.946  13.379  0.00  0.00    +0.001 A 
ATOM     19  C   LIG    1       21.198 -26.849  13.932  0.00  0.00    +0.000 A 
ATOM     20  C   LIG    1       22.556 -26.656  13.687  0.00  0.00    +0.001 A 
ATOM     21  C   LIG    1       23.257 -27.564  12.892  0.00  0.00    +0.010 A 
ENDBRANCH   5  16
BRANCH   1  22
ATOM     22  C   LIG    1       25.427 -27.971   7.236  0.00  0.00    +0.160 C 
BRANCH  22  24
ATOM     23  C   LIG    1       24.243 -26.233   6.066  0.00  0.00    +0.105 C 
ATOM     24  N   LIG    1       24.985 -27.488   5.908  0.00  0.00    -0.301 NA
ATOM     25  C   LIG    1       26.129 -27.263   5.012  0.00  0.00    +0.105 C 
ENDBRANCH  22  24
ENDBRANCH   1  22
TORSDOF 3
ENDMDL
MODEL 2
REMARK VINA RESULT:      -7.1      6.957     10.034
REMARK  Name = *****
REMARK                            x       y       z     vdW  Elec       q    Type
REMARK                         _______ _______ _______ _____ _____    ______ ____
ROOT
ATOM      1  C   LIG    1       28.327 -20.057   7.155  0.00  0.00    +0.152 A 
ATOM      2  N   LIG    1       27.006 -20.461   7.075  0.00  0.00    -0.280 N 
ATOM      3  C   LIG    1       26.185 -20.665   5.944  0.00  0.00    +0.059 A 
ATOM      4  C   LIG    1       25.207 -21.675   5.938  0.00  0.00    +0.026 A 
ATOM      5  C   LIG    1       25.124 -22.724   7.007  0.00  0.00    +0.075 C 
ATOM      6  N   LIG    1       25.108 -22.481   8.273  0.00  0.00    -0.275 NA
ATOM      7  C   LIG    1       25.258 -21.105   8.750  0.00  0.00    +0.218 C 
ATOM      8  C   LIG    1       24.335 -21.788   4.843  0.00  0.00    +0.032 A 
ATOM      9  C   LIG    1       24.460 -20.924   3.758  0.00  0.00    +0.042 A 
ATOM     10 CL   LIG    1       23.408 -21.092   2.408  0.00  0.00    -0.084 Cl
ATOM     11  C   LIG    1       25.437 -19.934   3.754  0.00  0.00    +0.022 A 
ATOM     12  C   LIG    1       26.294 -19.796   4.847  0.00  0.00    +0.028 A 
ATOM     13  C   LIG    1       26.599 -20.589   8.385  0.00  0.00    +0.160 A 
ATOM     14  N   LIG    1       27.538 -20.134   9.186  0.00  0.00    -0.132 NA
ATOM     15  N   LIG    1       28.621 -19.802   8.417  0.00  0.00    -0.133 NA
ENDROOT
BRANCH   5  16
ATOM     16  C   LIG    1       25.087 -24.161   6.569  0.00  0.00    +0.001 A 
ATOM     17  C   LIG    1       23.857 -24.796   6.370  0.00  0.00    +0.010 A 
ATOM     18  C   LIG    1       23.818 -26.132   5.962  0.00  0.00    +0.001 A 
ATOM     19  C   LIG    1       25.003 -26.839   5.759  0.00  0.00    +0.000 A 
ATOM     20  C   LIG    1       26.232 -26.217   5.976  0.00  0.00    +0.001 A 
ATOM     21  C   LIG    1       26.275 -24.886   6.392  0.00  0.00    +0.010 A 
ENDBRANCH   5  16
BRANCH   1  22
ATOM     22  C   LIG    1       29.325 -20.105   6.041  0.00  0.00    +0.160 C 
BRANCH  22  24
ATOM     23  C   LIG    1       29.187 -17.797   5.370  0.00  0.00    +0.105 C 
ATOM     24  N   LIG    1       30.083 -18.844   5.873  0.00  0.00    -0.301 NA
ATOM     25  C   LIG    1       30.673 -18.402   7.145  0.00  0.00    +0.105 C 
ENDBRANCH  22  24
ENDBRANCH   1  22
TORSDOF 3
ENDMDL
MODEL 3
REMARK VINA RESULT:      -6.9      1.091      1.320
REMARK  Name = *****
REMARK                            x       y       z     vdW  Elec       q    Type
REMARK                         _______ _______ _______ _____ _____    ______ ____
ROOT
ATOM      1  C   LIG    1       24.728 -28.794   6.892  0.00  0.00    +0.152 A 
ATOM      2  N   LIG    1       24.698 -29.642   7.985  0.00  0.00    -0.280 N 
ATOM      3  C   LIG    1       25.313 -29.517   9.250  0.00  0.00    +0.059 A 
ATOM      4  C   LIG    1       24.683 -30.006  10.407  0.00  0.00    +0.026 A 
ATOM      5  C   LIG    1       23.257 -30.473  10.415  0.00  0.00    +0.075 C 
ATOM      6  N   LIG    1       22.759 -31.319   9.580  0.00  0.00    -0.275 NA
ATOM      7  C   LIG    1       23.584 -31.830   8.484  0.00  0.00    +0.218 C 
ATOM      8  C   LIG    1       25.361 -29.963  11.637  0.00  0.00    +0.032 A 
ATOM      9  C   LIG    1       26.637 -29.411  11.711  0.00  0.00    +0.042 A 
ATOM     10 CL   LIG    1       27.447 -29.334  13.226  0.00  0.00    -0.084 Cl
ATOM     11  C   LIG    1       27.257 -28.911  10.570  0.00  0.00    +0.022 A 
ATOM     12  C   LIG    1       26.602 -28.970   9.338  0.00  0.00    +0.028 A 
ATOM     13  C   LIG    1       23.949 -30.721   7.569  0.00  0.00    +0.160 A 
ATOM     14  N   LIG    1       23.696 -30.615   6.282  0.00  0.00    -0.132 NA
ATOM     15  N   LIG    1       24.184 -29.408   5.857  0.00  0.00    -0.133 NA
ENDROOT
BRANCH   5  16
ATOM     16  C   LIG    1       22.338 -29.887  11.450  0.00  0.00    +0.001 A 
ATOM     17  C   LIG    1       21.112 -30.503  11.720  0.00  0.00    +0.010 A 
ATOM     18  C   LIG    1       20.255 -29.963  12.682  0.00  0.00    +0.001 A 
ATOM     19  C   LIG    1       20.616 -28.804  13.371  0.00  0.00    +0.000 A 
ATOM     20  C   LIG    1       21.827 -28.175  13.091  0.00  0.00    +0.001 A 
ATOM     21  C   LIG    1       22.682 -28.707  12.125  0.00  0.00    +0.010 A 
ENDBRANCH   5  16
BRANCH   1  22
ATOM     22  C   LIG    1       25.115 -27.348   6.917  0.00  0.00    +0.160 C 
BRANCH  22  24
ATOM     23  C   LIG    1       24.036 -25.295   6.273  0.00  0.00    +0.105 C 
ATOM     24  N   LIG    1       24.569 -26.571   5.782  0.00  0.00    -0.301 NA
ATOM     25  C   LIG    1       25.602 -26.304   4.770  0.00  0.00    +0.105 C 
ENDBRANCH  22  24
ENDBRANCH   1  22
TORSDOF 3
ENDMDL
MODEL 4
REMARK VINA RESULT:      -6.4      3.263      6.555
REMARK  Name = *****
REMARK                            x       y       z     vdW  Elec       q    Type
REMARK                         _______ _______ _______ _____ _____    ______ ____
ROOT
ATOM      1  C   LIG    1       22.965 -30.591  10.749  0.00  0.00    +0.152 A 
ATOM      2  N   LIG    1       24.089 -30.501   9.948  0.00  0.00    -0.280 N 
ATOM      3  C   LIG    1       24.293 -30.925   8.616  0.00  0.00    +0.059 A 
ATOM      4  C   LIG    1       25.129 -30.198   7.750  0.00  0.00    +0.026 A 
ATOM      5  C   LIG    1       25.664 -28.839   8.095  0.00  0.00    +0.075 C 
ATOM      6  N   LIG    1       26.265 -28.546   9.197  0.00  0.00    -0.275 NA
ATOM      7  C   LIG    1       26.392 -29.558  10.247  0.00  0.00    +0.218 C 
ATOM      8  C   LIG    1       25.398 -30.698   6.465  0.00  0.00    +0.032 A 
ATOM      9  C   LIG    1       24.814 -31.889   6.044  0.00  0.00    +0.042 A 
ATOM     10 CL   LIG    1       25.124 -32.477   4.457  0.00  0.00    -0.084 Cl
ATOM     11  C   LIG    1       23.974 -32.603   6.893  0.00  0.00    +0.022 A 
ATOM     12  C   LIG    1       23.718 -32.128   8.180  0.00  0.00    +0.028 A 
ATOM     13  C   LIG    1       25.048 -29.928  10.755  0.00  0.00    +0.160 A 
ATOM     14  N   LIG    1       24.595 -29.841  11.987  0.00  0.00    -0.132 NA
ATOM     15  N   LIG    1       23.290 -30.255  11.984  0.00  0.00    -0.133 NA
ENDROOT
BRANCH   5  16
ATOM     16  C   LIG    1       25.453 -27.735   7.097  0.00  0.00    +0.001 A 
ATOM     17  C   LIG    1       26.313 -26.632   7.090  0.00  0.00    +0.010 A 
ATOM     18  C   LIG    1       26.122 -25.604   6.163  0.00  0.00    +0.001 A 
ATOM     19  C   LIG    1       25.071 -25.670   5.248  0.00  0.00    +0.000 A 
ATOM     20  C   LIG    1       24.199 -26.757   5.265  0.00  0.00    +0.001 A 
ATOM     21  C   LIG    1       24.381 -27.782   6.194  0.00  0.00    +0.010 A 
ENDBRANCH   5  16
BRANCH   1  22
ATOM     22  C   LIG    1       21.566 -30.821  10.270  0.00  0.00    +0.160 C 
BRANCH  22  24
ATOM     23  C   LIG    1       19.390 -31.734  10.740  0.00  0.00    +0.105 C 
ATOM     24  N   LIG    1       20.812 -31.794  11.092  0.00  0.00    -0.301 NA
ATOM     25  C   LIG    1       21.303 -33.164  10.884  0.00  0.00    +0.105 C 
ENDBRANCH  22  24
ENDBRANCH   1  22
TORSDOF 3
ENDMDL
MODEL 5
REMARK VINA RESULT:      -6.3      2.666      6.448
REMARK  Name = *****
REMARK                            x       y       z     vdW  Elec       q    Type
REMARK                         _______ _______ _______ _____ _____    ______ ____
ROOT
ATOM      1  C   LIG    1       24.055 -28.878  12.498  0.00  0.00    +0.152 A 
ATOM      2  N   LIG    1       24.783 -29.377  11.432  0.00  0.00    -0.280 N 
ATOM      3  C   LIG    1       24.368 -30.171  10.340  0.00  0.00    +0.059 A 
ATOM      4  C   LIG    1       24.956 -30.013   9.073  0.00  0.00    +0.026 A 
ATOM      5  C   LIG    1       25.873 -28.872   8.744  0.00  0.00    +0.075 C 
ATOM      6  N   LIG    1       26.895 -28.527   9.449  0.00  0.00    -0.275 NA
ATOM      7  C   LIG    1       27.176 -29.218  10.708  0.00  0.00    +0.218 C 
ATOM      8  C   LIG    1       24.600 -30.885   8.030  0.00  0.00    +0.032 A 
ATOM      9  C   LIG    1       23.648 -31.878   8.245  0.00  0.00    +0.042 A 
ATOM     10 CL   LIG    1       23.195 -32.920   6.954  0.00  0.00    -0.084 Cl
ATOM     11  C   LIG    1       23.052 -32.026   9.494  0.00  0.00    +0.022 A 
ATOM     12  C   LIG    1       23.416 -31.181  10.544  0.00  0.00    +0.028 A 
ATOM     13  C   LIG    1       26.078 -28.973  11.674  0.00  0.00    +0.160 A 
ATOM     14  N   LIG    1       26.156 -28.427  12.868  0.00  0.00    -0.132 NA
ATOM     15  N   LIG    1       24.889 -28.367  13.385  0.00  0.00    -0.133 NA
ENDROOT
BRANCH   5  16
ATOM     16  C   LIG    1       25.557 -28.056   7.523  0.00  0.00    +0.001 A 
ATOM     17  C   LIG    1       24.585 -28.502   6.621  0.00  0.00    +0.010 A 
ATOM     18  C   LIG    1       24.287 -27.746   5.484  0.00  0.00    +0.001 A 
ATOM     19  C   LIG    1       24.960 -26.549   5.241  0.00  0.00    +0.000 A 
ATOM     20  C   LIG    1       25.944 -26.110   6.125  0.00  0.00    +0.001 A 
ATOM     21  C   LIG    1       26.251 -26.866   7.258  0.00  0.00    +0.010 A 
ENDBRANCH   5  16
BRANCH   1  22
ATOM     22  C   LIG    1       22.566 -28.740  12.550  0.00  0.00    +0.160 C 
BRANCH  22  24
ATOM     23  C   LIG    1       21.421 -26.727  13.204  0.00  0.00    +0.105 C 
ATOM     24  N   LIG    1       22.087 -27.936  13.698  0.00  0.00    -0.301 NA
ATOM     25  C   LIG    1       21.146 -28.699  14.531  0.00  0.00    +0.105 C 
ENDBRANCH  22  24
ENDBRANCH   1  22
TORSDOF 3
ENDMDL
MODEL 6
REMARK VINA RESULT:      -6.1      3.077      6.249
REMARK  Name = *****
REMARK                            x       y       z     vdW  Elec       q    Type
REMARK                         _______ _______ _______ _____ _____    ______ ____
ROOT
ATOM      1  C   LIG    1       26.777 -28.414  12.679  0.00  0.00    +0.152 A 
ATOM      2  N   LIG    1       26.243 -29.326  11.786  0.00  0.00    -0.280 N 
ATOM      3  C   LIG    1       24.898 -29.569  11.427  0.00  0.00    +0.059 A 
ATOM      4  C   LIG    1       24.561 -29.951  10.117  0.00  0.00    +0.026 A 
ATOM      5  C   LIG    1       25.544 -29.907   8.984  0.00  0.00    +0.075 C 
ATOM      6  N   LIG    1       26.721 -30.429   9.015  0.00  0.00    -0.275 NA
ATOM      7  C   LIG    1       27.207 -31.053  10.247  0.00  0.00    +0.218 C 
ATOM      8  C   LIG    1       23.231 -30.287   9.815  0.00  0.00    +0.032 A 
ATOM      9  C   LIG    1       22.250 -30.211  10.800  0.00  0.00    +0.042 A 
ATOM     10 CL   LIG    1       20.619 -30.593  10.412  0.00  0.00    -0.084 Cl
ATOM     11  C   LIG    1       22.578 -29.817  12.093  0.00  0.00    +0.022 A 
ATOM     12  C   LIG    1       23.901 -29.504  12.412  0.00  0.00    +0.028 A 
ATOM     13  C   LIG    1       27.329 -30.032  11.315  0.00  0.00    +0.160 A 
ATOM     14  N   LIG    1       28.404 -29.694  11.995  0.00  0.00    -0.132 NA
ATOM     15  N   LIG    1       28.059 -28.680  12.849  0.00  0.00    -0.133 NA
ENDROOT
BRANCH   5  16
ATOM     16  C   LIG    1       25.135 -29.173   7.738  0.00  0.00    +0.001 A 
ATOM     17  C   LIG    1       24.370 -29.827   6.767  0.00  0.00    +0.010 A 
ATOM     18  C   LIG    1       23.986 -29.149   5.606  0.00  0.00    +0.001 A 
ATOM     19  C   LIG    1       24.371 -27.822   5.409  0.00  0.00    +0.000 A 
ATOM     20  C   LIG    1       25.151 -27.173   6.364  0.00  0.00    +0.001 A 
ATOM     21  C   LIG    1       25.543 -27.849   7.521  0.00  0.00    +0.010 A 
ENDBRANCH   5  16
BRANCH   1  22
ATOM     22  C   LIG    1       26.082 -27.198  13.206  0.00  0.00    +0.160 C 
BRANCH  22  24
ATOM     23  C   LIG    1       27.380 -25.270  13.829  0.00  0.00    +0.105 C 
ATOM     24  N   LIG    1       26.811 -26.533  14.310  0.00  0.00    -0.301 NA
ATOM     25  C   LIG    1       25.923 -26.259  15.449  0.00  0.00    +0.105 C 
ENDBRANCH  22  24
ENDBRANCH   1  22
TORSDOF 3
ENDMDL
MODEL 7
REMARK VINA RESULT:      -6.0      5.783      9.126
REMARK  Name = *****
REMARK                            x       y       z     vdW  Elec       q    Type
REMARK                         _______ _______ _______ _____ _____    ______ ____
ROOT
ATOM      1  C   LIG    1       24.727 -24.895   6.039  0.00  0.00    +0.152 A 
ATOM      2  N   LIG    1       24.601 -23.646   6.619  0.00  0.00    -0.280 N 
ATOM      3  C   LIG    1       25.580 -22.662   6.882  0.00  0.00    +0.059 A 
ATOM      4  C   LIG    1       25.266 -21.294   6.796  0.00  0.00    +0.026 A 
ATOM      5  C   LIG    1       23.975 -20.796   6.214  0.00  0.00    +0.075 C 
ATOM      6  N   LIG    1       22.807 -21.217   6.556  0.00  0.00    -0.275 NA
ATOM      7  C   LIG    1       22.682 -22.311   7.522  0.00  0.00    +0.218 C 
ATOM      8  C   LIG    1       26.227 -20.338   7.164  0.00  0.00    +0.032 A 
ATOM      9  C   LIG    1       27.492 -20.744   7.581  0.00  0.00    +0.042 A 
ATOM     10 CL   LIG    1       28.672 -19.566   7.998  0.00  0.00    -0.084 Cl
ATOM     11  C   LIG    1       27.811 -22.097   7.651  0.00  0.00    +0.022 A 
ATOM     12  C   LIG    1       26.856 -23.057   7.311  0.00  0.00    +0.028 A 
ATOM     13  C   LIG    1       23.269 -23.550   6.957  0.00  0.00    +0.160 A 
ATOM     14  N   LIG    1       22.678 -24.709   6.759  0.00  0.00    -0.132 NA
ATOM     15  N   LIG    1       23.591 -25.552   6.183  0.00  0.00    -0.133 NA
ENDROOT
BRANCH   5  16
ATOM     16  C   LIG    1       24.056 -19.756   5.132  0.00  0.00    +0.001 A 
ATOM     17  C   LIG    1       22.939 -18.965   4.844  0.00  0.00    +0.010 A 
ATOM     18  C   LIG    1       23.010 -17.995   3.840  0.00  0.00    +0.001 A 
ATOM     19  C   LIG    1       24.190 -17.818   3.118  0.00  0.00    +0.000 A 
ATOM     20  C   LIG    1       25.299 -18.618   3.387  0.00  0.00    +0.001 A 
ATOM     21  C   LIG    1       25.231 -19.593   4.383  0.00  0.00    +0.010 A 
ENDBRANCH   5  16
BRANCH   1  22
ATOM     22  C   LIG    1       25.877 -25.357   5.200  0.00  0.00    +0.160 C 
BRANCH  22  24
ATOM     23  C   LIG    1       26.246 -26.777   7.108  0.00  0.00    +0.105 C 
ATOM     24  N   LIG    1       26.476 -26.628   5.668  0.00  0.00    -0.301 NA
ATOM     25  C   LIG    1       25.897 -27.783   4.965  0.00  0.00    +0.105 C 
ENDBRANCH  22  24
ENDBRANCH   1  22
TORSDOF 3
ENDMDL
MODEL 8
REMARK VINA RESULT:      -5.9      3.060      6.183
REMARK  Name = *****
REMARK                            x       y       z     vdW  Elec       q    Type
REMARK                         _______ _______ _______ _____ _____    ______ ____
ROOT
ATOM      1  C   LIG    1       24.268 -30.798  12.470  0.00  0.00    +0.152 A 
ATOM      2  N   LIG    1       25.301 -30.576  11.577  0.00  0.00    -0.280 N 
ATOM      3  C   LIG    1       25.671 -31.294  10.418  0.00  0.00    +0.059 A 
ATOM      4  C   LIG    1       26.207 -30.630   9.301  0.00  0.00    +0.026 A 
ATOM      5  C   LIG    1       26.210 -29.134   9.175  0.00  0.00    +0.075 C 
ATOM      6  N   LIG    1       26.644 -28.324  10.079  0.00  0.00    -0.275 NA
ATOM      7  C   LIG    1       27.104 -28.850  11.365  0.00  0.00    +0.218 C 
ATOM      8  C   LIG    1       26.664 -31.377   8.203  0.00  0.00    +0.032 A 
ATOM      9  C   LIG    1       26.556 -32.766   8.211  0.00  0.00    +0.042 A 
ATOM     10 CL   LIG    1       27.088 -33.670   6.848  0.00  0.00    -0.084 Cl
ATOM     11  C   LIG    1       26.011 -33.425   9.308  0.00  0.00    +0.022 A 
ATOM     12  C   LIG    1       25.576 -32.694  10.415  0.00  0.00    +0.028 A 
ATOM     13  C   LIG    1       25.973 -29.486  12.083  0.00  0.00    +0.160 A 
ATOM     14  N   LIG    1       25.495 -29.184  13.271  0.00  0.00    -0.132 NA
ATOM     15  N   LIG    1       24.426 -30.005  13.514  0.00  0.00    -0.133 NA
ENDROOT
BRANCH   5  16
ATOM     16  C   LIG    1       25.637 -28.541   7.919  0.00  0.00    +0.001 A 
ATOM     17  C   LIG    1       26.143 -27.333   7.428  0.00  0.00    +0.010 A 
ATOM     18  C   LIG    1       25.614 -26.778   6.259  0.00  0.00    +0.001 A 
ATOM     19  C   LIG    1       24.577 -27.422   5.583  0.00  0.00    +0.000 A 
ATOM     20  C   LIG    1       24.056 -28.615   6.080  0.00  0.00    +0.001 A 
ATOM     21  C   LIG    1       24.575 -29.169   7.251  0.00  0.00    +0.010 A 
ENDBRANCH   5  16
BRANCH   1  22
ATOM     22  C   LIG    1       23.056 -31.637  12.214  0.00  0.00    +0.160 C 
BRANCH  22  24
ATOM     23  C   LIG    1       21.867 -32.055  10.163  0.00  0.00    +0.105 C 
ATOM     24  N   LIG    1       22.140 -31.059  11.204  0.00  0.00    -0.301 NA
ATOM     25  C   LIG    1       20.870 -30.637  11.813  0.00  0.00    +0.105 C 
ENDBRANCH  22  24
ENDBRANCH   1  22
TORSDOF 3
ENDMDL
MODEL 9
REMARK VINA RESULT:      -5.8      2.816      4.923
REMARK  Name = *****
REMARK                            x       y       z     vdW  Elec       q    Type
REMARK                         _______ _______ _______ _____ _____    ______ ____
ROOT
ATOM      1  C   LIG    1       24.042 -32.655   8.690  0.00  0.00    +0.152 A 
ATOM      2  N   LIG    1       25.053 -31.711   8.692  0.00  0.00    -0.280 N 
ATOM      3  C   LIG    1       25.055 -30.380   8.219  0.00  0.00    +0.059 A 
ATOM      4  C   LIG    1       25.807 -29.386   8.870  0.00  0.00    +0.026 A 
ATOM      5  C   LIG    1       26.454 -29.609  10.206  0.00  0.00    +0.075 C 
ATOM      6  N   LIG    1       27.212 -30.611  10.494  0.00  0.00    -0.275 NA
ATOM      7  C   LIG    1       27.422 -31.671   9.507  0.00  0.00    +0.218 C 
ATOM      8  C   LIG    1       25.875 -28.096   8.319  0.00  0.00    +0.032 A 
ATOM      9  C   LIG    1       25.178 -27.798   7.152  0.00  0.00    +0.042 A 
ATOM     10 CL   LIG    1       25.241 -26.207   6.502  0.00  0.00    -0.084 Cl
ATOM     11  C   LIG    1       24.420 -28.775   6.513  0.00  0.00    +0.022 A 
ATOM     12  C   LIG    1       24.364 -30.067   7.039  0.00  0.00    +0.028 A 
ATOM     13  C   LIG    1       26.140 -32.364   9.231  0.00  0.00    +0.160 A 
ATOM     14  N   LIG    1       25.860 -33.641   9.380  0.00  0.00    -0.132 NA
ATOM     15  N   LIG    1       24.546 -33.824   9.041  0.00  0.00    -0.133 NA
ENDROOT
BRANCH   5  16
ATOM     16  C   LIG    1       26.173 -28.608  11.290  0.00  0.00    +0.001 A 
ATOM     17  C   LIG    1       25.005 -28.718  12.052  0.00  0.00    +0.010 A 
ATOM     18  C   LIG    1       24.739 -27.790  13.062  0.00  0.00    +0.001 A 
ATOM     19  C   LIG    1       25.633 -26.748  13.311  0.00  0.00    +0.000 A 
ATOM     20  C   LIG    1       26.788 -26.622  12.541  0.00  0.00    +0.001 A 
ATOM     21  C   LIG    1       27.053 -27.541  11.526  0.00  0.00    +0.010 A 
ENDBRANCH   5  16
BRANCH   1  22
ATOM     22  C   LIG    1       22.582 -32.371   8.528  0.00  0.00    +0.160 C 
BRANCH  22  24
ATOM     23  C   LIG    1       21.348 -31.316  10.305  0.00  0.00    +0.105 C 
ATOM     24  N   LIG    1       21.794 -32.603   9.760  0.00  0.00    -0.301 NA
ATOM     25  C   LIG    1       20.620 -33.447   9.495  0.00  0.00    +0.105 C 
ENDBRANCH  22  24
ENDBRANCH   1  22
TORSDOF 3
ENDMDL
