MODEL 1
REMARK VINA RESULT:      -7.2      0.000      0.000
REMARK  Name = *****
REMARK                            x       y       z     vdW  Elec       q    Type
REMARK                         _______ _______ _______ _____ _____    ______ ____
ROOT
ATOM      1  C   LIG    1       23.978 -22.047   2.857  0.00  0.00    +0.045 C 
ATOM      2  C   LIG    1       24.415 -21.909   4.278  0.00  0.00    -0.038 C 
ATOM      3  C   LIG    1       24.780 -23.063   5.114  0.00  0.00    -0.014 C 
ATOM      4  C   LIG    1       24.684 -24.340   4.706  0.00  0.00    +0.016 C 
ATOM      5  C   LIG    1       25.185 -22.533   6.427  0.00  0.00    -0.010 A 
ATOM      6  C   LIG    1       24.988 -21.140   6.354  0.00  0.00    -0.011 A 
ATOM      7  C   LIG    1       25.254 -20.328   7.448  0.00  0.00    +0.047 A 
ATOM      8  C   LIG    1       25.758 -20.927   8.600  0.00  0.00    +0.124 A 
ATOM      9  C   LIG    1       25.981 -22.304   8.673  0.00  0.00    +0.039 A 
ATOM     10  F   LIG    1       26.049 -20.163   9.663  0.00  0.00    -0.205 F 
ATOM     11  C   LIG    1       25.685 -23.122   7.581  0.00  0.00    +0.012 A 
ATOM     12  C   LIG    1       24.501 -20.777   5.011  0.00  0.00    -0.025 C 
ENDROOT
BRANCH   4  13
ATOM     13  C   LIG    1       24.967 -25.534   5.497  0.00  0.00    -0.024 A 
ATOM     14  C   LIG    1       26.228 -25.711   6.073  0.00  0.00    +0.009 A 
ATOM     15  C   LIG    1       26.492 -26.846   6.841  0.00  0.00    +0.017 A 
ATOM     16  C   LIG    1       25.500 -27.815   7.036  0.00  0.00    +0.039 A 
ATOM     17  C   LIG    1       24.239 -27.635   6.458  0.00  0.00    +0.017 A 
ATOM     18  C   LIG    1       23.972 -26.498   5.691  0.00  0.00    +0.009 A 
BRANCH  16  19
ATOM     19  S   LIG    1       25.820 -29.268   8.062  0.00  0.00    +0.051 S 
ATOM     20  O   LIG    1       24.473 -29.736   8.530  0.00  0.00    -0.252 OA
ATOM     21  C   LIG    1       26.591 -28.405   9.456  0.00  0.00    +0.127 C 
ENDBRANCH  16  19
ENDBRANCH   4  13
BRANCH  12  22
ATOM     22  C   LIG    1       24.156 -19.381   4.608  0.00  0.00    +0.156 C 
BRANCH  22  23
ATOM     23  C   LIG    1       22.671 -19.048   4.665  0.00  0.00    +0.309 C 
ATOM     24  O   LIG    1       21.814 -19.919   4.787  0.00  0.00    -0.251 OA
BRANCH  23  25
ATOM     25  O   LIG    1       22.325 -17.747   4.569  0.00  0.00    -0.480 OA
ATOM     26  H   LIG    1       21.916 -17.485   3.721  0.00  0.00    +0.295 HD
ENDBRANCH  23  25
ENDBRANCH  22  23
ENDBRANCH  12  22
TORSDOF 5
ENDMDL
MODEL 2
REMARK VINA RESULT:      -6.9      4.503      5.550
REMARK  Name = *****
REMARK                            x       y       z     vdW  Elec       q    Type
REMARK                         _______ _______ _______ _____ _____    ______ ____
ROOT
ATOM      1  C   LIG    1       25.635 -18.180   3.108  0.00  0.00    +0.045 C 
ATOM      2  C   LIG    1       25.174 -19.165   4.131  0.00  0.00    -0.038 C 
ATOM      3  C   LIG    1       26.061 -19.702   5.175  0.00  0.00    -0.014 C 
ATOM      4  C   LIG    1       27.371 -19.415   5.260  0.00  0.00    +0.016 C 
ATOM      5  C   LIG    1       25.249 -20.607   6.006  0.00  0.00    -0.010 A 
ATOM      6  C   LIG    1       23.973 -20.633   5.409  0.00  0.00    -0.011 A 
ATOM      7  C   LIG    1       22.960 -21.422   5.935  0.00  0.00    +0.047 A 
ATOM      8  C   LIG    1       23.232 -22.150   7.091  0.00  0.00    +0.124 A 
ATOM      9  C   LIG    1       24.485 -22.110   7.705  0.00  0.00    +0.039 A 
ATOM     10  F   LIG    1       22.263 -22.899   7.637  0.00  0.00    -0.205 F 
ATOM     11  C   LIG    1       25.512 -21.340   7.156  0.00  0.00    +0.012 A 
ATOM     12  C   LIG    1       23.954 -19.735   4.240  0.00  0.00    -0.025 C 
ENDROOT
BRANCH   4  13
ATOM     13  C   LIG    1       28.323 -19.957   6.226  0.00  0.00    -0.024 A 
ATOM     14  C   LIG    1       29.379 -19.166   6.689  0.00  0.00    +0.009 A 
ATOM     15  C   LIG    1       30.280 -19.680   7.623  0.00  0.00    +0.017 A 
ATOM     16  C   LIG    1       30.135 -20.988   8.100  0.00  0.00    +0.039 A 
ATOM     17  C   LIG    1       29.076 -21.777   7.636  0.00  0.00    +0.017 A 
ATOM     18  C   LIG    1       28.172 -21.263   6.702  0.00  0.00    +0.009 A 
BRANCH  16  19
ATOM     19  S   LIG    1       31.271 -21.648   9.340  0.00  0.00    +0.051 S 
ATOM     20  O   LIG    1       32.402 -20.666   9.416  0.00  0.00    -0.252 OA
ATOM     21  C   LIG    1       31.867 -23.066   8.381  0.00  0.00    +0.127 C 
ENDBRANCH  16  19
ENDBRANCH   4  13
BRANCH  12  22
ATOM     22  C   LIG    1       22.763 -19.556   3.357  0.00  0.00    +0.156 C 
BRANCH  22  23
ATOM     23  C   LIG    1       21.752 -18.528   3.847  0.00  0.00    +0.309 C 
ATOM     24  O   LIG    1       20.577 -18.551   3.491  0.00  0.00    -0.251 OA
BRANCH  23  25
ATOM     25  O   LIG    1       22.199 -17.576   4.692  0.00  0.00    -0.480 OA
ATOM     26  H   LIG    1       21.952 -17.698   5.629  0.00  0.00    +0.295 HD
ENDBRANCH  23  25
ENDBRANCH  22  23
ENDBRANCH  12  22
TORSDOF 5
ENDMDL
MODEL 3
REMARK VINA RESULT:      -6.8      7.209      8.512
REMARK  Name = *****
REMARK                            x       y       z     vdW  Elec       q    Type
REMARK                         _______ _______ _______ _____ _____    ______ ____
ROOT
ATOM      1  C   LIG    1       27.831 -25.584  13.995  0.00  0.00    +0.045 C 
ATOM      2  C   LIG    1       26.428 -26.064  13.821  0.00  0.00    -0.038 C 
ATOM      3  C   LIG    1       26.061 -27.122  12.866  0.00  0.00    -0.014 C 
ATOM      4  C   LIG    1       26.932 -27.696  12.019  0.00  0.00    +0.016 C 
ATOM      5  C   LIG    1       24.612 -27.342  13.003  0.00  0.00    -0.010 A 
ATOM      6  C   LIG    1       24.168 -26.395  13.948  0.00  0.00    -0.011 A 
ATOM      7  C   LIG    1       22.827 -26.314  14.295  0.00  0.00    +0.047 A 
ATOM      8  C   LIG    1       21.945 -27.221  13.713  0.00  0.00    +0.124 A 
ATOM      9  C   LIG    1       22.379 -28.180  12.795  0.00  0.00    +0.039 A 
ATOM     10  F   LIG    1       20.648 -27.183  14.050  0.00  0.00    -0.205 F 
ATOM     11  C   LIG    1       23.724 -28.239  12.425  0.00  0.00    +0.012 A 
ATOM     12  C   LIG    1       25.314 -25.607  14.436  0.00  0.00    -0.025 C 
ENDROOT
BRANCH   4  13
ATOM     13  C   LIG    1       26.631 -28.702  11.005  0.00  0.00    -0.024 A 
ATOM     14  C   LIG    1       26.400 -28.316   9.681  0.00  0.00    +0.009 A 
ATOM     15  C   LIG    1       26.126 -29.282   8.711  0.00  0.00    +0.017 A 
ATOM     16  C   LIG    1       26.077 -30.638   9.055  0.00  0.00    +0.039 A 
ATOM     17  C   LIG    1       26.309 -31.020  10.380  0.00  0.00    +0.017 A 
ATOM     18  C   LIG    1       26.586 -30.056  11.353  0.00  0.00    +0.009 A 
BRANCH  16  19
ATOM     19  S   LIG    1       25.763 -31.897   7.797  0.00  0.00    +0.051 S 
ATOM     20  O   LIG    1       27.096 -32.180   7.168  0.00  0.00    -0.252 OA
ATOM     21  C   LIG    1       24.844 -30.849   6.639  0.00  0.00    +0.127 C 
ENDBRANCH  16  19
ENDBRANCH   4  13
BRANCH  12  22
ATOM     22  C   LIG    1       25.189 -24.491  15.421  0.00  0.00    +0.156 C 
BRANCH  22  23
ATOM     23  C   LIG    1       25.793 -23.168  14.968  0.00  0.00    +0.309 C 
ATOM     24  O   LIG    1       26.797 -22.698  15.497  0.00  0.00    -0.251 OA
BRANCH  23  25
ATOM     25  O   LIG    1       25.175 -22.519  13.959  0.00  0.00    -0.480 OA
ATOM     26  H   LIG    1       25.261 -21.546  13.974  0.00  0.00    +0.295 HD
ENDBRANCH  23  25
ENDBRANCH  22  23
ENDBRANCH  12  22
TORSDOF 5
ENDMDL
MODEL 4
REMARK VINA RESULT:      -6.8      5.172      7.527
REMARK  Name = *****
REMARK                            x       y       z     vdW  Elec       q    Type
REMARK                         _______ _______ _______ _____ _____    ______ ____
ROOT
ATOM      1  C   LIG    1       25.889 -23.174   7.312  0.00  0.00    +0.045 C 
ATOM      2  C   LIG    1       26.114 -21.936   6.507  0.00  0.00    -0.038 C 
ATOM      3  C   LIG    1       27.222 -21.005   6.772  0.00  0.00    -0.014 C 
ATOM      4  C   LIG    1       28.080 -21.140   7.797  0.00  0.00    +0.016 C 
ATOM      5  C   LIG    1       27.136 -19.936   5.763  0.00  0.00    -0.010 A 
ATOM      6  C   LIG    1       25.983 -20.218   5.003  0.00  0.00    -0.011 A 
ATOM      7  C   LIG    1       25.593 -19.379   3.969  0.00  0.00    +0.047 A 
ATOM      8  C   LIG    1       26.397 -18.278   3.681  0.00  0.00    +0.124 A 
ATOM      9  C   LIG    1       27.556 -18.005   4.411  0.00  0.00    +0.039 A 
ATOM     10  F   LIG    1       26.058 -17.466   2.669  0.00  0.00    -0.205 F 
ATOM     11  C   LIG    1       27.929 -18.834   5.470  0.00  0.00    +0.012 A 
ATOM     12  C   LIG    1       25.360 -21.462   5.490  0.00  0.00    -0.025 C 
ENDROOT
BRANCH   4  13
ATOM     13  C   LIG    1       29.160 -20.226   8.159  0.00  0.00    -0.024 A 
ATOM     14  C   LIG    1       28.875 -19.036   8.834  0.00  0.00    +0.009 A 
ATOM     15  C   LIG    1       29.910 -18.170   9.191  0.00  0.00    +0.017 A 
ATOM     16  C   LIG    1       31.237 -18.485   8.874  0.00  0.00    +0.039 A 
ATOM     17  C   LIG    1       31.519 -19.678   8.200  0.00  0.00    +0.017 A 
ATOM     18  C   LIG    1       30.484 -20.547   7.843  0.00  0.00    +0.009 A 
BRANCH  16  19
ATOM     19  S   LIG    1       32.588 -17.392   9.369  0.00  0.00    +0.051 S 
ATOM     20  O   LIG    1       32.812 -17.661  10.828  0.00  0.00    -0.252 OA
ATOM     21  C   LIG    1       31.677 -15.829   9.255  0.00  0.00    +0.127 C 
ENDBRANCH  16  19
ENDBRANCH   4  13
BRANCH  12  22
ATOM     22  C   LIG    1       24.097 -22.027   4.928  0.00  0.00    +0.156 C 
BRANCH  22  23
ATOM     23  C   LIG    1       22.828 -21.297   5.348  0.00  0.00    +0.309 C 
ATOM     24  O   LIG    1       22.857 -20.313   6.080  0.00  0.00    -0.251 OA
BRANCH  23  25
ATOM     25  O   LIG    1       21.655 -21.782   4.886  0.00  0.00    -0.480 OA
ATOM     26  H   LIG    1       20.955 -21.891   5.559  0.00  0.00    +0.295 HD
ENDBRANCH  23  25
ENDBRANCH  22  23
ENDBRANCH  12  22
TORSDOF 5
ENDMDL
MODEL 5
REMARK VINA RESULT:      -6.7      4.315      8.166
REMARK  Name = *****
REMARK                            x       y       z     vdW  Elec       q    Type
REMARK                         _______ _______ _______ _____ _____    ______ ____
ROOT
ATOM      1  C   LIG    1       21.565 -21.805   4.992  0.00  0.00    +0.045 C 
ATOM      2  C   LIG    1       22.962 -21.661   5.501  0.00  0.00    -0.038 C 
ATOM      3  C   LIG    1       23.793 -20.479   5.222  0.00  0.00    -0.014 C 
ATOM      4  C   LIG    1       23.404 -19.465   4.430  0.00  0.00    +0.016 C 
ATOM      5  C   LIG    1       25.078 -20.684   5.911  0.00  0.00    -0.010 A 
ATOM      6  C   LIG    1       24.998 -21.963   6.496  0.00  0.00    -0.011 A 
ATOM      7  C   LIG    1       26.068 -22.484   7.210  0.00  0.00    +0.047 A 
ATOM      8  C   LIG    1       27.201 -21.688   7.364  0.00  0.00    +0.124 A 
ATOM      9  C   LIG    1       27.280 -20.409   6.810  0.00  0.00    +0.039 A 
ATOM     10  F   LIG    1       28.240 -22.155   8.072  0.00  0.00    -0.205 F 
ATOM     11  C   LIG    1       26.213 -19.900   6.066  0.00  0.00    +0.012 A 
ATOM     12  C   LIG    1       23.676 -22.554   6.221  0.00  0.00    -0.025 C 
ENDROOT
BRANCH   4  13
ATOM     13  C   LIG    1       24.194 -18.295   4.058  0.00  0.00    -0.024 A 
ATOM     14  C   LIG    1       25.471 -18.456   3.512  0.00  0.00    +0.009 A 
ATOM     15  C   LIG    1       26.219 -17.336   3.144  0.00  0.00    +0.017 A 
ATOM     16  C   LIG    1       25.700 -16.048   3.322  0.00  0.00    +0.039 A 
ATOM     17  C   LIG    1       24.422 -15.890   3.868  0.00  0.00    +0.017 A 
ATOM     18  C   LIG    1       23.670 -17.010   4.235  0.00  0.00    +0.009 A 
BRANCH  16  19
ATOM     19  S   LIG    1       26.645 -14.595   2.811  0.00  0.00    +0.051 S 
ATOM     20  O   LIG    1       27.174 -13.990   4.078  0.00  0.00    -0.252 OA
ATOM     21  C   LIG    1       25.241 -13.576   2.287  0.00  0.00    +0.127 C 
ENDBRANCH  16  19
ENDBRANCH   4  13
BRANCH  12  22
ATOM     22  C   LIG    1       23.274 -23.921   6.667  0.00  0.00    +0.156 C 
BRANCH  22  23
ATOM     23  C   LIG    1       24.028 -25.061   5.994  0.00  0.00    +0.309 C 
ATOM     24  O   LIG    1       24.139 -26.166   6.519  0.00  0.00    -0.251 OA
BRANCH  23  25
ATOM     25  O   LIG    1       24.584 -24.809   4.790  0.00  0.00    -0.480 OA
ATOM     26  H   LIG    1       24.175 -24.079   4.286  0.00  0.00    +0.295 HD
ENDBRANCH  23  25
ENDBRANCH  22  23
ENDBRANCH  12  22
TORSDOF 5
ENDMDL
MODEL 6
REMARK VINA RESULT:      -6.6      6.163      9.078
REMARK  Name = *****
REMARK                            x       y       z     vdW  Elec       q    Type
REMARK                         _______ _______ _______ _____ _____    ______ ____
ROOT
ATOM      1  C   LIG    1       25.034 -33.348   8.323  0.00  0.00    +0.045 C 
ATOM      2  C   LIG    1       25.098 -31.953   7.793  0.00  0.00    -0.038 C 
ATOM      3  C   LIG    1       25.362 -30.788   8.651  0.00  0.00    -0.014 C 
ATOM      4  C   LIG    1       25.494 -30.860   9.987  0.00  0.00    +0.016 C 
ATOM      5  C   LIG    1       25.382 -29.604   7.776  0.00  0.00    -0.010 A 
ATOM      6  C   LIG    1       25.071 -30.077   6.485  0.00  0.00    -0.011 A 
ATOM      7  C   LIG    1       24.982 -29.202   5.412  0.00  0.00    +0.047 A 
ATOM      8  C   LIG    1       25.249 -27.855   5.642  0.00  0.00    +0.124 A 
ATOM      9  C   LIG    1       25.583 -27.380   6.912  0.00  0.00    +0.039 A 
ATOM     10  F   LIG    1       25.196 -26.992   4.617  0.00  0.00    -0.205 F 
ATOM     11  C   LIG    1       25.642 -28.258   7.996  0.00  0.00    +0.012 A 
ATOM     12  C   LIG    1       24.891 -31.540   6.523  0.00  0.00    -0.025 C 
ENDROOT
BRANCH   4  13
ATOM     13  C   LIG    1       25.693 -29.744  10.907  0.00  0.00    -0.024 A 
ATOM     14  C   LIG    1       26.938 -29.111  10.982  0.00  0.00    +0.009 A 
ATOM     15  C   LIG    1       27.122 -28.035  11.852  0.00  0.00    +0.017 A 
ATOM     16  C   LIG    1       26.067 -27.585  12.655  0.00  0.00    +0.039 A 
ATOM     17  C   LIG    1       24.823 -28.219  12.576  0.00  0.00    +0.017 A 
ATOM     18  C   LIG    1       24.636 -29.296  11.704  0.00  0.00    +0.009 A 
BRANCH  16  19
ATOM     19  S   LIG    1       26.285 -26.166  13.753  0.00  0.00    +0.051 S 
ATOM     20  O   LIG    1       26.814 -25.062  12.887  0.00  0.00    -0.252 OA
ATOM     21  C   LIG    1       27.690 -26.814  14.697  0.00  0.00    +0.127 C 
ENDBRANCH  16  19
ENDBRANCH   4  13
BRANCH  12  22
ATOM     22  C   LIG    1       24.517 -32.356   5.330  0.00  0.00    +0.156 C 
BRANCH  22  23
ATOM     23  C   LIG    1       25.646 -32.586   4.333  0.00  0.00    +0.309 C 
ATOM     24  O   LIG    1       26.767 -32.936   4.691  0.00  0.00    -0.251 OA
BRANCH  23  25
ATOM     25  O   LIG    1       25.370 -32.381   3.028  0.00  0.00    -0.480 OA
ATOM     26  H   LIG    1       24.758 -33.027   2.624  0.00  0.00    +0.295 HD
ENDBRANCH  23  25
ENDBRANCH  22  23
ENDBRANCH  12  22
TORSDOF 5
ENDMDL
MODEL 7
REMARK VINA RESULT:      -6.4      7.630      8.978
REMARK  Name = *****
REMARK                            x       y       z     vdW  Elec       q    Type
REMARK                         _______ _______ _______ _____ _____    ______ ____
ROOT
ATOM      1  C   LIG    1       26.775 -27.956  12.138  0.00  0.00    +0.045 C 
ATOM      2  C   LIG    1       25.467 -28.614  11.839  0.00  0.00    -0.038 C 
ATOM      3  C   LIG    1       25.240 -29.419  10.629  0.00  0.00    -0.014 C 
ATOM      4  C   LIG    1       26.153 -29.575   9.655  0.00  0.00    +0.016 C 
ATOM      5  C   LIG    1       23.859 -29.925  10.701  0.00  0.00    -0.010 A 
ATOM      6  C   LIG    1       23.308 -29.366  11.872  0.00  0.00    -0.011 A 
ATOM      7  C   LIG    1       21.992 -29.624  12.229  0.00  0.00    +0.047 A 
ATOM      8  C   LIG    1       21.251 -30.482  11.419  0.00  0.00    +0.124 A 
ATOM      9  C   LIG    1       21.796 -31.060  10.271  0.00  0.00    +0.039 A 
ATOM     10  F   LIG    1       19.985 -30.770  11.755  0.00  0.00    -0.205 F 
ATOM     11  C   LIG    1       23.111 -30.775   9.898  0.00  0.00    +0.012 A 
ATOM     12  C   LIG    1       24.325 -28.549  12.558  0.00  0.00    -0.025 C 
ENDROOT
BRANCH   4  13
ATOM     13  C   LIG    1       25.978 -30.304   8.402  0.00  0.00    -0.024 A 
ATOM     14  C   LIG    1       25.299 -29.711   7.335  0.00  0.00    +0.009 A 
ATOM     15  C   LIG    1       25.145 -30.404   6.133  0.00  0.00    +0.017 A 
ATOM     16  C   LIG    1       25.665 -31.696   5.990  0.00  0.00    +0.039 A 
ATOM     17  C   LIG    1       26.345 -32.287   7.060  0.00  0.00    +0.017 A 
ATOM     18  C   LIG    1       26.502 -31.593   8.263  0.00  0.00    +0.009 A 
BRANCH  16  19
ATOM     19  S   LIG    1       25.507 -32.585   4.424  0.00  0.00    +0.051 S 
ATOM     20  O   LIG    1       24.380 -33.556   4.623  0.00  0.00    -0.252 OA
ATOM     21  C   LIG    1       27.046 -33.534   4.537  0.00  0.00    +0.127 C 
ENDBRANCH  16  19
ENDBRANCH   4  13
BRANCH  12  22
ATOM     22  C   LIG    1       24.059 -27.785  13.813  0.00  0.00    +0.156 C 
BRANCH  22  23
ATOM     23  C   LIG    1       23.596 -26.350  13.602  0.00  0.00    +0.309 C 
ATOM     24  O   LIG    1       24.336 -25.391  13.803  0.00  0.00    -0.251 OA
BRANCH  23  25
ATOM     25  O   LIG    1       22.324 -26.165  13.190  0.00  0.00    -0.480 OA
ATOM     26  H   LIG    1       22.171 -25.365  12.650  0.00  0.00    +0.295 HD
ENDBRANCH  23  25
ENDBRANCH  22  23
ENDBRANCH  12  22
TORSDOF 5
ENDMDL
MODEL 8
REMARK VINA RESULT:      -6.2      8.059      8.882
REMARK  Name = *****
REMARK                            x       y       z     vdW  Elec       q    Type
REMARK                         _______ _______ _______ _____ _____    ______ ____
ROOT
ATOM      1  C   LIG    1       20.846 -30.567  11.295  0.00  0.00    +0.045 C 
ATOM      2  C   LIG    1       22.261 -30.089  11.314  0.00  0.00    -0.038 C 
ATOM      3  C   LIG    1       23.274 -30.566  10.360  0.00  0.00    -0.014 C 
ATOM      4  C   LIG    1       23.043 -31.518   9.441  0.00  0.00    +0.016 C 
ATOM      5  C   LIG    1       24.525 -29.852  10.667  0.00  0.00    -0.010 A 
ATOM      6  C   LIG    1       24.244 -29.057  11.797  0.00  0.00    -0.011 A 
ATOM      7  C   LIG    1       25.229 -28.265  12.369  0.00  0.00    +0.047 A 
ATOM      8  C   LIG    1       26.486 -28.249  11.769  0.00  0.00    +0.124 A 
ATOM      9  C   LIG    1       26.767 -29.013  10.635  0.00  0.00    +0.039 A 
ATOM     10  F   LIG    1       27.449 -27.472  12.285  0.00  0.00    -0.205 F 
ATOM     11  C   LIG    1       25.782 -29.833  10.079  0.00  0.00    +0.012 A 
ATOM     12  C   LIG    1       22.832 -29.228  12.185  0.00  0.00    -0.025 C 
ENDROOT
BRANCH   4  13
ATOM     13  C   LIG    1       24.012 -32.084   8.506  0.00  0.00    -0.024 A 
ATOM     14  C   LIG    1       24.147 -31.543   7.224  0.00  0.00    +0.009 A 
ATOM     15  C   LIG    1       25.084 -32.076   6.337  0.00  0.00    +0.017 A 
ATOM     16  C   LIG    1       25.889 -33.155   6.721  0.00  0.00    +0.039 A 
ATOM     17  C   LIG    1       25.752 -33.693   8.005  0.00  0.00    +0.017 A 
ATOM     18  C   LIG    1       24.816 -33.159   8.895  0.00  0.00    +0.009 A 
BRANCH  16  19
ATOM     19  S   LIG    1       27.133 -33.825   5.594  0.00  0.00    +0.051 S 
ATOM     20  O   LIG    1       28.427 -33.175   5.988  0.00  0.00    -0.252 OA
ATOM     21  C   LIG    1       26.561 -32.990   4.091  0.00  0.00    +0.127 C 
ENDBRANCH  16  19
ENDBRANCH   4  13
BRANCH  12  22
ATOM     22  C   LIG    1       22.214 -28.555  13.366  0.00  0.00    +0.156 C 
BRANCH  22  23
ATOM     23  C   LIG    1       21.650 -27.168  13.089  0.00  0.00    +0.309 C 
ATOM     24  O   LIG    1       22.325 -26.152  13.234  0.00  0.00    -0.251 OA
BRANCH  23  25
ATOM     25  O   LIG    1       20.366 -27.092  12.682  0.00  0.00    -0.480 OA
ATOM     26  H   LIG    1       19.701 -27.367  13.342  0.00  0.00    +0.295 HD
ENDBRANCH  23  25
ENDBRANCH  22  23
ENDBRANCH  12  22
TORSDOF 5
ENDMDL
MODEL 9
REMARK VINA RESULT:      -6.0      8.250      9.724
REMARK  Name = *****
REMARK                            x       y       z     vdW  Elec       q    Type
REMARK                         _______ _______ _______ _____ _____    ______ ____
ROOT
ATOM      1  C   LIG    1       18.514 -30.093  13.457  0.00  0.00    +0.045 C 
ATOM      2  C   LIG    1       19.732 -29.239  13.591  0.00  0.00    -0.038 C 
ATOM      3  C   LIG    1       20.984 -29.521  12.871  0.00  0.00    -0.014 C 
ATOM      4  C   LIG    1       21.169 -30.601  12.093  0.00  0.00    +0.016 C 
ATOM      5  C   LIG    1       21.934 -28.454  13.227  0.00  0.00    -0.010 A 
ATOM      6  C   LIG    1       21.266 -27.643  14.166  0.00  0.00    -0.011 A 
ATOM      7  C   LIG    1       21.898 -26.546  14.732  0.00  0.00    +0.047 A 
ATOM      8  C   LIG    1       23.193 -26.248  14.313  0.00  0.00    +0.124 A 
ATOM      9  C   LIG    1       23.854 -27.031  13.364  0.00  0.00    +0.039 A 
ATOM     10  F   LIG    1       23.817 -25.178  14.824  0.00  0.00    -0.205 F 
ATOM     11  C   LIG    1       23.227 -28.152  12.819  0.00  0.00    +0.012 A 
ATOM     12  C   LIG    1       19.901 -28.157  14.382  0.00  0.00    -0.025 C 
ENDROOT
BRANCH   4  13
ATOM     13  C   LIG    1       22.399 -30.978  11.401  0.00  0.00    -0.024 A 
ATOM     14  C   LIG    1       23.330 -31.810  12.029  0.00  0.00    +0.009 A 
ATOM     15  C   LIG    1       24.498 -32.180  11.359  0.00  0.00    +0.017 A 
ATOM     16  C   LIG    1       24.746 -31.720  10.061  0.00  0.00    +0.039 A 
ATOM     17  C   LIG    1       23.811 -30.889   9.435  0.00  0.00    +0.017 A 
ATOM     18  C   LIG    1       22.640 -30.519  10.102  0.00  0.00    +0.009 A 
BRANCH  16  19
ATOM     19  S   LIG    1       26.234 -32.228   9.171  0.00  0.00    +0.051 S 
ATOM     20  O   LIG    1       27.353 -31.422   9.763  0.00  0.00    -0.252 OA
ATOM     21  C   LIG    1       25.825 -31.470   7.577  0.00  0.00    +0.127 C 
ENDBRANCH  16  19
ENDBRANCH   4  13
BRANCH  12  22
ATOM     22  C   LIG    1       18.935 -27.551  15.346  0.00  0.00    +0.156 C 
BRANCH  22  23
ATOM     23  C   LIG    1       17.800 -26.763  14.704  0.00  0.00    +0.309 C 
ATOM     24  O   LIG    1       16.636 -27.151  14.745  0.00  0.00    -0.251 OA
BRANCH  23  25
ATOM     25  O   LIG    1       18.124 -25.614  14.074  0.00  0.00    -0.480 OA
ATOM     26  H   LIG    1       17.398 -24.967  13.985  0.00  0.00    +0.295 HD
ENDBRANCH  23  25
ENDBRANCH  22  23
ENDBRANCH  12  22
TORSDOF 5
ENDMDL
