MODEL 1
REMARK VINA RESULT:      -7.5      0.000      0.000
REMARK  Name = *****
REMARK                            x       y       z     vdW  Elec       q    Type
REMARK                         _______ _______ _______ _____ _____    ______ ____
ROOT
ATOM      1  C   LIG    1       28.049 -20.575   7.312  0.00  0.00    +0.164 C 
ENDROOT
BRANCH   1   2
ATOM      2  C   LIG    1       26.546 -20.440   7.694  0.00  0.00    +0.160 C 
BRANCH   2   7
ATOM      3  C   LIG    1       24.260 -23.758   6.726  0.00  0.00    +0.123 C 
ATOM      4  N   LIG    1       23.651 -22.669   6.959  0.00  0.00    -0.178 NA
ATOM      5  C   LIG    1       24.348 -21.596   7.431  0.00  0.00    +0.350 C 
ATOM      6  O   LIG    1       23.729 -20.576   7.789  0.00  0.00    -0.244 OA
ATOM      7  N   LIG    1       25.752 -21.648   7.425  0.00  0.00    -0.296 N 
ATOM      8  C   LIG    1       26.411 -22.856   7.214  0.00  0.00    +0.094 C 
ATOM      9  C   LIG    1       25.729 -23.955   6.936  0.00  0.00    +0.061 C 
BRANCH   3  10
ATOM     10  N   LIG    1       23.530 -24.833   6.262  0.00  0.00    -0.343 N 
ATOM     11  H   LIG    1       23.438 -25.528   6.998  0.00  0.00    +0.144 HD
ATOM     12  H   LIG    1       22.647 -24.630   5.808  0.00  0.00    +0.144 HD
ENDBRANCH   3  10
ENDBRANCH   2   7
ENDBRANCH   1   2
BRANCH   1  13
ATOM     13  O   LIG    1       28.852 -20.085   8.415  0.00  0.00    -0.360 OA
BRANCH  13  14
ATOM     14  C   LIG    1       29.589 -18.847   8.228  0.00  0.00    +0.286 C 
BRANCH  14  15
ATOM     15  P   LIG    1       31.369 -19.076   8.233  0.00  0.00    +0.353 P 
ATOM     16  O   LIG    1       31.970 -19.818   9.382  0.00  0.00    -0.256 OA
BRANCH  15  17
ATOM     17  O   LIG    1       32.139 -17.685   8.075  0.00  0.00    -0.323 OA
ATOM     18  H   LIG    1       32.180 -17.269   8.960  0.00  0.00    +0.220 HD
ENDBRANCH  15  17
BRANCH  15  19
ATOM     19  O   LIG    1       31.747 -19.718   6.809  0.00  0.00    -0.323 OA
ATOM     20  H   LIG    1       31.261 -19.319   6.056  0.00  0.00    +0.220 HD
ENDBRANCH  15  19
ENDBRANCH  14  15
ENDBRANCH  13  14
ENDBRANCH   1  13
BRANCH   1  21
ATOM     21  C   LIG    1       28.273 -19.781   6.021  0.00  0.00    +0.189 C 
BRANCH  21  22
ATOM     22  O   LIG    1       27.413 -20.206   4.971  0.00  0.00    -0.392 OA
ATOM     23  H   LIG    1       26.627 -19.611   4.964  0.00  0.00    +0.209 HD
ENDBRANCH  21  22
ENDBRANCH   1  21
TORSDOF 10
ENDMDL
MODEL 2
REMARK VINA RESULT:      -7.3      1.045      1.045
REMARK  Name = *****
REMARK                            x       y       z     vdW  Elec       q    Type
REMARK                         _______ _______ _______ _____ _____    ______ ____
ROOT
ATOM      1  C   LIG    1       28.282 -20.462   7.144  0.00  0.00    +0.164 C 
ENDROOT
BRANCH   1   2
ATOM      2  C   LIG    1       26.749 -20.482   7.414  0.00  0.00    +0.160 C 
BRANCH   2   7
ATOM      3  C   LIG    1       24.955 -23.801   5.701  0.00  0.00    +0.123 C 
ATOM      4  N   LIG    1       24.708 -22.666   5.189  0.00  0.00    -0.178 NA
ATOM      5  C   LIG    1       25.150 -21.536   5.812  0.00  0.00    +0.350 C 
ATOM      6  O   LIG    1       24.789 -20.423   5.386  0.00  0.00    -0.244 OA
ATOM      7  N   LIG    1       26.063 -21.664   6.872  0.00  0.00    -0.296 N 
ATOM      8  C   LIG    1       26.294 -22.905   7.457  0.00  0.00    +0.094 C 
ATOM      9  C   LIG    1       25.720 -23.994   6.973  0.00  0.00    +0.061 C 
BRANCH   3  10
ATOM     10  N   LIG    1       24.486 -24.928   5.058  0.00  0.00    -0.343 N 
ATOM     11  H   LIG    1       24.386 -25.686   5.727  0.00  0.00    +0.144 HD
ATOM     12  H   LIG    1       23.666 -24.818   4.472  0.00  0.00    +0.144 HD
ENDBRANCH   3  10
ENDBRANCH   2   7
ENDBRANCH   1   2
BRANCH   1  13
ATOM     13  O   LIG    1       28.957 -20.013   8.345  0.00  0.00    -0.360 OA
BRANCH  13  14
ATOM     14  C   LIG    1       29.659 -18.741   8.301  0.00  0.00    +0.286 C 
BRANCH  14  15
ATOM     15  P   LIG    1       31.445 -18.918   8.334  0.00  0.00    +0.353 P 
ATOM     16  O   LIG    1       32.048 -19.666   9.479  0.00  0.00    -0.256 OA
BRANCH  15  17
ATOM     17  O   LIG    1       32.177 -17.503   8.219  0.00  0.00    -0.323 OA
ATOM     18  H   LIG    1       32.212 -17.266   7.270  0.00  0.00    +0.220 HD
ENDBRANCH  15  17
BRANCH  15  19
ATOM     19  O   LIG    1       31.867 -19.520   6.904  0.00  0.00    -0.323 OA
ATOM     20  H   LIG    1       32.116 -20.468   6.935  0.00  0.00    +0.220 HD
ENDBRANCH  15  19
ENDBRANCH  14  15
ENDBRANCH  13  14
ENDBRANCH   1  13
BRANCH   1  21
ATOM     21  C   LIG    1       28.530 -19.538   5.948  0.00  0.00    +0.189 C 
BRANCH  21  22
ATOM     22  O   LIG    1       27.694 -19.852   4.841  0.00  0.00    -0.392 OA
ATOM     23  H   LIG    1       28.107 -19.470   4.031  0.00  0.00    +0.209 HD
ENDBRANCH  21  22
ENDBRANCH   1  21
TORSDOF 10
ENDMDL
MODEL 3
REMARK VINA RESULT:      -7.2      2.185      2.821
REMARK  Name = *****
REMARK                            x       y       z     vdW  Elec       q    Type
REMARK                         _______ _______ _______ _____ _____    ______ ____
ROOT
ATOM      1  C   LIG    1       28.881 -19.953   6.377  0.00  0.00    +0.164 C 
ENDROOT
BRANCH   1   2
ATOM      2  C   LIG    1       27.799 -19.794   7.484  0.00  0.00    +0.160 C 
BRANCH   2   7
ATOM      3  C   LIG    1       23.987 -21.078   6.486  0.00  0.00    +0.123 C 
ATOM      4  N   LIG    1       24.271 -20.972   7.719  0.00  0.00    -0.178 NA
ATOM      5  C   LIG    1       25.555 -20.705   8.094  0.00  0.00    +0.350 C 
ATOM      6  O   LIG    1       25.858 -20.740   9.301  0.00  0.00    -0.244 OA
ATOM      7  N   LIG    1       26.479 -20.322   7.107  0.00  0.00    -0.296 N 
ATOM      8  C   LIG    1       26.177 -20.483   5.759  0.00  0.00    +0.094 C 
ATOM      9  C   LIG    1       24.988 -20.923   5.383  0.00  0.00    +0.061 C 
BRANCH   3  10
ATOM     10  N   LIG    1       22.684 -21.362   6.133  0.00  0.00    -0.343 N 
ATOM     11  H   LIG    1       22.076 -21.233   6.937  0.00  0.00    +0.144 HD
ATOM     12  H   LIG    1       22.323 -20.912   5.299  0.00  0.00    +0.144 HD
ENDBRANCH   3  10
ENDBRANCH   2   7
ENDBRANCH   1   2
BRANCH   1  13
ATOM     13  O   LIG    1       29.837 -20.955   6.806  0.00  0.00    -0.360 OA
BRANCH  13  14
ATOM     14  C   LIG    1       29.702 -21.500   8.146  0.00  0.00    +0.286 C 
BRANCH  14  15
ATOM     15  P   LIG    1       31.237 -21.475   9.077  0.00  0.00    +0.353 P 
ATOM     16  O   LIG    1       31.972 -20.177   9.168  0.00  0.00    -0.256 OA
BRANCH  15  17
ATOM     17  O   LIG    1       32.254 -22.593   8.560  0.00  0.00    -0.323 OA
ATOM     18  H   LIG    1       32.420 -22.424   7.611  0.00  0.00    +0.220 HD
ENDBRANCH  15  17
BRANCH  15  19
ATOM     19  O   LIG    1       30.903 -22.106  10.517  0.00  0.00    -0.323 OA
ATOM     20  H   LIG    1       30.435 -22.967  10.470  0.00  0.00    +0.220 HD
ENDBRANCH  15  19
ENDBRANCH  14  15
ENDBRANCH  13  14
ENDBRANCH   1  13
BRANCH   1  21
ATOM     21  C   LIG    1       29.525 -18.581   6.157  0.00  0.00    +0.189 C 
BRANCH  21  22
ATOM     22  O   LIG    1       30.692 -18.400   6.950  0.00  0.00    -0.392 OA
ATOM     23  H   LIG    1       31.469 -18.682   6.413  0.00  0.00    +0.209 HD
ENDBRANCH  21  22
ENDBRANCH   1  21
TORSDOF 10
ENDMDL
MODEL 4
REMARK VINA RESULT:      -7.2      2.248      3.357
REMARK  Name = *****
REMARK                            x       y       z     vdW  Elec       q    Type
REMARK                         _______ _______ _______ _____ _____    ______ ____
ROOT
ATOM      1  C   LIG    1       30.088 -20.677   8.329  0.00  0.00    +0.164 C 
ENDROOT
BRANCH   1   2
ATOM      2  C   LIG    1       29.287 -21.366   7.185  0.00  0.00    +0.160 C 
BRANCH   2   7
ATOM      3  C   LIG    1       25.176 -20.845   7.183  0.00  0.00    +0.123 C 
ATOM      4  N   LIG    1       25.836 -20.340   6.223  0.00  0.00    -0.178 NA
ATOM      5  C   LIG    1       27.199 -20.353   6.263  0.00  0.00    +0.350 C 
ATOM      6  O   LIG    1       27.841 -19.736   5.392  0.00  0.00    -0.244 OA
ATOM      7  N   LIG    1       27.837 -21.128   7.246  0.00  0.00    -0.296 N 
ATOM      8  C   LIG    1       27.114 -21.639   8.319  0.00  0.00    +0.094 C 
ATOM      9  C   LIG    1       25.803 -21.473   8.388  0.00  0.00    +0.061 C 
BRANCH   3  10
ATOM     10  N   LIG    1       23.798 -20.808   7.124  0.00  0.00    -0.343 N 
ATOM     11  H   LIG    1       23.501 -20.041   6.527  0.00  0.00    +0.144 HD
ATOM     12  H   LIG    1       23.322 -21.676   6.906  0.00  0.00    +0.144 HD
ENDBRANCH   3  10
ENDBRANCH   2   7
ENDBRANCH   1   2
BRANCH   1  13
ATOM     13  O   LIG    1       30.852 -19.583   7.763  0.00  0.00    -0.360 OA
BRANCH  13  14
ATOM     14  C   LIG    1       30.364 -18.230   7.966  0.00  0.00    +0.286 C 
BRANCH  14  15
ATOM     15  P   LIG    1       31.247 -17.346   9.253  0.00  0.00    +0.353 P 
ATOM     16  O   LIG    1       30.448 -16.490  10.182  0.00  0.00    -0.256 OA
BRANCH  15  17
ATOM     17  O   LIG    1       32.432 -16.460   8.650  0.00  0.00    -0.323 OA
ATOM     18  H   LIG    1       33.238 -17.016   8.636  0.00  0.00    +0.220 HD
ENDBRANCH  15  17
BRANCH  15  19
ATOM     19  O   LIG    1       32.138 -18.439  10.024  0.00  0.00    -0.323 OA
ATOM     20  H   LIG    1       33.060 -18.148  10.192  0.00  0.00    +0.220 HD
ENDBRANCH  15  19
ENDBRANCH  14  15
ENDBRANCH  13  14
ENDBRANCH   1  13
BRANCH   1  21
ATOM     21  C   LIG    1       30.976 -21.741   8.980  0.00  0.00    +0.189 C 
BRANCH  21  22
ATOM     22  O   LIG    1       32.261 -21.236   9.322  0.00  0.00    -0.392 OA
ATOM     23  H   LIG    1       32.900 -21.987   9.288  0.00  0.00    +0.209 HD
ENDBRANCH  21  22
ENDBRANCH   1  21
TORSDOF 10
ENDMDL
MODEL 5
REMARK VINA RESULT:      -7.2      1.796      2.315
REMARK  Name = *****
REMARK                            x       y       z     vdW  Elec       q    Type
REMARK                         _______ _______ _______ _____ _____    ______ ____
ROOT
ATOM      1  C   LIG    1       28.568 -20.210   6.196  0.00  0.00    +0.164 C 
ENDROOT
BRANCH   1   2
ATOM      2  C   LIG    1       27.234 -20.280   6.994  0.00  0.00    +0.160 C 
BRANCH   2   7
ATOM      3  C   LIG    1       24.931 -23.487   5.736  0.00  0.00    +0.123 C 
ATOM      4  N   LIG    1       24.785 -22.382   5.129  0.00  0.00    -0.178 NA
ATOM      5  C   LIG    1       25.405 -21.265   5.607  0.00  0.00    +0.350 C 
ATOM      6  O   LIG    1       25.150 -20.159   5.094  0.00  0.00    -0.244 OA
ATOM      7  N   LIG    1       26.372 -21.410   6.616  0.00  0.00    -0.296 N 
ATOM      8  C   LIG    1       26.494 -22.611   7.307  0.00  0.00    +0.094 C 
ATOM      9  C   LIG    1       25.759 -23.659   6.971  0.00  0.00    +0.061 C 
BRANCH   3  10
ATOM     10  N   LIG    1       24.283 -24.600   5.240  0.00  0.00    -0.343 N 
ATOM     11  H   LIG    1       23.840 -24.371   4.354  0.00  0.00    +0.144 HD
ATOM     12  H   LIG    1       24.815 -25.462   5.195  0.00  0.00    +0.144 HD
ENDBRANCH   3  10
ENDBRANCH   2   7
ENDBRANCH   1   2
BRANCH   1  13
ATOM     13  O   LIG    1       29.671 -20.275   7.134  0.00  0.00    -0.360 OA
BRANCH  13  14
ATOM     14  C   LIG    1       29.715 -21.393   8.062  0.00  0.00    +0.286 C 
BRANCH  14  15
ATOM     15  P   LIG    1       31.224 -21.447   9.033  0.00  0.00    +0.353 P 
ATOM     16  O   LIG    1       32.018 -20.187   9.152  0.00  0.00    -0.256 OA
BRANCH  15  17
ATOM     17  O   LIG    1       32.199 -22.610   8.536  0.00  0.00    -0.323 OA
ATOM     18  H   LIG    1       32.976 -22.186   8.118  0.00  0.00    +0.220 HD
ENDBRANCH  15  17
BRANCH  15  19
ATOM     19  O   LIG    1       30.822 -22.068  10.459  0.00  0.00    -0.323 OA
ATOM     20  H   LIG    1       31.466 -21.867  11.171  0.00  0.00    +0.220 HD
ENDBRANCH  15  19
ENDBRANCH  14  15
ENDBRANCH  13  14
ENDBRANCH   1  13
BRANCH   1  21
ATOM     21  C   LIG    1       28.559 -18.909   5.387  0.00  0.00    +0.189 C 
BRANCH  21  22
ATOM     22  O   LIG    1       29.800 -18.218   5.463  0.00  0.00    -0.392 OA
ATOM     23  H   LIG    1       30.228 -18.458   6.318  0.00  0.00    +0.209 HD
ENDBRANCH  21  22
ENDBRANCH   1  21
TORSDOF 10
ENDMDL
MODEL 6
REMARK VINA RESULT:      -7.1      4.045      6.569
REMARK  Name = *****
REMARK                            x       y       z     vdW  Elec       q    Type
REMARK                         _______ _______ _______ _____ _____    ______ ____
ROOT
ATOM      1  C   LIG    1       24.178 -22.371   6.954  0.00  0.00    +0.164 C 
ENDROOT
BRANCH   1   2
ATOM      2  C   LIG    1       24.562 -20.865   6.864  0.00  0.00    +0.160 C 
BRANCH   2   7
ATOM      3  C   LIG    1       28.658 -20.372   7.258  0.00  0.00    +0.123 C 
ATOM      4  N   LIG    1       27.989 -20.615   8.309  0.00  0.00    -0.178 NA
ATOM      5  C   LIG    1       26.626 -20.631   8.251  0.00  0.00    +0.350 C 
ATOM      6  O   LIG    1       25.971 -20.731   9.305  0.00  0.00    -0.244 OA
ATOM      7  N   LIG    1       26.005 -20.610   6.991  0.00  0.00    -0.296 N 
ATOM      8  C   LIG    1       26.737 -20.297   5.850  0.00  0.00    +0.094 C 
ATOM      9  C   LIG    1       28.042 -20.095   5.922  0.00  0.00    +0.061 C 
BRANCH   3  10
ATOM     10  N   LIG    1       30.034 -20.349   7.346  0.00  0.00    -0.343 N 
ATOM     11  H   LIG    1       30.434 -20.904   6.594  0.00  0.00    +0.144 HD
ATOM     12  H   LIG    1       30.477 -19.440   7.434  0.00  0.00    +0.144 HD
ENDBRANCH   3  10
ENDBRANCH   2   7
ENDBRANCH   1   2
BRANCH   1  13
ATOM     13  O   LIG    1       25.025 -23.118   6.044  0.00  0.00    -0.360 OA
BRANCH  13  14
ATOM     14  C   LIG    1       25.717 -24.288   6.557  0.00  0.00    +0.286 C 
BRANCH  14  15
ATOM     15  P   LIG    1       25.226 -25.812   5.747  0.00  0.00    +0.353 P 
ATOM     16  O   LIG    1       25.895 -26.159   4.456  0.00  0.00    -0.256 OA
BRANCH  15  17
ATOM     17  O   LIG    1       23.645 -25.875   5.525  0.00  0.00    -0.323 OA
ATOM     18  H   LIG    1       23.446 -25.412   4.687  0.00  0.00    +0.220 HD
ENDBRANCH  15  17
BRANCH  15  19
ATOM     19  O   LIG    1       25.357 -26.974   6.850  0.00  0.00    -0.323 OA
ATOM     20  H   LIG    1       24.578 -27.568   6.889  0.00  0.00    +0.220 HD
ENDBRANCH  15  19
ENDBRANCH  14  15
ENDBRANCH  13  14
ENDBRANCH   1  13
BRANCH   1  21
ATOM     21  C   LIG    1       22.691 -22.493   6.608  0.00  0.00    +0.189 C 
BRANCH  21  22
ATOM     22  O   LIG    1       22.221 -23.831   6.712  0.00  0.00    -0.392 OA
ATOM     23  H   LIG    1       21.636 -24.007   5.938  0.00  0.00    +0.209 HD
ENDBRANCH  21  22
ENDBRANCH   1  21
TORSDOF 10
ENDMDL
MODEL 7
REMARK VINA RESULT:      -7.0      2.517      3.351
REMARK  Name = *****
REMARK                            x       y       z     vdW  Elec       q    Type
REMARK                         _______ _______ _______ _____ _____    ______ ____
ROOT
ATOM      1  C   LIG    1       26.797 -20.668   7.245  0.00  0.00    +0.164 C 
ENDROOT
BRANCH   1   2
ATOM      2  C   LIG    1       25.773 -21.591   6.523  0.00  0.00    +0.160 C 
BRANCH   2   7
ATOM      3  C   LIG    1       22.808 -19.359   4.680  0.00  0.00    +0.123 C 
ATOM      4  N   LIG    1       22.568 -19.815   5.839  0.00  0.00    -0.178 NA
ATOM      5  C   LIG    1       23.449 -20.681   6.418  0.00  0.00    +0.350 C 
ATOM      6  O   LIG    1       23.146 -21.234   7.492  0.00  0.00    -0.244 OA
ATOM      7  N   LIG    1       24.707 -20.862   5.819  0.00  0.00    -0.296 N 
ATOM      8  C   LIG    1       24.947 -20.399   4.529  0.00  0.00    +0.094 C 
ATOM      9  C   LIG    1       24.023 -19.710   3.879  0.00  0.00    +0.061 C 
BRANCH   3  10
ATOM     10  N   LIG    1       21.895 -18.495   4.111  0.00  0.00    -0.343 N 
ATOM     11  H   LIG    1       21.689 -17.739   4.759  0.00  0.00    +0.144 HD
ATOM     12  H   LIG    1       22.097 -18.158   3.176  0.00  0.00    +0.144 HD
ENDBRANCH   3  10
ENDBRANCH   2   7
ENDBRANCH   1   2
BRANCH   1  13
ATOM     13  O   LIG    1       28.111 -21.272   7.148  0.00  0.00    -0.360 OA
BRANCH  13  14
ATOM     14  C   LIG    1       29.207 -20.453   6.660  0.00  0.00    +0.286 C 
BRANCH  14  15
ATOM     15  P   LIG    1       30.461 -20.135   7.903  0.00  0.00    +0.353 P 
ATOM     16  O   LIG    1       30.100 -19.232   9.038  0.00  0.00    -0.256 OA
BRANCH  15  17
ATOM     17  O   LIG    1       31.815 -19.598   7.247  0.00  0.00    -0.323 OA
ATOM     18  H   LIG    1       31.765 -18.621   7.223  0.00  0.00    +0.220 HD
ENDBRANCH  15  17
BRANCH  15  19
ATOM     19  O   LIG    1       30.989 -21.572   8.393  0.00  0.00    -0.323 OA
ATOM     20  H   LIG    1       30.270 -22.213   8.575  0.00  0.00    +0.220 HD
ENDBRANCH  15  19
ENDBRANCH  14  15
ENDBRANCH  13  14
ENDBRANCH   1  13
BRANCH   1  21
ATOM     21  C   LIG    1       26.331 -20.500   8.694  0.00  0.00    +0.189 C 
BRANCH  21  22
ATOM     22  O   LIG    1       25.605 -21.631   9.161  0.00  0.00    -0.392 OA
ATOM     23  H   LIG    1       25.483 -21.530  10.135  0.00  0.00    +0.209 HD
ENDBRANCH  21  22
ENDBRANCH   1  21
TORSDOF 10
ENDMDL
MODEL 8
REMARK VINA RESULT:      -6.8      1.603      1.983
REMARK  Name = *****
REMARK                            x       y       z     vdW  Elec       q    Type
REMARK                         _______ _______ _______ _____ _____    ______ ____
ROOT
ATOM      1  C   LIG    1       26.771 -21.440   6.859  0.00  0.00    +0.164 C 
ENDROOT
BRANCH   1   2
ATOM      2  C   LIG    1       25.393 -21.905   7.413  0.00  0.00    +0.160 C 
BRANCH   2   7
ATOM      3  C   LIG    1       24.353 -25.715   6.159  0.00  0.00    +0.123 C 
ATOM      4  N   LIG    1       23.425 -24.857   6.273  0.00  0.00    -0.178 NA
ATOM      5  C   LIG    1       23.696 -23.642   6.829  0.00  0.00    +0.350 C 
ATOM      6  O   LIG    1       22.759 -22.856   7.067  0.00  0.00    -0.244 OA
ATOM      7  N   LIG    1       25.037 -23.284   7.045  0.00  0.00    -0.296 N 
ATOM      8  C   LIG    1       26.044 -24.241   6.962  0.00  0.00    +0.094 C 
ATOM      9  C   LIG    1       25.765 -25.482   6.600  0.00  0.00    +0.061 C 
BRANCH   3  10
ATOM     10  N   LIG    1       24.050 -26.942   5.605  0.00  0.00    -0.343 N 
ATOM     11  H   LIG    1       24.533 -27.045   4.717  0.00  0.00    +0.144 HD
ATOM     12  H   LIG    1       24.157 -27.757   6.200  0.00  0.00    +0.144 HD
ENDBRANCH   3  10
ENDBRANCH   2   7
ENDBRANCH   1   2
BRANCH   1  13
ATOM     13  O   LIG    1       27.603 -21.030   7.973  0.00  0.00    -0.360 OA
BRANCH  13  14
ATOM     14  C   LIG    1       29.033 -21.269   7.884  0.00  0.00    +0.286 C 
BRANCH  14  15
ATOM     15  P   LIG    1       30.001 -19.758   7.847  0.00  0.00    +0.353 P 
ATOM     16  O   LIG    1       29.950 -18.871   9.047  0.00  0.00    -0.256 OA
BRANCH  15  17
ATOM     17  O   LIG    1       29.664 -18.878   6.557  0.00  0.00    -0.323 OA
ATOM     18  H   LIG    1       28.795 -18.454   6.709  0.00  0.00    +0.220 HD
ENDBRANCH  15  17
BRANCH  15  19
ATOM     19  O   LIG    1       31.499 -20.190   7.453  0.00  0.00    -0.323 OA
ATOM     20  H   LIG    1       31.569 -21.112   7.125  0.00  0.00    +0.220 HD
ENDBRANCH  15  19
ENDBRANCH  14  15
ENDBRANCH  13  14
ENDBRANCH   1  13
BRANCH   1  21
ATOM     21  C   LIG    1       26.512 -20.302   5.867  0.00  0.00    +0.189 C 
BRANCH  21  22
ATOM     22  O   LIG    1       27.581 -20.138   4.943  0.00  0.00    -0.392 OA
ATOM     23  H   LIG    1       27.575 -19.201   4.637  0.00  0.00    +0.209 HD
ENDBRANCH  21  22
ENDBRANCH   1  21
TORSDOF 10
ENDMDL
MODEL 9
REMARK VINA RESULT:      -6.7      2.146      3.301
REMARK  Name = *****
REMARK                            x       y       z     vdW  Elec       q    Type
REMARK                         _______ _______ _______ _____ _____    ______ ____
ROOT
ATOM      1  C   LIG    1       24.899 -21.265   6.043  0.00  0.00    +0.164 C 
ENDROOT
BRANCH   1   2
ATOM      2  C   LIG    1       24.637 -22.226   7.239  0.00  0.00    +0.160 C 
BRANCH   2   7
ATOM      3  C   LIG    1       24.736 -26.182   6.008  0.00  0.00    +0.123 C 
ATOM      4  N   LIG    1       23.605 -25.609   6.065  0.00  0.00    -0.178 NA
ATOM      5  C   LIG    1       23.508 -24.363   6.610  0.00  0.00    +0.350 C 
ATOM      6  O   LIG    1       22.382 -23.862   6.793  0.00  0.00    -0.244 OA
ATOM      7  N   LIG    1       24.689 -23.651   6.880  0.00  0.00    -0.296 N 
ATOM      8  C   LIG    1       25.921 -24.297   6.859  0.00  0.00    +0.094 C 
ATOM      9  C   LIG    1       26.008 -25.570   6.507  0.00  0.00    +0.061 C 
BRANCH   3  10
ATOM     10  N   LIG    1       24.806 -27.448   5.464  0.00  0.00    -0.343 N 
ATOM     11  H   LIG    1       23.933 -27.940   5.630  0.00  0.00    +0.144 HD
ATOM     12  H   LIG    1       25.114 -27.520   4.500  0.00  0.00    +0.144 HD
ENDBRANCH   3  10
ENDBRANCH   2   7
ENDBRANCH   1   2
BRANCH   1  13
ATOM     13  O   LIG    1       25.933 -20.323   6.425  0.00  0.00    -0.360 OA
BRANCH  13  14
ATOM     14  C   LIG    1       26.758 -20.643   7.577  0.00  0.00    +0.286 C 
BRANCH  14  15
ATOM     15  P   LIG    1       28.479 -20.182   7.363  0.00  0.00    +0.353 P 
ATOM     16  O   LIG    1       29.144 -19.442   8.478  0.00  0.00    -0.256 OA
BRANCH  15  17
ATOM     17  O   LIG    1       28.703 -19.359   6.012  0.00  0.00    -0.323 OA
ATOM     18  H   LIG    1       27.835 -19.284   5.566  0.00  0.00    +0.220 HD
ENDBRANCH  15  17
BRANCH  15  19
ATOM     19  O   LIG    1       29.261 -21.526   6.953  0.00  0.00    -0.323 OA
ATOM     20  H   LIG    1       30.149 -21.604   7.361  0.00  0.00    +0.220 HD
ENDBRANCH  15  19
ENDBRANCH  14  15
ENDBRANCH  13  14
ENDBRANCH   1  13
BRANCH   1  21
ATOM     21  C   LIG    1       23.573 -20.577   5.701  0.00  0.00    +0.189 C 
BRANCH  21  22
ATOM     22  O   LIG    1       22.686 -21.437   4.997  0.00  0.00    -0.392 OA
ATOM     23  H   LIG    1       23.169 -22.274   4.799  0.00  0.00    +0.209 HD
ENDBRANCH  21  22
ENDBRANCH   1  21
TORSDOF 10
ENDMDL
