MODEL 1
REMARK VINA RESULT:       1.8      0.000      0.000
REMARK  Name = *****
REMARK                            x       y       z     vdW  Elec       q    Type
REMARK                         _______ _______ _______ _____ _____    ______ ____
ROOT
ATOM      1  CA  LIG    1       23.303 -19.851   4.591  0.00  0.00    +0.128 C 
ATOM      2  N   LIG    1       22.591 -18.751   4.130  0.00  0.00    -0.249 N 
ATOM      3  C   LIG    1       23.130 -17.744   3.193  0.00  0.00    +0.169 C 
ATOM      4  CA  LIG    1       22.569 -16.636   4.123  0.00  0.00    +0.191 C 
ATOM      5  S   LIG    1       24.905 -17.787   2.924  0.00  0.00    -0.131 S 
ATOM      6  C   LIG    1       25.317 -18.498   4.479  0.00  0.00    +0.110 C 
ATOM      7  C   LIG    1       22.198 -17.810   5.039  0.00  0.00    +0.244 C 
ATOM      8  O   LIG    1       21.981 -17.932   6.250  0.00  0.00    -0.273 OA
ATOM      9  C   LIG    1       24.643 -19.789   4.806  0.00  0.00    +0.033 C 
ENDROOT
BRANCH   4  10
ATOM     10  N   LIG    1       23.532 -15.667   4.747  0.00  0.00    -0.301 N 
ATOM     11  H   LIG    1       23.733 -15.726   5.737  0.00  0.00    +0.149 HD
ATOM     12  C   LIG    1       23.865 -14.482   4.121  0.00  0.00    +0.218 C 
ATOM     13  O   LIG    1       23.407 -14.186   3.022  0.00  0.00    -0.275 OA
BRANCH  12  14
ATOM     14  C   LIG    1       24.831 -13.605   4.908  0.00  0.00    +0.138 C 
BRANCH  14  15
ATOM     15  C   LIG    1       26.159 -13.551   4.219  0.00  0.00    -0.002 A 
ATOM     16  S   LIG    1       27.595 -13.463   5.152  0.00  0.00    -0.101 S 
ATOM     17  C   LIG    1       28.578 -13.433   3.757  0.00  0.00    +0.045 A 
ATOM     18  C   LIG    1       27.836 -13.507   2.600  0.00  0.00    +0.008 A 
ATOM     19  C   LIG    1       26.437 -13.579   2.865  0.00  0.00    +0.012 A 
ENDBRANCH  14  15
ENDBRANCH  12  14
ENDBRANCH   4  10
BRANCH   1  21
ATOM     20  O   LIG    1       22.462 -21.570   6.082  0.00  0.00    -0.244 OA
ATOM     21  C   LIG    1       22.446 -21.018   4.997  0.00  0.00    +0.352 C 
BRANCH  21  22
ATOM     22  OXT LIG    1       21.632 -21.411   4.003  0.00  0.00    -0.476 OA
ATOM     23  HXT LIG    1       21.316 -20.597   3.556  0.00  0.00    +0.295 HD
ENDBRANCH  21  22
ENDBRANCH   1  21
BRANCH   9  24
ATOM     24  C   LIG    1       25.500 -20.896   5.418  0.00  0.00    +0.392 C 
BRANCH  24  25
ATOM     25  N   LIG    1       26.936 -20.590   5.844  0.00  0.00    -0.200 N 
ATOM     26  C   LIG    1       27.434 -19.367   5.513  0.00  0.00    +0.309 A 
ATOM     27  C   LIG    1       28.720 -18.995   5.918  0.00  0.00    +0.070 A 
ATOM     28  C   LIG    1       29.475 -19.838   6.725  0.00  0.00    +0.012 A 
ATOM     29  C   LIG    1       28.960 -21.063   7.061  0.00  0.00    +0.070 A 
ATOM     30  C   LIG    1       27.754 -21.434   6.515  0.00  0.00    +0.309 A 
ENDBRANCH  24  25
ENDBRANCH   9  24
TORSDOF 7
ENDMDL
MODEL 2
REMARK VINA RESULT:       2.6      1.656      2.052
REMARK  Name = *****
REMARK                            x       y       z     vdW  Elec       q    Type
REMARK                         _______ _______ _______ _____ _____    ______ ____
ROOT
ATOM      1  CA  LIG    1       23.775 -20.363   5.262  0.00  0.00    +0.128 C 
ATOM      2  N   LIG    1       22.586 -19.653   5.158  0.00  0.00    -0.249 N 
ATOM      3  C   LIG    1       21.978 -19.228   3.880  0.00  0.00    +0.169 C 
ATOM      4  CA  LIG    1       21.765 -17.820   4.495  0.00  0.00    +0.191 C 
ATOM      5  S   LIG    1       23.027 -19.353   2.428  0.00  0.00    -0.131 S 
ATOM      6  C   LIG    1       24.556 -19.191   3.282  0.00  0.00    +0.110 C 
ATOM      7  C   LIG    1       22.536 -18.396   5.690  0.00  0.00    +0.244 C 
ATOM      8  O   LIG    1       23.199 -17.909   6.613  0.00  0.00    -0.273 OA
ATOM      9  C   LIG    1       24.795 -20.169   4.385  0.00  0.00    +0.033 C 
ENDROOT
BRANCH   4  10
ATOM     10  N   LIG    1       22.444 -16.645   3.851  0.00  0.00    -0.301 N 
ATOM     11  H   LIG    1       22.994 -16.781   3.012  0.00  0.00    +0.149 HD
ATOM     12  C   LIG    1       22.663 -15.473   4.547  0.00  0.00    +0.218 C 
ATOM     13  O   LIG    1       22.290 -15.336   5.708  0.00  0.00    -0.275 OA
BRANCH  12  14
ATOM     14  C   LIG    1       23.392 -14.396   3.752  0.00  0.00    +0.138 C 
BRANCH  14  15
ATOM     15  C   LIG    1       24.861 -14.448   4.041  0.00  0.00    -0.002 A 
ATOM     16  S   LIG    1       25.838 -15.618   3.256  0.00  0.00    -0.101 S 
ATOM     17  C   LIG    1       27.246 -15.072   4.053  0.00  0.00    +0.045 A 
ATOM     18  C   LIG    1       26.989 -14.008   4.887  0.00  0.00    +0.008 A 
ATOM     19  C   LIG    1       25.611 -13.643   4.878  0.00  0.00    +0.012 A 
ENDBRANCH  14  15
ENDBRANCH  12  14
ENDBRANCH   4  10
BRANCH   1  21
ATOM     20  O   LIG    1       24.932 -21.519   7.052  0.00  0.00    -0.244 OA
ATOM     21  C   LIG    1       23.893 -21.197   6.507  0.00  0.00    +0.352 C 
BRANCH  21  22
ATOM     22  OXT LIG    1       22.690 -21.572   6.973  0.00  0.00    -0.476 OA
ATOM     23  HXT LIG    1       22.850 -22.266   7.647  0.00  0.00    +0.295 HD
ENDBRANCH  21  22
ENDBRANCH   1  21
BRANCH   9  24
ATOM     24  C   LIG    1       26.181 -20.806   4.474  0.00  0.00    +0.392 C 
BRANCH  24  25
ATOM     25  N   LIG    1       27.302 -20.071   5.210  0.00  0.00    -0.200 N 
ATOM     26  C   LIG    1       27.761 -20.634   6.361  0.00  0.00    +0.309 A 
ATOM     27  C   LIG    1       28.823 -20.049   7.059  0.00  0.00    +0.070 A 
ATOM     28  C   LIG    1       29.471 -18.932   6.546  0.00  0.00    +0.012 A 
ATOM     29  C   LIG    1       29.008 -18.379   5.380  0.00  0.00    +0.070 A 
ATOM     30  C   LIG    1       27.872 -18.908   4.816  0.00  0.00    +0.309 A 
ENDBRANCH  24  25
ENDBRANCH   9  24
TORSDOF 7
ENDMDL
MODEL 3
REMARK VINA RESULT:       3.3      2.494      5.837
REMARK  Name = *****
REMARK                            x       y       z     vdW  Elec       q    Type
REMARK                         _______ _______ _______ _____ _____    ______ ____
ROOT
ATOM      1  CA  LIG    1       27.631 -19.375   5.102  0.00  0.00    +0.128 C 
ATOM      2  N   LIG    1       26.714 -20.418   5.082  0.00  0.00    -0.249 N 
ATOM      3  C   LIG    1       25.843 -20.740   3.933  0.00  0.00    +0.169 C 
ATOM      4  CA  LIG    1       24.650 -20.850   4.919  0.00  0.00    +0.191 C 
ATOM      5  S   LIG    1       25.747 -19.493   2.644  0.00  0.00    -0.131 S 
ATOM      6  C   LIG    1       26.115 -18.120   3.677  0.00  0.00    +0.110 C 
ATOM      7  C   LIG    1       25.670 -20.377   5.962  0.00  0.00    +0.244 C 
ATOM      8  O   LIG    1       25.592 -19.813   7.060  0.00  0.00    -0.273 OA
ATOM      9  C   LIG    1       27.389 -18.207   4.450  0.00  0.00    +0.033 C 
ENDROOT
BRANCH   4  10
ATOM     10  N   LIG    1       23.488 -19.915   4.746  0.00  0.00    -0.301 N 
ATOM     11  H   LIG    1       23.615 -18.923   4.901  0.00  0.00    +0.149 HD
ATOM     12  C   LIG    1       22.187 -20.378   4.752  0.00  0.00    +0.218 C 
ATOM     13  O   LIG    1       21.931 -21.571   4.875  0.00  0.00    -0.275 OA
BRANCH  12  14
ATOM     14  C   LIG    1       21.131 -19.289   4.596  0.00  0.00    +0.138 C 
BRANCH  14  15
ATOM     15  C   LIG    1       21.776 -17.938   4.616  0.00  0.00    -0.002 A 
ATOM     16  S   LIG    1       22.961 -17.548   3.439  0.00  0.00    -0.101 S 
ATOM     17  C   LIG    1       23.186 -15.985   4.089  0.00  0.00    +0.045 A 
ATOM     18  C   LIG    1       22.366 -15.751   5.169  0.00  0.00    +0.008 A 
ATOM     19  C   LIG    1       21.547 -16.878   5.473  0.00  0.00    +0.012 A 
ENDBRANCH  14  15
ENDBRANCH  12  14
ENDBRANCH   4  10
BRANCH   1  21
ATOM     20  O   LIG    1       29.388 -18.708   6.636  0.00  0.00    -0.244 OA
ATOM     21  C   LIG    1       28.788 -19.583   6.039  0.00  0.00    +0.352 C 
BRANCH  21  22
ATOM     22  OXT LIG    1       29.110 -20.883   6.154  0.00  0.00    -0.476 OA
ATOM     23  HXT LIG    1       28.328 -21.397   5.861  0.00  0.00    +0.295 HD
ENDBRANCH  21  22
ENDBRANCH   1  21
BRANCH   9  24
ATOM     24  C   LIG    1       28.270 -16.959   4.502  0.00  0.00    +0.392 C 
BRANCH  24  25
ATOM     25  N   LIG    1       27.698 -15.614   4.053  0.00  0.00    -0.200 N 
ATOM     26  C   LIG    1       28.350 -14.494   4.468  0.00  0.00    +0.309 A 
ATOM     27  C   LIG    1       27.919 -13.230   4.050  0.00  0.00    +0.070 A 
ATOM     28  C   LIG    1       26.869 -13.108   3.148  0.00  0.00    +0.012 A 
ATOM     29  C   LIG    1       26.227 -14.243   2.727  0.00  0.00    +0.070 A 
ATOM     30  C   LIG    1       26.598 -15.444   3.283  0.00  0.00    +0.309 A 
ENDBRANCH  24  25
ENDBRANCH   9  24
TORSDOF 7
ENDMDL
MODEL 4
REMARK VINA RESULT:       4.0      2.826      6.643
REMARK  Name = *****
REMARK                            x       y       z     vdW  Elec       q    Type
REMARK                         _______ _______ _______ _____ _____    ______ ____
ROOT
ATOM      1  CA  LIG    1       27.457 -18.809   4.666  0.00  0.00    +0.128 C 
ATOM      2  N   LIG    1       26.829 -20.042   4.790  0.00  0.00    -0.249 N 
ATOM      3  C   LIG    1       25.743 -20.515   3.907  0.00  0.00    +0.169 C 
ATOM      4  CA  LIG    1       24.959 -20.954   5.172  0.00  0.00    +0.191 C 
ATOM      5  S   LIG    1       24.990 -19.276   2.848  0.00  0.00    -0.131 S 
ATOM      6  C   LIG    1       25.345 -17.899   3.883  0.00  0.00    +0.110 C 
ATOM      7  C   LIG    1       26.119 -20.293   5.929  0.00  0.00    +0.244 C 
ATOM      8  O   LIG    1       26.256 -19.812   7.061  0.00  0.00    -0.273 OA
ATOM      9  C   LIG    1       26.780 -17.707   4.246  0.00  0.00    +0.033 C 
ENDROOT
BRANCH   4  10
ATOM     10  N   LIG    1       23.625 -20.322   5.444  0.00  0.00    -0.301 N 
ATOM     11  H   LIG    1       23.476 -19.814   6.307  0.00  0.00    +0.149 HD
ATOM     12  C   LIG    1       22.492 -20.712   4.757  0.00  0.00    +0.218 C 
ATOM     13  O   LIG    1       22.537 -21.572   3.883  0.00  0.00    -0.275 OA
BRANCH  12  14
ATOM     14  C   LIG    1       21.219 -19.990   5.181  0.00  0.00    +0.138 C 
BRANCH  14  15
ATOM     15  C   LIG    1       20.704 -19.149   4.055  0.00  0.00    -0.002 A 
ATOM     16  S   LIG    1       21.657 -17.854   3.459  0.00  0.00    -0.101 S 
ATOM     17  C   LIG    1       20.476 -17.430   2.301  0.00  0.00    +0.045 A 
ATOM     18  C   LIG    1       19.383 -18.265   2.348  0.00  0.00    +0.008 A 
ATOM     19  C   LIG    1       19.515 -19.262   3.359  0.00  0.00    +0.012 A 
ENDBRANCH  14  15
ENDBRANCH  12  14
ENDBRANCH   4  10
BRANCH   1  21
ATOM     20  O   LIG    1       29.475 -17.768   5.520  0.00  0.00    -0.244 OA
ATOM     21  C   LIG    1       28.860 -18.771   5.205  0.00  0.00    +0.352 C 
BRANCH  21  22
ATOM     22  OXT LIG    1       29.391 -20.001   5.304  0.00  0.00    -0.476 OA
ATOM     23  HXT LIG    1       29.690 -20.107   6.232  0.00  0.00    +0.295 HD
ENDBRANCH  21  22
ENDBRANCH   1  21
BRANCH   9  24
ATOM     24  C   LIG    1       27.340 -16.287   4.186  0.00  0.00    +0.392 C 
BRANCH  24  25
ATOM     25  N   LIG    1       26.447 -15.145   3.701  0.00  0.00    -0.200 N 
ATOM     26  C   LIG    1       25.482 -14.707   4.555  0.00  0.00    +0.309 A 
ATOM     27  C   LIG    1       24.664 -13.628   4.202  0.00  0.00    +0.070 A 
ATOM     28  C   LIG    1       24.876 -12.944   3.011  0.00  0.00    +0.012 A 
ATOM     29  C   LIG    1       25.858 -13.387   2.163  0.00  0.00    +0.070 A 
ATOM     30  C   LIG    1       26.532 -14.538   2.494  0.00  0.00    +0.309 A 
ENDBRANCH  24  25
ENDBRANCH   9  24
TORSDOF 7
ENDMDL
