MODEL 1
REMARK VINA RESULT:      -7.2      0.000      0.000
REMARK  Name = *****
REMARK                            x       y       z     vdW  Elec       q    Type
REMARK                         _______ _______ _______ _____ _____    ______ ____
ROOT
ATOM      1  C   LIG    1       23.791 -22.028   6.030  0.00  0.00    +0.149 A 
ATOM      2  C   LIG    1       25.088 -22.074   6.571  0.00  0.00    +0.147 A 
ATOM      3  N   LIG    1       25.680 -22.913   7.492  0.00  0.00    -0.231 NA
ATOM      4  C   LIG    1       26.915 -22.475   7.599  0.00  0.00    +0.203 A 
ATOM      5  N   LIG    1       27.148 -21.383   6.803  0.00  0.00    -0.285 N 
ATOM      6  C   LIG    1       25.993 -21.132   6.114  0.00  0.00    +0.169 A 
ATOM      7  N   LIG    1       25.774 -20.176   5.195  0.00  0.00    -0.198 NA
ATOM      8  C   LIG    1       24.503 -20.245   4.746  0.00  0.00    +0.226 A 
ATOM      9 CL   LIG    1       24.093 -19.098   3.542  0.00  0.00    -0.041 Cl
ATOM     10  N   LIG    1       23.517 -21.099   5.089  0.00  0.00    -0.201 NA
ENDROOT
BRANCH   5  11
ATOM     11  C   LIG    1       28.378 -20.632   6.679  0.00  0.00    +0.259 C 
ATOM     12  C   LIG    1       28.458 -19.412   7.584  0.00  0.00    +0.246 C 
ATOM     13  F   LIG    1       27.892 -19.681   8.791  0.00  0.00    -0.238 F 
ATOM     14  C   LIG    1       29.952 -19.245   7.759  0.00  0.00    +0.184 C 
ATOM     15  C   LIG    1       30.481 -20.681   7.717  0.00  0.00    +0.178 C 
ATOM     16  O   LIG    1       29.495 -21.483   7.027  0.00  0.00    -0.345 OA
BRANCH  14  17
ATOM     17  O   LIG    1       30.460 -18.504   6.640  0.00  0.00    -0.386 OA
ATOM     18  H   LIG    1       30.635 -19.136   5.919  0.00  0.00    +0.210 HD
ENDBRANCH  14  17
BRANCH  15  19
ATOM     19  C   LIG    1       30.743 -21.303   9.092  0.00  0.00    +0.190 C 
BRANCH  19  20
ATOM     20  O   LIG    1       32.123 -21.496   9.360  0.00  0.00    -0.392 OA
ATOM     21  H   LIG    1       32.230 -21.673  10.312  0.00  0.00    +0.209 HD
ENDBRANCH  19  20
ENDBRANCH  15  19
ENDBRANCH   5  11
BRANCH   1  22
ATOM     22  N   LIG    1       22.785 -22.907   6.405  0.00  0.00    -0.341 N 
ATOM     23  H   LIG    1       21.955 -22.851   5.823  0.00  0.00    +0.144 HD
ATOM     24  H   LIG    1       22.659 -22.961   7.406  0.00  0.00    +0.144 HD
ENDBRANCH   1  22
TORSDOF 5
ENDMDL
MODEL 2
REMARK VINA RESULT:      -7.1      4.672      6.379
REMARK  Name = *****
REMARK                            x       y       z     vdW  Elec       q    Type
REMARK                         _______ _______ _______ _____ _____    ______ ____
ROOT
ATOM      1  C   LIG    1       24.242 -21.111   7.425  0.00  0.00    +0.149 A 
ATOM      2  C   LIG    1       24.004 -22.414   6.955  0.00  0.00    +0.147 A 
ATOM      3  N   LIG    1       22.870 -23.199   6.929  0.00  0.00    -0.231 NA
ATOM      4  C   LIG    1       23.253 -24.322   6.361  0.00  0.00    +0.203 A 
ATOM      5  N   LIG    1       24.584 -24.308   6.032  0.00  0.00    -0.285 N 
ATOM      6  C   LIG    1       25.073 -23.078   6.379  0.00  0.00    +0.169 A 
ATOM      7  N   LIG    1       26.321 -22.611   6.207  0.00  0.00    -0.198 NA
ATOM      8  C   LIG    1       26.416 -21.352   6.685  0.00  0.00    +0.226 A 
ATOM      9 CL   LIG    1       27.953 -20.618   6.502  0.00  0.00    -0.041 Cl
ATOM     10  N   LIG    1       25.474 -20.581   7.263  0.00  0.00    -0.201 NA
ENDROOT
BRANCH   5  11
ATOM     11  C   LIG    1       25.347 -25.370   5.414  0.00  0.00    +0.259 C 
ATOM     12  C   LIG    1       26.365 -26.024   6.335  0.00  0.00    +0.246 C 
ATOM     13  F   LIG    1       25.863 -26.131   7.595  0.00  0.00    -0.238 F 
ATOM     14  C   LIG    1       26.497 -27.405   5.731  0.00  0.00    +0.184 C 
ATOM     15  C   LIG    1       25.099 -27.691   5.177  0.00  0.00    +0.178 C 
ATOM     16  O   LIG    1       24.446 -26.416   4.979  0.00  0.00    -0.345 OA
BRANCH  14  17
ATOM     17  O   LIG    1       27.446 -27.341   4.655  0.00  0.00    -0.386 OA
ATOM     18  H   LIG    1       27.513 -26.411   4.373  0.00  0.00    +0.210 HD
ENDBRANCH  14  17
BRANCH  15  19
ATOM     19  C   LIG    1       24.219 -28.555   6.087  0.00  0.00    +0.190 C 
BRANCH  19  20
ATOM     20  O   LIG    1       23.245 -29.299   5.370  0.00  0.00    -0.392 OA
ATOM     21  H   LIG    1       23.468 -30.245   5.441  0.00  0.00    +0.209 HD
ENDBRANCH  19  20
ENDBRANCH  15  19
ENDBRANCH   5  11
BRANCH   1  22
ATOM     22  N   LIG    1       23.262 -20.336   8.030  0.00  0.00    -0.341 N 
ATOM     23  H   LIG    1       23.102 -19.446   7.569  0.00  0.00    +0.144 HD
ATOM     24  H   LIG    1       23.318 -20.344   9.039  0.00  0.00    +0.144 HD
ENDBRANCH   1  22
TORSDOF 5
ENDMDL
MODEL 3
REMARK VINA RESULT:      -7.1      2.346      3.563
REMARK  Name = *****
REMARK                            x       y       z     vdW  Elec       q    Type
REMARK                         _______ _______ _______ _____ _____    ______ ____
ROOT
ATOM      1  C   LIG    1       25.864 -20.344   4.818  0.00  0.00    +0.149 A 
ATOM      2  C   LIG    1       27.075 -19.823   5.304  0.00  0.00    +0.147 A 
ATOM      3  N   LIG    1       27.893 -18.805   4.859  0.00  0.00    -0.231 NA
ATOM      4  C   LIG    1       28.884 -18.769   5.722  0.00  0.00    +0.203 A 
ATOM      5  N   LIG    1       28.755 -19.724   6.698  0.00  0.00    -0.285 N 
ATOM      6  C   LIG    1       27.583 -20.389   6.460  0.00  0.00    +0.169 A 
ATOM      7  N   LIG    1       27.039 -21.382   7.184  0.00  0.00    -0.198 NA
ATOM      8  C   LIG    1       25.878 -21.783   6.624  0.00  0.00    +0.226 A 
ATOM      9 CL   LIG    1       25.057 -23.029   7.464  0.00  0.00    -0.041 Cl
ATOM     10  N   LIG    1       25.260 -21.331   5.515  0.00  0.00    -0.201 NA
ENDROOT
BRANCH   5  11
ATOM     11  C   LIG    1       29.661 -19.988   7.795  0.00  0.00    +0.259 C 
ATOM     12  C   LIG    1       31.131 -19.985   7.405  0.00  0.00    +0.246 C 
ATOM     13  F   LIG    1       31.374 -19.016   6.482  0.00  0.00    -0.238 F 
ATOM     14  C   LIG    1       31.804 -19.613   8.708  0.00  0.00    +0.184 C 
ATOM     15  C   LIG    1       30.792 -18.682   9.382  0.00  0.00    +0.178 C 
ATOM     16  O   LIG    1       29.496 -18.966   8.807  0.00  0.00    -0.345 OA
BRANCH  14  17
ATOM     17  O   LIG    1       31.967 -20.806   9.491  0.00  0.00    -0.386 OA
ATOM     18  H   LIG    1       31.198 -21.380   9.322  0.00  0.00    +0.210 HD
ENDBRANCH  14  17
BRANCH  15  19
ATOM     19  C   LIG    1       31.088 -17.189   9.208  0.00  0.00    +0.190 C 
BRANCH  19  20
ATOM     20  O   LIG    1       32.353 -16.941   8.615  0.00  0.00    -0.392 OA
ATOM     21  H   LIG    1       33.016 -17.500   9.059  0.00  0.00    +0.209 HD
ENDBRANCH  19  20
ENDBRANCH  15  19
ENDBRANCH   5  11
BRANCH   1  22
ATOM     22  N   LIG    1       25.247 -19.874   3.666  0.00  0.00    -0.341 N 
ATOM     23  H   LIG    1       24.475 -19.241   3.844  0.00  0.00    +0.144 HD
ATOM     24  H   LIG    1       25.120 -20.591   2.965  0.00  0.00    +0.144 HD
ENDBRANCH   1  22
TORSDOF 5
ENDMDL
MODEL 4
REMARK VINA RESULT:      -6.7      3.706      5.790
REMARK  Name = *****
REMARK                            x       y       z     vdW  Elec       q    Type
REMARK                         _______ _______ _______ _____ _____    ______ ____
ROOT
ATOM      1  C   LIG    1       29.548 -20.869   7.665  0.00  0.00    +0.149 A 
ATOM      2  C   LIG    1       28.199 -21.218   7.853  0.00  0.00    +0.147 A 
ATOM      3  N   LIG    1       27.580 -22.107   8.706  0.00  0.00    -0.231 NA
ATOM      4  C   LIG    1       26.299 -21.998   8.433  0.00  0.00    +0.203 A 
ATOM      5  N   LIG    1       26.059 -21.092   7.433  0.00  0.00    -0.285 N 
ATOM      6  C   LIG    1       27.266 -20.560   7.071  0.00  0.00    +0.169 A 
ATOM      7  N   LIG    1       27.504 -19.609   6.151  0.00  0.00    -0.198 NA
ATOM      8  C   LIG    1       28.828 -19.356   6.076  0.00  0.00    +0.226 A 
ATOM      9 CL   LIG    1       29.273 -18.136   4.960  0.00  0.00    -0.041 Cl
ATOM     10  N   LIG    1       29.846 -19.906   6.767  0.00  0.00    -0.201 NA
ENDROOT
BRANCH   5  11
ATOM     11  C   LIG    1       24.779 -20.731   6.863  0.00  0.00    +0.259 C 
ATOM     12  C   LIG    1       24.638 -21.061   5.385  0.00  0.00    +0.246 C 
ATOM     13  F   LIG    1       25.248 -22.244   5.104  0.00  0.00    -0.238 F 
ATOM     14  C   LIG    1       23.141 -21.224   5.238  0.00  0.00    +0.184 C 
ATOM     15  C   LIG    1       22.707 -21.797   6.589  0.00  0.00    +0.178 C 
ATOM     16  O   LIG    1       23.729 -21.449   7.553  0.00  0.00    -0.345 OA
BRANCH  14  17
ATOM     17  O   LIG    1       22.560 -19.925   5.049  0.00  0.00    -0.386 OA
ATOM     18  H   LIG    1       22.517 -19.488   5.919  0.00  0.00    +0.210 HD
ENDBRANCH  14  17
BRANCH  15  19
ATOM     19  C   LIG    1       22.519 -23.318   6.604  0.00  0.00    +0.190 C 
BRANCH  19  20
ATOM     20  O   LIG    1       23.701 -24.019   6.957  0.00  0.00    -0.392 OA
ATOM     21  H   LIG    1       24.128 -23.550   7.697  0.00  0.00    +0.209 HD
ENDBRANCH  19  20
ENDBRANCH  15  19
ENDBRANCH   5  11
BRANCH   1  22
ATOM     22  N   LIG    1       30.586 -21.455   8.377  0.00  0.00    -0.341 N 
ATOM     23  H   LIG    1       31.483 -21.001   8.241  0.00  0.00    +0.144 HD
ATOM     24  H   LIG    1       30.559 -22.465   8.356  0.00  0.00    +0.144 HD
ENDBRANCH   1  22
TORSDOF 5
ENDMDL
MODEL 5
REMARK VINA RESULT:      -6.5      2.407      3.299
REMARK  Name = *****
REMARK                            x       y       z     vdW  Elec       q    Type
REMARK                         _______ _______ _______ _____ _____    ______ ____
ROOT
ATOM      1  C   LIG    1       23.744 -23.085   6.463  0.00  0.00    +0.149 A 
ATOM      2  C   LIG    1       24.636 -22.088   6.894  0.00  0.00    +0.147 A 
ATOM      3  N   LIG    1       24.493 -20.728   7.069  0.00  0.00    -0.231 NA
ATOM      4  C   LIG    1       25.667 -20.320   7.500  0.00  0.00    +0.203 A 
ATOM      5  N   LIG    1       26.568 -21.349   7.598  0.00  0.00    -0.285 N 
ATOM      6  C   LIG    1       25.912 -22.496   7.241  0.00  0.00    +0.169 A 
ATOM      7  N   LIG    1       26.396 -23.749   7.224  0.00  0.00    -0.198 NA
ATOM      8  C   LIG    1       25.444 -24.610   6.807  0.00  0.00    +0.226 A 
ATOM      9 CL   LIG    1       25.917 -26.255   6.765  0.00  0.00    -0.041 Cl
ATOM     10  N   LIG    1       24.169 -24.367   6.442  0.00  0.00    -0.201 NA
ENDROOT
BRANCH   5  11
ATOM     11  C   LIG    1       27.950 -21.270   8.017  0.00  0.00    +0.259 C 
ATOM     12  C   LIG    1       28.956 -21.462   6.891  0.00  0.00    +0.246 C 
ATOM     13  F   LIG    1       28.509 -20.870   5.751  0.00  0.00    -0.238 F 
ATOM     14  C   LIG    1       30.159 -20.706   7.408  0.00  0.00    +0.184 C 
ATOM     15  C   LIG    1       29.544 -19.559   8.215  0.00  0.00    +0.178 C 
ATOM     16  O   LIG    1       28.204 -19.962   8.583  0.00  0.00    -0.345 OA
BRANCH  14  17
ATOM     17  O   LIG    1       30.900 -21.573   8.280  0.00  0.00    -0.386 OA
ATOM     18  H   LIG    1       31.594 -22.006   7.749  0.00  0.00    +0.210 HD
ENDBRANCH  14  17
BRANCH  15  19
ATOM     19  C   LIG    1       29.465 -18.225   7.466  0.00  0.00    +0.190 C 
BRANCH  19  20
ATOM     20  O   LIG    1       30.152 -18.246   6.224  0.00  0.00    -0.392 OA
ATOM     21  H   LIG    1       29.978 -19.101   5.791  0.00  0.00    +0.209 HD
ENDBRANCH  19  20
ENDBRANCH  15  19
ENDBRANCH   5  11
BRANCH   1  22
ATOM     22  N   LIG    1       22.437 -22.815   6.078  0.00  0.00    -0.341 N 
ATOM     23  H   LIG    1       22.210 -21.826   6.070  0.00  0.00    +0.144 HD
ATOM     24  H   LIG    1       21.766 -23.452   6.482  0.00  0.00    +0.144 HD
ENDBRANCH   1  22
TORSDOF 5
ENDMDL
MODEL 6
REMARK VINA RESULT:      -6.5      3.904      6.606
REMARK  Name = *****
REMARK                            x       y       z     vdW  Elec       q    Type
REMARK                         _______ _______ _______ _____ _____    ______ ____
ROOT
ATOM      1  C   LIG    1       31.390 -18.878   8.198  0.00  0.00    +0.149 A 
ATOM      2  C   LIG    1       30.339 -18.950   7.266  0.00  0.00    +0.147 A 
ATOM      3  N   LIG    1       29.887 -18.069   6.307  0.00  0.00    -0.231 NA
ATOM      4  C   LIG    1       28.877 -18.686   5.734  0.00  0.00    +0.203 A 
ATOM      5  N   LIG    1       28.644 -19.919   6.287  0.00  0.00    -0.285 N 
ATOM      6  C   LIG    1       29.593 -20.116   7.252  0.00  0.00    +0.169 A 
ATOM      7  N   LIG    1       29.768 -21.201   8.026  0.00  0.00    -0.198 NA
ATOM      8  C   LIG    1       30.810 -21.012   8.863  0.00  0.00    +0.226 A 
ATOM      9 CL   LIG    1       31.166 -22.334   9.892  0.00  0.00    -0.041 Cl
ATOM     10  N   LIG    1       31.624 -19.945   8.991  0.00  0.00    -0.201 NA
ENDROOT
BRANCH   5  11
ATOM     11  C   LIG    1       27.609 -20.864   5.924  0.00  0.00    +0.259 C 
ATOM     12  C   LIG    1       26.567 -21.095   7.008  0.00  0.00    +0.246 C 
ATOM     13  F   LIG    1       26.291 -19.931   7.655  0.00  0.00    -0.238 F 
ATOM     14  C   LIG    1       25.359 -21.516   6.201  0.00  0.00    +0.184 C 
ATOM     15  C   LIG    1       25.504 -20.728   4.897  0.00  0.00    +0.178 C 
ATOM     16  O   LIG    1       26.900 -20.372   4.762  0.00  0.00    -0.345 OA
BRANCH  14  17
ATOM     17  O   LIG    1       25.460 -22.924   5.935  0.00  0.00    -0.386 OA
ATOM     18  H   LIG    1       24.667 -23.354   6.304  0.00  0.00    +0.210 HD
ENDBRANCH  14  17
BRANCH  15  19
ATOM     19  C   LIG    1       24.665 -19.448   4.831  0.00  0.00    +0.190 C 
BRANCH  19  20
ATOM     20  O   LIG    1       24.028 -19.267   3.575  0.00  0.00    -0.392 OA
ATOM     21  H   LIG    1       23.777 -20.142   3.229  0.00  0.00    +0.209 HD
ENDBRANCH  19  20
ENDBRANCH  15  19
ENDBRANCH   5  11
BRANCH   1  22
ATOM     22  N   LIG    1       32.211 -17.766   8.324  0.00  0.00    -0.341 N 
ATOM     23  H   LIG    1       33.102 -17.963   8.768  0.00  0.00    +0.144 HD
ATOM     24  H   LIG    1       31.712 -16.936   8.613  0.00  0.00    +0.144 HD
ENDBRANCH   1  22
TORSDOF 5
ENDMDL
MODEL 7
REMARK VINA RESULT:      -6.4      3.415      5.704
REMARK  Name = *****
REMARK                            x       y       z     vdW  Elec       q    Type
REMARK                         _______ _______ _______ _____ _____    ______ ____
ROOT
ATOM      1  C   LIG    1       28.757 -21.072   7.399  0.00  0.00    +0.149 A 
ATOM      2  C   LIG    1       27.508 -21.711   7.306  0.00  0.00    +0.147 A 
ATOM      3  N   LIG    1       26.955 -22.772   7.992  0.00  0.00    -0.231 NA
ATOM      4  C   LIG    1       25.754 -22.915   7.475  0.00  0.00    +0.203 A 
ATOM      5  N   LIG    1       25.509 -22.008   6.476  0.00  0.00    -0.285 N 
ATOM      6  C   LIG    1       26.614 -21.208   6.376  0.00  0.00    +0.169 A 
ATOM      7  N   LIG    1       26.802 -20.162   5.553  0.00  0.00    -0.198 NA
ATOM      8  C   LIG    1       28.027 -19.631   5.749  0.00  0.00    +0.226 A 
ATOM      9 CL   LIG    1       28.390 -18.265   4.782  0.00  0.00    -0.041 Cl
ATOM     10  N   LIG    1       28.996 -20.003   6.608  0.00  0.00    -0.201 NA
ENDROOT
BRANCH   5  11
ATOM     11  C   LIG    1       24.309 -21.884   5.677  0.00  0.00    +0.259 C 
ATOM     12  C   LIG    1       23.220 -21.036   6.314  0.00  0.00    +0.246 C 
ATOM     13  F   LIG    1       23.767 -19.976   6.969  0.00  0.00    -0.238 F 
ATOM     14  C   LIG    1       22.459 -20.536   5.105  0.00  0.00    +0.184 C 
ATOM     15  C   LIG    1       23.541 -20.399   4.031  0.00  0.00    +0.178 C 
ATOM     16  O   LIG    1       24.639 -21.259   4.414  0.00  0.00    -0.345 OA
BRANCH  14  17
ATOM     17  O   LIG    1       21.511 -21.543   4.718  0.00  0.00    -0.386 OA
ATOM     18  H   LIG    1       20.934 -21.718   5.484  0.00  0.00    +0.210 HD
ENDBRANCH  14  17
BRANCH  15  19
ATOM     19  C   LIG    1       24.076 -18.975   3.846  0.00  0.00    +0.190 C 
BRANCH  19  20
ATOM     20  O   LIG    1       25.409 -18.943   3.360  0.00  0.00    -0.392 OA
ATOM     21  H   LIG    1       25.847 -18.149   3.716  0.00  0.00    +0.209 HD
ENDBRANCH  19  20
ENDBRANCH  15  19
ENDBRANCH   5  11
BRANCH   1  22
ATOM     22  N   LIG    1       29.748 -21.477   8.282  0.00  0.00    -0.341 N 
ATOM     23  H   LIG    1       29.403 -22.032   9.059  0.00  0.00    +0.144 HD
ATOM     24  H   LIG    1       30.422 -20.751   8.481  0.00  0.00    +0.144 HD
ENDBRANCH   1  22
TORSDOF 5
ENDMDL
MODEL 8
REMARK VINA RESULT:      -6.3      3.752      6.057
REMARK  Name = *****
REMARK                            x       y       z     vdW  Elec       q    Type
REMARK                         _______ _______ _______ _____ _____    ______ ____
ROOT
ATOM      1  C   LIG    1       28.911 -19.372   6.032  0.00  0.00    +0.149 A 
ATOM      2  C   LIG    1       27.627 -19.878   5.767  0.00  0.00    +0.147 A 
ATOM      3  N   LIG    1       26.650 -19.507   4.867  0.00  0.00    -0.231 NA
ATOM      4  C   LIG    1       25.665 -20.353   5.074  0.00  0.00    +0.203 A 
ATOM      5  N   LIG    1       25.950 -21.244   6.076  0.00  0.00    -0.285 N 
ATOM      6  C   LIG    1       27.219 -20.972   6.510  0.00  0.00    +0.169 A 
ATOM      7  N   LIG    1       27.921 -21.618   7.457  0.00  0.00    -0.198 NA
ATOM      8  C   LIG    1       29.135 -21.046   7.606  0.00  0.00    +0.226 A 
ATOM      9 CL   LIG    1       30.152 -21.791   8.765  0.00  0.00    -0.041 Cl
ATOM     10  N   LIG    1       29.671 -19.991   6.961  0.00  0.00    -0.201 NA
ENDROOT
BRANCH   5  11
ATOM     11  C   LIG    1       25.099 -22.298   6.583  0.00  0.00    +0.259 C 
ATOM     12  C   LIG    1       24.212 -22.946   5.531  0.00  0.00    +0.246 C 
ATOM     13  F   LIG    1       24.882 -23.060   4.353  0.00  0.00    -0.238 F 
ATOM     14  C   LIG    1       23.985 -24.324   6.112  0.00  0.00    +0.184 C 
ATOM     15  C   LIG    1       25.290 -24.621   6.854  0.00  0.00    +0.178 C 
ATOM     16  O   LIG    1       25.922 -23.351   7.140  0.00  0.00    -0.345 OA
BRANCH  14  17
ATOM     17  O   LIG    1       22.897 -24.249   7.047  0.00  0.00    -0.386 OA
ATOM     18  H   LIG    1       22.228 -23.645   6.677  0.00  0.00    +0.210 HD
ENDBRANCH  14  17
BRANCH  15  19
ATOM     19  C   LIG    1       26.279 -25.495   6.076  0.00  0.00    +0.190 C 
BRANCH  19  20
ATOM     20  O   LIG    1       25.739 -25.997   4.863  0.00  0.00    -0.392 OA
ATOM     21  H   LIG    1       25.688 -25.265   4.223  0.00  0.00    +0.209 HD
ENDBRANCH  19  20
ENDBRANCH  15  19
ENDBRANCH   5  11
BRANCH   1  22
ATOM     22  N   LIG    1       29.443 -18.275   5.366  0.00  0.00    -0.341 N 
ATOM     23  H   LIG    1       29.433 -17.420   5.912  0.00  0.00    +0.144 HD
ATOM     24  H   LIG    1       29.155 -18.222   4.399  0.00  0.00    +0.144 HD
ENDBRANCH   1  22
TORSDOF 5
ENDMDL
MODEL 9
REMARK VINA RESULT:      -6.2      3.089      5.535
REMARK  Name = *****
REMARK                            x       y       z     vdW  Elec       q    Type
REMARK                         _______ _______ _______ _____ _____    ______ ____
ROOT
ATOM      1  C   LIG    1       30.644 -19.227   7.112  0.00  0.00    +0.149 A 
ATOM      2  C   LIG    1       29.827 -20.271   7.581  0.00  0.00    +0.147 A 
ATOM      3  N   LIG    1       30.006 -21.219   8.566  0.00  0.00    -0.231 NA
ATOM      4  C   LIG    1       28.897 -21.925   8.557  0.00  0.00    +0.203 A 
ATOM      5  N   LIG    1       28.014 -21.489   7.603  0.00  0.00    -0.285 N 
ATOM      6  C   LIG    1       28.584 -20.409   6.988  0.00  0.00    +0.169 A 
ATOM      7  N   LIG    1       28.060 -19.644   6.015  0.00  0.00    -0.198 NA
ATOM      8  C   LIG    1       28.932 -18.675   5.664  0.00  0.00    +0.226 A 
ATOM      9 CL   LIG    1       28.379 -17.604   4.448  0.00  0.00    -0.041 Cl
ATOM     10  N   LIG    1       30.164 -18.415   6.147  0.00  0.00    -0.201 NA
ENDROOT
BRANCH   5  11
ATOM     11  C   LIG    1       26.710 -22.037   7.297  0.00  0.00    +0.259 C 
ATOM     12  C   LIG    1       25.561 -21.358   8.027  0.00  0.00    +0.246 C 
ATOM     13  F   LIG    1       25.782 -20.019   8.115  0.00  0.00    -0.238 F 
ATOM     14  C   LIG    1       24.398 -21.611   7.092  0.00  0.00    +0.184 C 
ATOM     15  C   LIG    1       25.044 -21.600   5.704  0.00  0.00    +0.178 C 
ATOM     16  O   LIG    1       26.450 -21.888   5.881  0.00  0.00    -0.345 OA
BRANCH  14  17
ATOM     17  O   LIG    1       23.866 -22.915   7.373  0.00  0.00    -0.386 OA
ATOM     18  H   LIG    1       24.540 -23.410   7.875  0.00  0.00    +0.210 HD
ENDBRANCH  14  17
BRANCH  15  19
ATOM     19  C   LIG    1       24.907 -20.273   4.950  0.00  0.00    +0.190 C 
BRANCH  19  20
ATOM     20  O   LIG    1       25.936 -20.071   3.994  0.00  0.00    -0.392 OA
ATOM     21  H   LIG    1       25.599 -19.475   3.301  0.00  0.00    +0.209 HD
ENDBRANCH  19  20
ENDBRANCH  15  19
ENDBRANCH   5  11
BRANCH   1  22
ATOM     22  N   LIG    1       31.916 -18.981   7.613  0.00  0.00    -0.341 N 
ATOM     23  H   LIG    1       31.918 -18.499   8.506  0.00  0.00    +0.144 HD
ATOM     24  H   LIG    1       32.566 -18.670   6.905  0.00  0.00    +0.144 HD
ENDBRANCH   1  22
TORSDOF 5
ENDMDL
