MODEL 1
REMARK VINA RESULT:      27.7      0.000      0.000
REMARK  Name = *****
REMARK                            x       y       z     vdW  Elec       q    Type
REMARK                         _______ _______ _______ _____ _____    ______ ____
ROOT
ATOM      1  C   LIG    1       28.131 -13.416   3.971  0.00  0.00    +0.132 A 
ATOM      2  C   LIG    1       26.971 -14.184   4.217  0.00  0.00    +0.075 A 
ATOM      3  C   LIG    1       26.859 -15.639   3.888  0.00  0.00    +0.202 C 
ATOM      4  C   LIG    1       25.555 -16.338   4.017  0.00  0.00    +0.078 A 
ATOM      5  C   LIG    1       24.462 -15.661   4.549  0.00  0.00    +0.078 A 
ATOM      6  C   LIG    1       24.623 -14.283   5.030  0.00  0.00    +0.198 C 
ATOM      7  O   LIG    1       23.676 -13.732   5.605  0.00  0.00    -0.286 OA
ATOM      8  C   LIG    1       23.209 -16.280   4.609  0.00  0.00    +0.132 A 
ATOM      9  C   LIG    1       23.022 -17.590   4.148  0.00  0.00    +0.007 A 
ATOM     10  C   LIG    1       21.610 -18.143   4.143  0.00  0.00    +0.082 C 
ATOM     11  C   LIG    1       21.513 -19.638   3.845  0.00  0.00    +0.133 C 
ATOM     12  C   LIG    1       22.474 -19.965   2.691  0.00  0.00    +0.079 C 
ATOM     13  C   LIG    1       23.932 -19.746   3.115  0.00  0.00    +0.158 C 
ATOM     14  C   LIG    1       24.118 -18.314   3.629  0.00  0.00    +0.030 A 
ATOM     15  C   LIG    1       25.374 -17.671   3.576  0.00  0.00    +0.135 A 
ATOM     16  O   LIG    1       27.821 -16.308   3.496  0.00  0.00    -0.286 OA
ATOM     17  C   LIG    1       25.869 -13.545   4.802  0.00  0.00    +0.037 A 
ATOM     18  C   LIG    1       25.904 -12.191   5.152  0.00  0.00    +0.012 A 
ATOM     19  C   LIG    1       27.047 -11.447   4.917  0.00  0.00    +0.004 A 
ATOM     20  C   LIG    1       28.154 -12.057   4.329  0.00  0.00    +0.046 A 
ENDROOT
BRANCH   1  22
ATOM     21  C   LIG    1       29.451 -13.735   1.998  0.00  0.00    +0.277 C 
ATOM     22  O   LIG    1       29.194 -14.035   3.366  0.00  0.00    -0.494 OA
ENDBRANCH   1  22
BRANCH   8  23
ATOM     23  O   LIG    1       22.094 -15.627   5.082  0.00  0.00    -0.506 OA
ATOM     24  H   LIG    1       22.352 -14.720   5.361  0.00  0.00    +0.292 HD
ENDBRANCH   8  23
BRANCH  11  25
ATOM     25  O   LIG    1       21.803 -20.386   5.029  0.00  0.00    -0.381 OA
ATOM     26  H   LIG    1       22.064 -21.296   4.767  0.00  0.00    +0.211 HD
ENDBRANCH  11  25
BRANCH  11  27
ATOM     27  C   LIG    1       20.066 -19.998   3.473  0.00  0.00    +0.190 C 
ATOM     28  O   LIG    1       19.450 -19.435   2.561  0.00  0.00    -0.292 OA
BRANCH  27  29
ATOM     29  C   LIG    1       19.382 -21.078   4.316  0.00  0.00    +0.233 C 
BRANCH  29  30
ATOM     30  O   LIG    1       20.218 -21.569   5.354  0.00  0.00    -0.387 OA
ATOM     31  H   LIG    1       20.968 -20.946   5.419  0.00  0.00    +0.210 HD
ENDBRANCH  29  30
ENDBRANCH  27  29
ENDBRANCH  11  27
BRANCH  15  32
ATOM     32  O   LIG    1       26.419 -18.387   3.041  0.00  0.00    -0.506 OA
ATOM     33  H   LIG    1       26.074 -18.944   2.305  0.00  0.00    +0.292 HD
ENDBRANCH  15  32
BRANCH  13  34
ATOM     34  O   LIG    1       24.312 -20.659   4.162  0.00  0.00    -0.343 OA
BRANCH  34  35
ATOM     35  C   LIG    1       25.694 -20.625   4.574  0.00  0.00    +0.253 C 
ATOM     36  O   LIG    1       25.719 -20.208   5.946  0.00  0.00    -0.346 OA
ATOM     37  C   LIG    1       27.023 -20.161   6.549  0.00  0.00    +0.148 C 
ATOM     38  C   LIG    1       27.595 -21.547   6.835  0.00  0.00    +0.040 C 
ATOM     39  C   LIG    1       27.953 -19.229   5.754  0.00  0.00    +0.160 C 
ATOM     40  C   LIG    1       27.956 -19.496   4.235  0.00  0.00    +0.087 C 
ATOM     41  C   LIG    1       26.527 -19.678   3.715  0.00  0.00    +0.082 C 
BRANCH  40  42
ATOM     42  N   LIG    1       28.815 -20.610   3.807  0.00  0.00    -0.325 NA
ATOM     43  H   LIG    1       28.539 -20.914   2.872  0.00  0.00    +0.119 HD
ATOM     44  H   LIG    1       29.795 -20.353   3.746  0.00  0.00    +0.119 HD
ENDBRANCH  40  42
BRANCH  39  45
ATOM     45  O   LIG    1       27.499 -17.877   5.957  0.00  0.00    -0.388 OA
ATOM     46  H   LIG    1       26.944 -17.646   5.187  0.00  0.00    +0.210 HD
ENDBRANCH  39  45
ENDBRANCH  34  35
ENDBRANCH  13  34
TORSDOF 11
ENDMDL
MODEL 2
REMARK VINA RESULT:      28.7      1.162      1.530
REMARK  Name = *****
REMARK                            x       y       z     vdW  Elec       q    Type
REMARK                         _______ _______ _______ _____ _____    ______ ____
ROOT
ATOM      1  C   LIG    1       28.340 -13.140   4.127  0.00  0.00    +0.132 A 
ATOM      2  C   LIG    1       27.210 -13.960   4.347  0.00  0.00    +0.075 A 
ATOM      3  C   LIG    1       27.034 -15.306   3.720  0.00  0.00    +0.202 C 
ATOM      4  C   LIG    1       25.747 -16.035   3.861  0.00  0.00    +0.078 A 
ATOM      5  C   LIG    1       24.745 -15.510   4.670  0.00  0.00    +0.078 A 
ATOM      6  C   LIG    1       24.989 -14.270   5.419  0.00  0.00    +0.198 C 
ATOM      7  O   LIG    1       24.134 -13.875   6.222  0.00  0.00    -0.286 OA
ATOM      8  C   LIG    1       23.501 -16.144   4.756  0.00  0.00    +0.132 A 
ATOM      9  C   LIG    1       23.234 -17.321   4.043  0.00  0.00    +0.007 A 
ATOM     10  C   LIG    1       21.826 -17.879   4.102  0.00  0.00    +0.082 C 
ATOM     11  C   LIG    1       21.667 -19.271   3.494  0.00  0.00    +0.133 C 
ATOM     12  C   LIG    1       22.462 -19.320   2.179  0.00  0.00    +0.079 C 
ATOM     13  C   LIG    1       23.967 -19.180   2.445  0.00  0.00    +0.158 C 
ATOM     14  C   LIG    1       24.241 -17.895   3.236  0.00  0.00    +0.030 A 
ATOM     15  C   LIG    1       25.489 -17.239   3.162  0.00  0.00    +0.135 A 
ATOM     16  O   LIG    1       27.925 -15.858   3.065  0.00  0.00    -0.286 OA
ATOM     17  C   LIG    1       26.206 -13.483   5.200  0.00  0.00    +0.037 A 
ATOM     18  C   LIG    1       26.307 -12.240   5.834  0.00  0.00    +0.012 A 
ATOM     19  C   LIG    1       27.420 -11.447   5.622  0.00  0.00    +0.004 A 
ATOM     20  C   LIG    1       28.431 -11.894   4.772  0.00  0.00    +0.046 A 
ENDROOT
BRANCH   1  22
ATOM     21  C   LIG    1       28.965 -13.713   1.887  0.00  0.00    +0.277 C 
ATOM     22  O   LIG    1       29.304 -13.593   3.264  0.00  0.00    -0.494 OA
ENDBRANCH   1  22
BRANCH   8  23
ATOM     23  O   LIG    1       22.469 -15.629   5.504  0.00  0.00    -0.506 OA
ATOM     24  H   LIG    1       22.796 -14.846   6.001  0.00  0.00    +0.292 HD
ENDBRANCH   8  23
BRANCH  11  25
ATOM     25  O   LIG    1       22.098 -20.260   4.433  0.00  0.00    -0.381 OA
ATOM     26  H   LIG    1       22.354 -19.808   5.266  0.00  0.00    +0.211 HD
ENDBRANCH  11  25
BRANCH  11  27
ATOM     27  C   LIG    1       20.178 -19.561   3.245  0.00  0.00    +0.190 C 
ATOM     28  O   LIG    1       19.368 -18.679   2.937  0.00  0.00    -0.292 OA
BRANCH  27  29
ATOM     29  C   LIG    1       19.712 -21.007   3.434  0.00  0.00    +0.233 C 
BRANCH  29  30
ATOM     30  O   LIG    1       19.803 -21.436   4.785  0.00  0.00    -0.387 OA
ATOM     31  H   LIG    1       20.040 -22.383   4.755  0.00  0.00    +0.210 HD
ENDBRANCH  29  30
ENDBRANCH  27  29
ENDBRANCH  11  27
BRANCH  15  32
ATOM     32  O   LIG    1       26.443 -17.803   2.348  0.00  0.00    -0.506 OA
ATOM     33  H   LIG    1       26.150 -17.713   1.412  0.00  0.00    +0.292 HD
ENDBRANCH  15  32
BRANCH  13  34
ATOM     34  O   LIG    1       24.467 -20.297   3.204  0.00  0.00    -0.343 OA
BRANCH  34  35
ATOM     35  C   LIG    1       25.555 -20.023   4.110  0.00  0.00    +0.253 C 
ATOM     36  O   LIG    1       26.696 -19.680   3.313  0.00  0.00    -0.346 OA
ATOM     37  C   LIG    1       27.877 -19.325   4.052  0.00  0.00    +0.148 C 
ATOM     38  C   LIG    1       27.773 -17.951   4.710  0.00  0.00    +0.040 C 
ATOM     39  C   LIG    1       28.286 -20.466   4.998  0.00  0.00    +0.160 C 
ATOM     40  C   LIG    1       27.127 -21.009   5.859  0.00  0.00    +0.087 C 
ATOM     41  C   LIG    1       25.872 -21.216   5.007  0.00  0.00    +0.082 C 
BRANCH  40  42
ATOM     42  N   LIG    1       26.823 -20.213   7.057  0.00  0.00    -0.325 NA
ATOM     43  H   LIG    1       25.973 -19.669   6.898  0.00  0.00    +0.119 HD
ATOM     44  H   LIG    1       26.647 -20.785   7.878  0.00  0.00    +0.119 HD
ENDBRANCH  40  42
BRANCH  39  45
ATOM     45  O   LIG    1       28.776 -21.553   4.191  0.00  0.00    -0.388 OA
ATOM     46  H   LIG    1       29.727 -21.388   4.041  0.00  0.00    +0.210 HD
ENDBRANCH  39  45
ENDBRANCH  34  35
ENDBRANCH  13  34
TORSDOF 11
ENDMDL
