MODEL 1
REMARK VINA RESULT:      -5.4      0.000      0.000
REMARK  Name = *****
REMARK                            x       y       z     vdW  Elec       q    Type
REMARK                         _______ _______ _______ _____ _____    ______ ____
ROOT
ATOM      1  C   LIG    1       27.666 -20.108   5.537  0.00  0.00    +0.053 C 
ENDROOT
BRANCH   1   2
ATOM      2  C   LIG    1       26.178 -20.315   5.685  0.00  0.00    -0.046 A 
ATOM      3  C   LIG    1       25.623 -20.667   6.923  0.00  0.00    +0.003 A 
ATOM      4  C   LIG    1       24.242 -20.826   7.058  0.00  0.00    +0.000 A 
ATOM      5  C   LIG    1       23.405 -20.626   5.961  0.00  0.00    +0.000 A 
ATOM      6  C   LIG    1       23.947 -20.276   4.728  0.00  0.00    +0.000 A 
ATOM      7  C   LIG    1       25.325 -20.124   4.588  0.00  0.00    +0.003 A 
ENDBRANCH   1   2
BRANCH   1   9
ATOM      8  C   LIG    1       29.474 -18.995   6.969  0.00  0.00    +0.024 C 
ATOM      9  C   LIG    1       28.436 -20.113   6.876  0.00  0.00    +0.052 C 
BRANCH   9  10
ATOM     10  N   LIG    1       29.132 -21.395   7.059  0.00  0.00    -0.327 NA
ATOM     11  H   LIG    1       28.810 -21.842   7.918  0.00  0.00    +0.118 HD
ATOM     12  H   LIG    1       28.891 -22.031   6.301  0.00  0.00    +0.118 HD
ENDBRANCH   9  10
ENDBRANCH   1   9
TORSDOF 3
ENDMDL
MODEL 2
REMARK VINA RESULT:      -5.2      1.316      1.766
REMARK  Name = *****
REMARK                            x       y       z     vdW  Elec       q    Type
REMARK                         _______ _______ _______ _____ _____    ______ ____
ROOT
ATOM      1  C   LIG    1       26.398 -20.489   4.863  0.00  0.00    +0.053 C 
ENDROOT
BRANCH   1   2
ATOM      2  C   LIG    1       24.947 -20.072   4.833  0.00  0.00    -0.046 A 
ATOM      3  C   LIG    1       24.062 -20.488   5.836  0.00  0.00    +0.003 A 
ATOM      4  C   LIG    1       22.728 -20.073   5.817  0.00  0.00    +0.000 A 
ATOM      5  C   LIG    1       22.273 -19.233   4.803  0.00  0.00    +0.000 A 
ATOM      6  C   LIG    1       23.145 -18.814   3.801  0.00  0.00    +0.000 A 
ATOM      7  C   LIG    1       24.474 -19.234   3.814  0.00  0.00    +0.003 A 
ENDBRANCH   1   2
BRANCH   1   9
ATOM      8  C   LIG    1       28.486 -19.700   6.119  0.00  0.00    +0.024 C 
ATOM      9  C   LIG    1       27.080 -20.289   6.234  0.00  0.00    +0.052 C 
BRANCH   9  10
ATOM     10  N   LIG    1       27.182 -21.572   6.944  0.00  0.00    -0.327 NA
ATOM     11  H   LIG    1       28.155 -21.879   6.961  0.00  0.00    +0.118 HD
ATOM     12  H   LIG    1       26.905 -21.452   7.917  0.00  0.00    +0.118 HD
ENDBRANCH   9  10
ENDBRANCH   1   9
TORSDOF 3
ENDMDL
MODEL 3
REMARK VINA RESULT:      -4.8      2.722      4.802
REMARK  Name = *****
REMARK                            x       y       z     vdW  Elec       q    Type
REMARK                         _______ _______ _______ _____ _____    ______ ____
ROOT
ATOM      1  C   LIG    1       24.276 -20.016   4.202  0.00  0.00    +0.053 C 
ENDROOT
BRANCH   1   2
ATOM      2  C   LIG    1       25.469 -20.271   5.091  0.00  0.00    -0.046 A 
ATOM      3  C   LIG    1       26.702 -19.662   4.827  0.00  0.00    +0.003 A 
ATOM      4  C   LIG    1       27.793 -19.879   5.672  0.00  0.00    +0.000 A 
ATOM      5  C   LIG    1       27.657 -20.700   6.790  0.00  0.00    +0.000 A 
ATOM      6  C   LIG    1       26.436 -21.310   7.062  0.00  0.00    +0.000 A 
ATOM      7  C   LIG    1       25.348 -21.101   6.215  0.00  0.00    +0.003 A 
ENDBRANCH   1   2
BRANCH   1   9
ATOM      8  C   LIG    1       21.962 -20.879   4.882  0.00  0.00    +0.024 C 
ATOM      9  C   LIG    1       22.968 -19.732   4.975  0.00  0.00    +0.052 C 
BRANCH   9  10
ATOM     10  N   LIG    1       22.323 -18.519   4.454  0.00  0.00    -0.327 NA
ATOM     11  H   LIG    1       22.937 -17.716   4.590  0.00  0.00    +0.118 HD
ATOM     12  H   LIG    1       22.186 -18.604   3.448  0.00  0.00    +0.118 HD
ENDBRANCH   9  10
ENDBRANCH   1   9
TORSDOF 3
ENDMDL
MODEL 4
REMARK VINA RESULT:      -4.7      7.438      7.879
REMARK  Name = *****
REMARK                            x       y       z     vdW  Elec       q    Type
REMARK                         _______ _______ _______ _____ _____    ______ ____
ROOT
ATOM      1  C   LIG    1       26.532 -14.708   3.344  0.00  0.00    +0.053 C 
ENDROOT
BRANCH   1   2
ATOM      2  C   LIG    1       25.533 -13.583   3.216  0.00  0.00    -0.046 A 
ATOM      3  C   LIG    1       24.700 -13.240   4.289  0.00  0.00    +0.003 A 
ATOM      4  C   LIG    1       23.800 -12.178   4.172  0.00  0.00    +0.000 A 
ATOM      5  C   LIG    1       23.732 -11.447   2.987  0.00  0.00    +0.000 A 
ATOM      6  C   LIG    1       24.556 -11.781   1.916  0.00  0.00    +0.000 A 
ATOM      7  C   LIG    1       25.449 -12.845   2.027  0.00  0.00    +0.003 A 
ENDBRANCH   1   2
BRANCH   1   9
ATOM      8  C   LIG    1       27.526 -13.436   5.332  0.00  0.00    +0.024 C 
ATOM      9  C   LIG    1       27.811 -14.325   4.121  0.00  0.00    +0.052 C 
BRANCH   9  10
ATOM     10  N   LIG    1       28.745 -13.609   3.242  0.00  0.00    -0.327 NA
ATOM     11  H   LIG    1       28.327 -13.487   2.320  0.00  0.00    +0.118 HD
ATOM     12  H   LIG    1       28.911 -12.671   3.604  0.00  0.00    +0.118 HD
ENDBRANCH   9  10
ENDBRANCH   1   9
TORSDOF 3
ENDMDL
MODEL 5
REMARK VINA RESULT:      -4.7      7.412      7.984
REMARK  Name = *****
REMARK                            x       y       z     vdW  Elec       q    Type
REMARK                         _______ _______ _______ _____ _____    ______ ____
ROOT
ATOM      1  C   LIG    1       26.431 -14.754   3.427  0.00  0.00    +0.053 C 
ENDROOT
BRANCH   1   2
ATOM      2  C   LIG    1       25.494 -13.580   3.271  0.00  0.00    -0.046 A 
ATOM      3  C   LIG    1       25.393 -12.902   2.049  0.00  0.00    +0.003 A 
ATOM      4  C   LIG    1       24.501 -11.837   1.905  0.00  0.00    +0.000 A 
ATOM      5  C   LIG    1       23.699 -11.448   2.976  0.00  0.00    +0.000 A 
ATOM      6  C   LIG    1       23.792 -12.115   4.194  0.00  0.00    +0.000 A 
ATOM      7  C   LIG    1       24.687 -13.173   4.343  0.00  0.00    +0.003 A 
ENDBRANCH   1   2
BRANCH   1   9
ATOM      8  C   LIG    1       27.543 -13.574   5.409  0.00  0.00    +0.024 C 
ATOM      9  C   LIG    1       27.754 -14.408   4.145  0.00  0.00    +0.052 C 
BRANCH   9  10
ATOM     10  N   LIG    1       28.640 -13.654   3.247  0.00  0.00    -0.327 NA
ATOM     11  H   LIG    1       28.186 -13.527   2.343  0.00  0.00    +0.118 HD
ATOM     12  H   LIG    1       28.797 -12.719   3.620  0.00  0.00    +0.118 HD
ENDBRANCH   9  10
ENDBRANCH   1   9
TORSDOF 3
ENDMDL
MODEL 6
REMARK VINA RESULT:      -4.6      2.000      2.899
REMARK  Name = *****
REMARK                            x       y       z     vdW  Elec       q    Type
REMARK                         _______ _______ _______ _____ _____    ______ ____
ROOT
ATOM      1  C   LIG    1       25.148 -21.468   4.768  0.00  0.00    +0.053 C 
ENDROOT
BRANCH   1   2
ATOM      2  C   LIG    1       24.139 -20.360   4.594  0.00  0.00    -0.046 A 
ATOM      3  C   LIG    1       22.913 -20.394   5.272  0.00  0.00    +0.003 A 
ATOM      4  C   LIG    1       21.998 -19.349   5.129  0.00  0.00    +0.000 A 
ATOM      5  C   LIG    1       22.303 -18.259   4.316  0.00  0.00    +0.000 A 
ATOM      6  C   LIG    1       23.518 -18.216   3.638  0.00  0.00    +0.000 A 
ATOM      7  C   LIG    1       24.430 -19.261   3.773  0.00  0.00    +0.003 A 
ENDBRANCH   1   2
BRANCH   1   9
ATOM      8  C   LIG    1       25.670 -20.456   7.062  0.00  0.00    +0.024 C 
ATOM      9  C   LIG    1       26.229 -21.171   5.831  0.00  0.00    +0.052 C 
BRANCH   9  10
ATOM     10  N   LIG    1       27.289 -20.329   5.259  0.00  0.00    -0.327 NA
ATOM     11  H   LIG    1       28.045 -20.917   4.910  0.00  0.00    +0.118 HD
ATOM     12  H   LIG    1       26.929 -19.821   4.453  0.00  0.00    +0.118 HD
ENDBRANCH   9  10
ENDBRANCH   1   9
TORSDOF 3
ENDMDL
MODEL 7
REMARK VINA RESULT:      -4.6      3.429      5.283
REMARK  Name = *****
REMARK                            x       y       z     vdW  Elec       q    Type
REMARK                         _______ _______ _______ _____ _____    ______ ____
ROOT
ATOM      1  C   LIG    1       22.153 -19.887   4.958  0.00  0.00    +0.053 C 
ENDROOT
BRANCH   1   2
ATOM      2  C   LIG    1       23.575 -20.178   5.374  0.00  0.00    -0.046 A 
ATOM      3  C   LIG    1       24.642 -19.927   4.502  0.00  0.00    +0.003 A 
ATOM      4  C   LIG    1       25.957 -20.171   4.907  0.00  0.00    +0.000 A 
ATOM      5  C   LIG    1       26.214 -20.659   6.187  0.00  0.00    +0.000 A 
ATOM      6  C   LIG    1       25.161 -20.912   7.061  0.00  0.00    +0.000 A 
ATOM      7  C   LIG    1       23.847 -20.677   6.657  0.00  0.00    +0.003 A 
ENDBRANCH   1   2
BRANCH   1   9
ATOM      8  C   LIG    1       22.223 -17.333   4.780  0.00  0.00    +0.024 C 
ATOM      9  C   LIG    1       22.010 -18.653   4.039  0.00  0.00    +0.052 C 
BRANCH   9  10
ATOM     10  N   LIG    1       20.671 -18.623   3.433  0.00  0.00    -0.327 NA
ATOM     11  H   LIG    1       20.604 -19.338   2.710  0.00  0.00    +0.118 HD
ATOM     12  H   LIG    1       19.969 -18.859   4.133  0.00  0.00    +0.118 HD
ENDBRANCH   9  10
ENDBRANCH   1   9
TORSDOF 3
ENDMDL
MODEL 8
REMARK VINA RESULT:      -4.5      6.229      6.836
REMARK  Name = *****
REMARK                            x       y       z     vdW  Elec       q    Type
REMARK                         _______ _______ _______ _____ _____    ______ ____
ROOT
ATOM      1  C   LIG    1       27.266 -15.025   4.101  0.00  0.00    +0.053 C 
ENDROOT
BRANCH   1   2
ATOM      2  C   LIG    1       26.127 -14.121   3.697  0.00  0.00    -0.046 A 
ATOM      3  C   LIG    1       25.170 -13.713   4.635  0.00  0.00    +0.003 A 
ATOM      4  C   LIG    1       24.136 -12.851   4.260  0.00  0.00    +0.000 A 
ATOM      5  C   LIG    1       24.057 -12.385   2.949  0.00  0.00    +0.000 A 
ATOM      6  C   LIG    1       25.003 -12.785   2.009  0.00  0.00    +0.000 A 
ATOM      7  C   LIG    1       26.031 -13.651   2.379  0.00  0.00    +0.003 A 
ENDBRANCH   1   2
BRANCH   1   9
ATOM      8  C   LIG    1       25.786 -16.994   3.401  0.00  0.00    +0.024 C 
ATOM      9  C   LIG    1       27.206 -16.431   3.465  0.00  0.00    +0.052 C 
BRANCH   9  10
ATOM     10  N   LIG    1       28.033 -17.373   4.232  0.00  0.00    -0.327 NA
ATOM     11  H   LIG    1       28.793 -17.721   3.646  0.00  0.00    +0.118 HD
ATOM     12  H   LIG    1       28.476 -16.890   5.012  0.00  0.00    +0.118 HD
ENDBRANCH   9  10
ENDBRANCH   1   9
TORSDOF 3
ENDMDL
MODEL 9
REMARK VINA RESULT:      -4.5      6.195      6.949
REMARK  Name = *****
REMARK                            x       y       z     vdW  Elec       q    Type
REMARK                         _______ _______ _______ _____ _____    ______ ____
ROOT
ATOM      1  C   LIG    1       27.288 -15.045   4.111  0.00  0.00    +0.053 C 
ENDROOT
BRANCH   1   2
ATOM      2  C   LIG    1       26.165 -14.125   3.699  0.00  0.00    -0.046 A 
ATOM      3  C   LIG    1       26.071 -13.654   2.383  0.00  0.00    +0.003 A 
ATOM      4  C   LIG    1       25.010 -12.828   2.003  0.00  0.00    +0.000 A 
ATOM      5  C   LIG    1       24.034 -12.473   2.932  0.00  0.00    +0.000 A 
ATOM      6  C   LIG    1       24.119 -12.935   4.242  0.00  0.00    +0.000 A 
ATOM      7  C   LIG    1       25.180 -13.754   4.626  0.00  0.00    +0.003 A 
ENDBRANCH   1   2
BRANCH   1   9
ATOM      8  C   LIG    1       25.789 -17.000   3.410  0.00  0.00    +0.024 C 
ATOM      9  C   LIG    1       27.214 -16.450   3.472  0.00  0.00    +0.052 C 
BRANCH   9  10
ATOM     10  N   LIG    1       28.035 -17.400   4.235  0.00  0.00    -0.327 NA
ATOM     11  H   LIG    1       28.954 -16.996   4.413  0.00  0.00    +0.118 HD
ATOM     12  H   LIG    1       27.615 -17.565   5.149  0.00  0.00    +0.118 HD
ENDBRANCH   9  10
ENDBRANCH   1   9
TORSDOF 3
ENDMDL
