MODEL 1
REMARK VINA RESULT:      72.8      0.000      0.000
REMARK  Name = *****
REMARK                            x       y       z     vdW  Elec       q    Type
REMARK                         _______ _______ _______ _____ _____    ______ ____
ROOT
ATOM      1  C   LIG    1       20.675 -16.486   4.455  0.00  0.00    +0.210 C 
ATOM      2  C   LIG    1       20.675 -17.984   3.876  0.00  0.00    +0.126 C 
ATOM      3  C   LIG    1       19.366 -18.729   4.216  0.00  0.00    +0.048 C 
ATOM      4  C   LIG    1       21.929 -18.904   4.262  0.00  0.00    +0.160 C 
ATOM      5  C   LIG    1       23.264 -18.709   3.482  0.00  0.00    +0.035 C 
ATOM      6  C   LIG    1       23.132 -18.968   1.957  0.00  0.00    +0.012 C 
ATOM      7  C   LIG    1       24.309 -19.667   4.158  0.00  0.00    +0.064 C 
ATOM      8  N   LIG    1       23.869 -21.047   3.939  0.00  0.00    -0.286 NA
ATOM      9  H   LIG    1       24.494 -21.709   4.398  0.00  0.00    +0.125 HD
ATOM     10  C   LIG    1       22.552 -21.286   4.499  0.00  0.00    +0.213 C 
ATOM     11  C   LIG    1       25.795 -19.383   3.732  0.00  0.00    +0.006 C 
ATOM     12  C   LIG    1       26.653 -20.655   3.511  0.00  0.00    +0.009 C 
ATOM     13  C   LIG    1       26.534 -18.437   4.799  0.00  0.00    +0.042 C 
ATOM     14  C   LIG    1       26.994 -17.012   4.348  0.00  0.00    +0.090 C 
ATOM     15  C   LIG    1       28.530 -16.836   4.538  0.00  0.00    +0.044 C 
ATOM     16  C   LIG    1       26.259 -15.632   5.037  0.00  0.00    +0.158 C 
ATOM     17  C   LIG    1       25.569 -14.855   3.827  0.00  0.00    +0.047 C 
ATOM     18  C   LIG    1       26.704 -14.393   2.859  0.00  0.00    +0.013 C 
ATOM     19  C   LIG    1       24.512 -13.654   3.927  0.00  0.00    +0.140 C 
ATOM     20  C   LIG    1       23.203 -13.976   3.116  0.00  0.00    +0.124 C 
ATOM     21  C   LIG    1       23.358 -14.815   1.850  0.00  0.00    +0.022 C 
ATOM     22  C   LIG    1       21.978 -14.476   3.950  0.00  0.00    +0.313 C 
ATOM     23  O   LIG    1       21.088 -13.755   4.255  0.00  0.00    -0.250 OA
ATOM     24  O   LIG    1       21.568 -20.300   4.105  0.00  0.00    -0.353 OA
ATOM     25  O   LIG    1       21.990 -15.842   4.194  0.00  0.00    -0.458 OA
ENDROOT
BRANCH   1  27
ATOM     26  C   LIG    1       19.573 -14.964   6.333  0.00  0.00    +0.007 C 
ATOM     27  C   LIG    1       20.234 -16.294   5.941  0.00  0.00    +0.044 C 
ENDBRANCH   1  27
BRANCH  14  28
ATOM     28  O   LIG    1       26.809 -17.045   2.915  0.00  0.00    -0.386 OA
ATOM     29  H   LIG    1       27.596 -17.425   2.489  0.00  0.00    +0.210 HD
ENDBRANCH  14  28
BRANCH   2  30
ATOM     30  O   LIG    1       20.587 -17.839   2.443  0.00  0.00    -0.383 OA
ATOM     31  H   LIG    1       19.859 -18.422   2.156  0.00  0.00    +0.210 HD
ENDBRANCH   2  30
BRANCH  16  32
ATOM     32  O   LIG    1       25.432 -15.931   6.216  0.00  0.00    -0.342 OA
BRANCH  32  33
ATOM     33  C   LIG    1       24.009 -16.150   5.937  0.00  0.00    +0.281 C 
ATOM     34  C   LIG    1       23.520 -15.849   4.442  0.00  0.00    +0.187 C 
ATOM     35  C   LIG    1       23.311 -17.115   3.495  0.00  0.00    +0.092 C 
ATOM     36  C   LIG    1       23.396 -18.374   4.366  0.00  0.00    +0.053 C 
ATOM     37  C   LIG    1       22.620 -18.097   5.644  0.00  0.00    +0.120 C 
ATOM     38  C   LIG    1       22.164 -19.362   6.351  0.00  0.00    +0.038 C 
ATOM     39  O   LIG    1       23.489 -17.366   6.509  0.00  0.00    -0.346 OA
BRANCH  35  40
ATOM     40  N   LIG    1       24.064 -17.220   2.200  0.00  0.00    -0.303 NA
ATOM     41  C   LIG    1       24.781 -16.005   1.820  0.00  0.00    +0.105 C 
ATOM     42  C   LIG    1       25.010 -18.358   2.188  0.00  0.00    +0.105 C 
ENDBRANCH  35  40
BRANCH  34  43
ATOM     43  O   LIG    1       22.186 -15.255   4.641  0.00  0.00    -0.385 OA
ATOM     44  H   LIG    1       21.506 -15.933   4.495  0.00  0.00    +0.210 HD
ENDBRANCH  34  43
ENDBRANCH  32  33
ENDBRANCH  16  32
BRANCH  19  45
ATOM     45  O   LIG    1       25.182 -12.411   3.471  0.00  0.00    -0.347 OA
BRANCH  45  46
ATOM     46  C   LIG    1       26.584 -12.170   3.756  0.00  0.00    +0.254 C 
ATOM     47  O   LIG    1       27.377 -12.831   2.787  0.00  0.00    -0.346 OA
ATOM     48  C   LIG    1       28.796 -12.803   2.945  0.00  0.00    +0.150 C 
ATOM     49  C   LIG    1       29.423 -11.454   2.610  0.00  0.00    +0.040 C 
ATOM     50  C   LIG    1       29.178 -13.436   4.291  0.00  0.00    +0.175 C 
ATOM     51  C   LIG    1       28.435 -12.801   5.509  0.00  0.00    +0.099 C 
ATOM     52  C   LIG    1       29.095 -11.456   5.875  0.00  0.00    +0.044 C 
ATOM     53  C   LIG    1       26.919 -12.693   5.183  0.00  0.00    +0.098 C 
BRANCH  51  54
ATOM     54  O   LIG    1       28.648 -13.692   6.641  0.00  0.00    -0.374 OA
ATOM     55  C   LIG    1       28.939 -15.053   6.348  0.00  0.00    +0.195 C 
ENDBRANCH  51  54
BRANCH  50  56
ATOM     56  O   LIG    1       28.821 -14.835   4.180  0.00  0.00    -0.386 OA
ATOM     57  H   LIG    1       28.417 -14.949   3.299  0.00  0.00    +0.210 HD
ENDBRANCH  50  56
ENDBRANCH  45  46
ENDBRANCH  19  45
BRANCH  10  58
ATOM     58  C   LIG    1       22.535 -21.571   6.032  0.00  0.00    +0.207 C 
BRANCH  58  59
ATOM     59  O   LIG    1       23.494 -20.886   6.854  0.00  0.00    -0.374 OA
BRANCH  59  60
ATOM     60  C   LIG    1       24.760 -21.570   7.057  0.00  0.00    +0.188 C 
BRANCH  60  61
ATOM     61  C   LIG    1       25.877 -21.460   5.972  0.00  0.00    +0.187 C 
BRANCH  61  62
ATOM     62  O   LIG    1       26.923 -20.508   6.189  0.00  0.00    -0.381 OA
ATOM     63  C   LIG    1       28.027 -21.023   6.904  0.00  0.00    +0.194 C 
ENDBRANCH  61  62
ENDBRANCH  60  61
ENDBRANCH  59  60
ENDBRANCH  58  59
ENDBRANCH  10  58
TORSDOF 16
ENDMDL
