MODEL 1
REMARK VINA RESULT:      -7.4      0.000      0.000
REMARK  Name = *****
REMARK                            x       y       z     vdW  Elec       q    Type
REMARK                         _______ _______ _______ _____ _____    ______ ____
ROOT
ATOM      1  C   LIG    1       26.426 -20.428   7.879  0.00  0.00    -0.000 C 
ENDROOT
BRANCH   1   2
ATOM      2  C   LIG    1       26.111 -21.842   8.413  0.00  0.00    -0.000 C 
BRANCH   2   3
ATOM      3  C   LIG    1       26.234 -23.014   7.400  0.00  0.00    -0.000 C 
BRANCH   3   4
ATOM      4  C   LIG    1       24.917 -23.629   6.876  0.00  0.00    -0.000 C 
BRANCH   4   5
ATOM      5  C   LIG    1       24.189 -22.709   5.864  0.00  0.00    -0.000 C 
BRANCH   5   6
ATOM      6  C   LIG    1       23.037 -21.846   6.435  0.00  0.00    -0.000 C 
BRANCH   6   7
ATOM      7  C   LIG    1       23.160 -20.338   6.170  0.00  0.00    -0.000 C 
BRANCH   7   8
ATOM      8  C   LIG    1       22.339 -19.873   4.949  0.00  0.00    -0.000 C 
BRANCH   8   9
ATOM      9  C   LIG    1       23.156 -18.945   4.036  0.00  0.00    -0.000 C 
BRANCH   9  11
ATOM     10  C   LIG    1       25.532 -18.338   3.414  0.00  0.00    +0.004 C 
ATOM     11  C   LIG    1       24.577 -19.465   3.789  0.00  0.00    -0.003 C 
ENDBRANCH   9  11
ENDBRANCH   8   9
ENDBRANCH   7   8
ENDBRANCH   6   7
ENDBRANCH   5   6
ENDBRANCH   4   5
ENDBRANCH   3   4
ENDBRANCH   2   3
ENDBRANCH   1   2
BRANCH   1  12
ATOM     12  C   LIG    1       27.080 -20.377   6.459  0.00  0.00    -0.000 C 
BRANCH  12  13
ATOM     13  C   LIG    1       28.615 -20.375   6.532  0.00  0.00    +0.000 C 
BRANCH  13  14
ATOM     14  C   LIG    1       29.381 -19.059   6.293  0.00  0.00    +0.006 C 
BRANCH  14  15
ATOM     15  C   LIG    1       30.486 -18.662   7.307  0.00  0.00    +0.072 C 
BRANCH  15  16
ATOM     16  C   LIG    1       29.980 -18.400   8.729  0.00  0.00    +0.356 C 
BRANCH  16  17
ATOM     17  N   LIG    1       30.910 -17.689   9.693  0.00  0.00    -0.204 N 
ATOM     18  C   LIG    1       32.036 -17.111   9.152  0.00  0.00    +0.309 A 
ATOM     19  C   LIG    1       32.897 -16.343   9.930  0.00  0.00    +0.070 A 
ATOM     20  C   LIG    1       32.647 -16.170  11.273  0.00  0.00    +0.012 A 
ATOM     21  C   LIG    1       31.524 -16.786  11.829  0.00  0.00    +0.070 A 
ATOM     22  C   LIG    1       30.676 -17.551  11.011  0.00  0.00    +0.309 A 
ENDBRANCH  16  17
ENDBRANCH  15  16
ENDBRANCH  14  15
ENDBRANCH  13  14
ENDBRANCH  12  13
ENDBRANCH   1  12
TORSDOF 15
ENDMDL
MODEL 2
REMARK VINA RESULT:      -7.2      0.748      1.624
REMARK  Name = *****
REMARK                            x       y       z     vdW  Elec       q    Type
REMARK                         _______ _______ _______ _____ _____    ______ ____
ROOT
ATOM      1  C   LIG    1       26.251 -22.186   7.935  0.00  0.00    -0.000 C 
ENDROOT
BRANCH   1   2
ATOM      2  C   LIG    1       26.143 -23.322   6.897  0.00  0.00    -0.000 C 
BRANCH   2   3
ATOM      3  C   LIG    1       24.863 -23.343   6.015  0.00  0.00    -0.000 C 
BRANCH   3   4
ATOM      4  C   LIG    1       23.534 -23.697   6.718  0.00  0.00    -0.000 C 
BRANCH   4   5
ATOM      5  C   LIG    1       22.528 -22.519   6.723  0.00  0.00    -0.000 C 
BRANCH   5   6
ATOM      6  C   LIG    1       22.646 -21.518   5.548  0.00  0.00    -0.000 C 
BRANCH   6   7
ATOM      7  C   LIG    1       22.983 -20.075   5.951  0.00  0.00    -0.000 C 
BRANCH   7   8
ATOM      8  C   LIG    1       22.644 -19.049   4.849  0.00  0.00    -0.000 C 
BRANCH   8   9
ATOM      9  C   LIG    1       23.459 -19.301   3.570  0.00  0.00    -0.000 C 
BRANCH   9  11
ATOM     10  C   LIG    1       25.605 -17.984   3.314  0.00  0.00    +0.004 C 
ATOM     11  C   LIG    1       24.971 -19.274   3.821  0.00  0.00    -0.003 C 
ENDBRANCH   9  11
ENDBRANCH   8   9
ENDBRANCH   7   8
ENDBRANCH   6   7
ENDBRANCH   5   6
ENDBRANCH   4   5
ENDBRANCH   3   4
ENDBRANCH   2   3
ENDBRANCH   1   2
BRANCH   1  12
ATOM     12  C   LIG    1       26.173 -20.737   7.355  0.00  0.00    -0.000 C 
BRANCH  12  13
ATOM     13  C   LIG    1       27.339 -20.434   6.400  0.00  0.00    +0.000 C 
BRANCH  13  14
ATOM     14  C   LIG    1       28.769 -20.327   6.964  0.00  0.00    +0.006 C 
BRANCH  14  15
ATOM     15  C   LIG    1       29.545 -19.002   6.741  0.00  0.00    +0.072 C 
BRANCH  15  16
ATOM     16  C   LIG    1       30.927 -18.955   7.400  0.00  0.00    +0.356 C 
BRANCH  16  17
ATOM     17  N   LIG    1       31.122 -18.016   8.575  0.00  0.00    -0.204 N 
ATOM     18  C   LIG    1       30.123 -17.999   9.524  0.00  0.00    +0.309 A 
ATOM     19  C   LIG    1       30.253 -17.255  10.692  0.00  0.00    +0.070 A 
ATOM     20  C   LIG    1       31.382 -16.496  10.908  0.00  0.00    +0.012 A 
ATOM     21  C   LIG    1       32.378 -16.486   9.929  0.00  0.00    +0.070 A 
ATOM     22  C   LIG    1       32.213 -17.252   8.763  0.00  0.00    +0.309 A 
ENDBRANCH  16  17
ENDBRANCH  15  16
ENDBRANCH  14  15
ENDBRANCH  13  14
ENDBRANCH  12  13
ENDBRANCH   1  12
TORSDOF 15
ENDMDL
MODEL 3
REMARK VINA RESULT:      -7.2      2.805      5.835
REMARK  Name = *****
REMARK                            x       y       z     vdW  Elec       q    Type
REMARK                         _______ _______ _______ _____ _____    ______ ____
ROOT
ATOM      1  C   LIG    1       22.582 -20.590   5.420  0.00  0.00    -0.000 C 
ENDROOT
BRANCH   1   2
ATOM      2  C   LIG    1       23.168 -20.659   6.847  0.00  0.00    -0.000 C 
BRANCH   2   3
ATOM      3  C   LIG    1       23.561 -22.068   7.373  0.00  0.00    -0.000 C 
BRANCH   3   4
ATOM      4  C   LIG    1       22.749 -23.268   6.835  0.00  0.00    -0.000 C 
BRANCH   4   5
ATOM      5  C   LIG    1       23.640 -24.488   6.495  0.00  0.00    -0.000 C 
BRANCH   5   6
ATOM      6  C   LIG    1       25.096 -24.171   6.074  0.00  0.00    -0.000 C 
BRANCH   6   7
ATOM      7  C   LIG    1       26.130 -25.246   6.444  0.00  0.00    -0.000 C 
BRANCH   7   8
ATOM      8  C   LIG    1       25.507 -26.646   6.615  0.00  0.00    -0.000 C 
BRANCH   8   9
ATOM      9  C   LIG    1       25.660 -27.494   5.342  0.00  0.00    -0.000 C 
BRANCH   9  11
ATOM     10  C   LIG    1       24.282 -29.232   6.560  0.00  0.00    +0.004 C 
ATOM     11  C   LIG    1       24.577 -28.572   5.219  0.00  0.00    -0.003 C 
ENDBRANCH   9  11
ENDBRANCH   8   9
ENDBRANCH   7   8
ENDBRANCH   6   7
ENDBRANCH   5   6
ENDBRANCH   4   5
ENDBRANCH   3   4
ENDBRANCH   2   3
ENDBRANCH   1   2
BRANCH   1  12
ATOM     12  C   LIG    1       22.774 -19.226   4.681  0.00  0.00    -0.000 C 
BRANCH  12  13
ATOM     13  C   LIG    1       23.895 -19.292   3.631  0.00  0.00    +0.000 C 
BRANCH  13  14
ATOM     14  C   LIG    1       25.136 -20.163   3.904  0.00  0.00    +0.006 C 
BRANCH  14  15
ATOM     15  C   LIG    1       26.236 -19.596   4.841  0.00  0.00    +0.072 C 
BRANCH  15  16
ATOM     16  C   LIG    1       26.732 -20.577   5.908  0.00  0.00    +0.356 C 
BRANCH  16  17
ATOM     17  N   LIG    1       28.137 -20.389   6.446  0.00  0.00    -0.204 N 
ATOM     18  C   LIG    1       28.883 -19.376   5.884  0.00  0.00    +0.309 A 
ATOM     19  C   LIG    1       30.142 -19.051   6.378  0.00  0.00    +0.070 A 
ATOM     20  C   LIG    1       30.679 -19.760   7.429  0.00  0.00    +0.012 A 
ATOM     21  C   LIG    1       29.936 -20.810   7.975  0.00  0.00    +0.070 A 
ATOM     22  C   LIG    1       28.667 -21.108   7.452  0.00  0.00    +0.309 A 
ENDBRANCH  16  17
ENDBRANCH  15  16
ENDBRANCH  14  15
ENDBRANCH  13  14
ENDBRANCH  12  13
ENDBRANCH   1  12
TORSDOF 15
ENDMDL
MODEL 4
REMARK VINA RESULT:      -7.1      0.975      3.516
REMARK  Name = *****
REMARK                            x       y       z     vdW  Elec       q    Type
REMARK                         _______ _______ _______ _____ _____    ______ ____
ROOT
ATOM      1  C   LIG    1       25.903 -20.452   4.589  0.00  0.00    -0.000 C 
ENDROOT
BRANCH   1   2
ATOM      2  C   LIG    1       25.280 -19.178   3.980  0.00  0.00    -0.000 C 
BRANCH   2   3
ATOM      3  C   LIG    1       23.775 -19.250   3.600  0.00  0.00    -0.000 C 
BRANCH   3   4
ATOM      4  C   LIG    1       22.755 -19.141   4.756  0.00  0.00    -0.000 C 
BRANCH   4   5
ATOM      5  C   LIG    1       22.501 -20.496   5.460  0.00  0.00    -0.000 C 
BRANCH   5   6
ATOM      6  C   LIG    1       23.253 -20.721   6.795  0.00  0.00    -0.000 C 
BRANCH   6   7
ATOM      7  C   LIG    1       23.006 -22.083   7.461  0.00  0.00    -0.000 C 
BRANCH   7   8
ATOM      8  C   LIG    1       23.596 -23.261   6.658  0.00  0.00    -0.000 C 
BRANCH   8   9
ATOM      9  C   LIG    1       25.093 -23.450   6.947  0.00  0.00    -0.000 C 
BRANCH   9  11
ATOM     10  C   LIG    1       24.442 -25.761   6.148  0.00  0.00    +0.004 C 
ATOM     11  C   LIG    1       25.562 -24.889   6.702  0.00  0.00    -0.003 C 
ENDBRANCH   9  11
ENDBRANCH   8   9
ENDBRANCH   7   8
ENDBRANCH   6   7
ENDBRANCH   5   6
ENDBRANCH   4   5
ENDBRANCH   3   4
ENDBRANCH   2   3
ENDBRANCH   1   2
BRANCH   1  12
ATOM     12  C   LIG    1       26.733 -20.235   5.896  0.00  0.00    -0.000 C 
BRANCH  12  13
ATOM     13  C   LIG    1       28.130 -19.663   5.603  0.00  0.00    +0.000 C 
BRANCH  13  14
ATOM     14  C   LIG    1       29.306 -20.031   6.529  0.00  0.00    +0.006 C 
BRANCH  14  15
ATOM     15  C   LIG    1       30.064 -18.879   7.239  0.00  0.00    +0.072 C 
BRANCH  15  16
ATOM     16  C   LIG    1       29.726 -18.715   8.724  0.00  0.00    +0.356 C 
BRANCH  16  17
ATOM     17  N   LIG    1       30.661 -17.879   9.577  0.00  0.00    -0.204 N 
ATOM     18  C   LIG    1       31.788 -17.387   8.957  0.00  0.00    +0.309 A 
ATOM     19  C   LIG    1       32.654 -16.522   9.618  0.00  0.00    +0.070 A 
ATOM     20  C   LIG    1       32.409 -16.161  10.925  0.00  0.00    +0.012 A 
ATOM     21  C   LIG    1       31.284 -16.688  11.564  0.00  0.00    +0.070 A 
ATOM     22  C   LIG    1       30.431 -17.557  10.864  0.00  0.00    +0.309 A 
ENDBRANCH  16  17
ENDBRANCH  15  16
ENDBRANCH  14  15
ENDBRANCH  13  14
ENDBRANCH  12  13
ENDBRANCH   1  12
TORSDOF 15
ENDMDL
MODEL 5
REMARK VINA RESULT:      -7.0      1.926      4.105
REMARK  Name = *****
REMARK                            x       y       z     vdW  Elec       q    Type
REMARK                         _______ _______ _______ _____ _____    ______ ____
ROOT
ATOM      1  C   LIG    1       26.339 -20.974   8.344  0.00  0.00    -0.000 C 
ENDROOT
BRANCH   1   2
ATOM      2  C   LIG    1       24.939 -20.702   7.754  0.00  0.00    -0.000 C 
BRANCH   2   3
ATOM      3  C   LIG    1       24.805 -20.783   6.208  0.00  0.00    -0.000 C 
BRANCH   3   4
ATOM      4  C   LIG    1       23.849 -21.857   5.642  0.00  0.00    -0.000 C 
BRANCH   4   5
ATOM      5  C   LIG    1       23.297 -22.803   6.738  0.00  0.00    -0.000 C 
BRANCH   5   6
ATOM      6  C   LIG    1       23.774 -24.274   6.671  0.00  0.00    -0.000 C 
BRANCH   6   7
ATOM      7  C   LIG    1       25.293 -24.462   6.539  0.00  0.00    -0.000 C 
BRANCH   7   8
ATOM      8  C   LIG    1       25.742 -25.917   6.784  0.00  0.00    -0.000 C 
BRANCH   8   9
ATOM      9  C   LIG    1       26.152 -26.612   5.476  0.00  0.00    -0.000 C 
BRANCH   9  11
ATOM     10  C   LIG    1       24.455 -28.306   6.284  0.00  0.00    +0.004 C 
ATOM     11  C   LIG    1       25.183 -27.731   5.076  0.00  0.00    -0.003 C 
ENDBRANCH   9  11
ENDBRANCH   8   9
ENDBRANCH   7   8
ENDBRANCH   6   7
ENDBRANCH   5   6
ENDBRANCH   4   5
ENDBRANCH   3   4
ENDBRANCH   2   3
ENDBRANCH   1   2
BRANCH   1  12
ATOM     12  C   LIG    1       27.333 -21.720   7.396  0.00  0.00    -0.000 C 
BRANCH  12  13
ATOM     13  C   LIG    1       28.633 -20.927   7.186  0.00  0.00    +0.000 C 
BRANCH  13  14
ATOM     14  C   LIG    1       28.615 -19.668   6.296  0.00  0.00    +0.006 C 
BRANCH  14  15
ATOM     15  C   LIG    1       29.919 -18.837   6.180  0.00  0.00    +0.072 C 
BRANCH  15  16
ATOM     16  C   LIG    1       30.993 -19.188   7.214  0.00  0.00    +0.356 C 
BRANCH  16  17
ATOM     17  N   LIG    1       31.076 -18.338   8.468  0.00  0.00    -0.204 N 
ATOM     18  C   LIG    1       32.232 -17.610   8.644  0.00  0.00    +0.309 A 
ATOM     19  C   LIG    1       32.366 -16.717   9.703  0.00  0.00    +0.070 A 
ATOM     20  C   LIG    1       31.344 -16.565  10.614  0.00  0.00    +0.012 A 
ATOM     21  C   LIG    1       30.187 -17.330  10.454  0.00  0.00    +0.070 A 
ATOM     22  C   LIG    1       30.086 -18.219   9.371  0.00  0.00    +0.309 A 
ENDBRANCH  16  17
ENDBRANCH  15  16
ENDBRANCH  14  15
ENDBRANCH  13  14
ENDBRANCH  12  13
ENDBRANCH   1  12
TORSDOF 15
ENDMDL
MODEL 6
REMARK VINA RESULT:      -7.0      3.633      8.504
REMARK  Name = *****
REMARK                            x       y       z     vdW  Elec       q    Type
REMARK                         _______ _______ _______ _____ _____    ______ ____
ROOT
ATOM      1  C   LIG    1       22.561 -20.871   5.382  0.00  0.00    -0.000 C 
ENDROOT
BRANCH   1   2
ATOM      2  C   LIG    1       22.381 -19.511   4.673  0.00  0.00    -0.000 C 
BRANCH   2   3
ATOM      3  C   LIG    1       23.609 -18.963   3.894  0.00  0.00    -0.000 C 
BRANCH   3   4
ATOM      4  C   LIG    1       24.805 -19.923   3.704  0.00  0.00    -0.000 C 
BRANCH   4   5
ATOM      5  C   LIG    1       26.060 -19.478   4.495  0.00  0.00    -0.000 C 
BRANCH   5   6
ATOM      6  C   LIG    1       26.713 -20.554   5.396  0.00  0.00    -0.000 C 
BRANCH   6   7
ATOM      7  C   LIG    1       26.465 -20.380   6.903  0.00  0.00    -0.000 C 
BRANCH   7   8
ATOM      8  C   LIG    1       27.769 -20.232   7.713  0.00  0.00    -0.000 C 
BRANCH   8   9
ATOM      9  C   LIG    1       28.983 -20.772   6.939  0.00  0.00    -0.000 C 
BRANCH   9  11
ATOM     10  C   LIG    1       29.618 -18.486   6.059  0.00  0.00    +0.004 C 
ATOM     11  C   LIG    1       30.099 -19.732   6.794  0.00  0.00    -0.003 C 
ENDBRANCH   9  11
ENDBRANCH   8   9
ENDBRANCH   7   8
ENDBRANCH   6   7
ENDBRANCH   5   6
ENDBRANCH   4   5
ENDBRANCH   3   4
ENDBRANCH   2   3
ENDBRANCH   1   2
BRANCH   1  12
ATOM     12  C   LIG    1       23.167 -20.802   6.821  0.00  0.00    -0.000 C 
BRANCH  12  13
ATOM     13  C   LIG    1       23.202 -22.182   7.498  0.00  0.00    +0.000 C 
BRANCH  13  14
ATOM     14  C   LIG    1       23.496 -23.433   6.648  0.00  0.00    +0.006 C 
BRANCH  14  15
ATOM     15  C   LIG    1       24.936 -23.625   6.103  0.00  0.00    +0.072 C 
BRANCH  15  16
ATOM     16  C   LIG    1       25.105 -24.818   5.157  0.00  0.00    +0.356 C 
BRANCH  16  17
ATOM     17  N   LIG    1       25.111 -26.209   5.761  0.00  0.00    -0.204 N 
ATOM     18  C   LIG    1       25.930 -26.405   6.851  0.00  0.00    +0.309 A 
ATOM     19  C   LIG    1       25.929 -27.611   7.545  0.00  0.00    +0.070 A 
ATOM     20  C   LIG    1       25.119 -28.646   7.133  0.00  0.00    +0.012 A 
ATOM     21  C   LIG    1       24.315 -28.458   6.006  0.00  0.00    +0.070 A 
ATOM     22  C   LIG    1       24.341 -27.226   5.333  0.00  0.00    +0.309 A 
ENDBRANCH  16  17
ENDBRANCH  15  16
ENDBRANCH  14  15
ENDBRANCH  13  14
ENDBRANCH  12  13
ENDBRANCH   1  12
TORSDOF 15
ENDMDL
MODEL 7
REMARK VINA RESULT:      -7.0      2.255      5.174
REMARK  Name = *****
REMARK                            x       y       z     vdW  Elec       q    Type
REMARK                         _______ _______ _______ _____ _____    ______ ____
ROOT
ATOM      1  C   LIG    1       23.022 -19.210   4.682  0.00  0.00    -0.000 C 
ENDROOT
BRANCH   1   2
ATOM      2  C   LIG    1       22.575 -20.461   5.467  0.00  0.00    -0.000 C 
BRANCH   2   3
ATOM      3  C   LIG    1       23.037 -20.558   6.948  0.00  0.00    -0.000 C 
BRANCH   3   4
ATOM      4  C   LIG    1       23.519 -21.941   7.442  0.00  0.00    -0.000 C 
BRANCH   4   5
ATOM      5  C   LIG    1       22.876 -23.113   6.660  0.00  0.00    -0.000 C 
BRANCH   5   6
ATOM      6  C   LIG    1       23.645 -24.456   6.693  0.00  0.00    -0.000 C 
BRANCH   6   7
ATOM      7  C   LIG    1       25.170 -24.338   6.550  0.00  0.00    -0.000 C 
BRANCH   7   8
ATOM      8  C   LIG    1       25.876 -25.708   6.490  0.00  0.00    -0.000 C 
BRANCH   8   9
ATOM      9  C   LIG    1       25.342 -26.571   5.335  0.00  0.00    -0.000 C 
BRANCH   9  11
ATOM     10  C   LIG    1       25.094 -29.088   5.253  0.00  0.00    +0.004 C 
ATOM     11  C   LIG    1       24.547 -27.786   5.827  0.00  0.00    -0.003 C 
ENDBRANCH   9  11
ENDBRANCH   8   9
ENDBRANCH   7   8
ENDBRANCH   6   7
ENDBRANCH   5   6
ENDBRANCH   4   5
ENDBRANCH   3   4
ENDBRANCH   2   3
ENDBRANCH   1   2
BRANCH   1  12
ATOM     12  C   LIG    1       24.282 -19.401   3.777  0.00  0.00    -0.000 C 
BRANCH  12  13
ATOM     13  C   LIG    1       25.262 -20.430   4.363  0.00  0.00    +0.000 C 
BRANCH  13  14
ATOM     14  C   LIG    1       26.522 -19.939   5.102  0.00  0.00    +0.006 C 
BRANCH  14  15
ATOM     15  C   LIG    1       26.760 -20.437   6.552  0.00  0.00    +0.072 C 
BRANCH  15  16
ATOM     16  C   LIG    1       28.100 -21.146   6.770  0.00  0.00    +0.356 C 
BRANCH  16  17
ATOM     17  N   LIG    1       29.195 -20.388   7.494  0.00  0.00    -0.204 N 
ATOM     18  C   LIG    1       30.079 -21.139   8.236  0.00  0.00    +0.309 A 
ATOM     19  C   LIG    1       31.182 -20.554   8.851  0.00  0.00    +0.070 A 
ATOM     20  C   LIG    1       31.395 -19.197   8.746  0.00  0.00    +0.012 A 
ATOM     21  C   LIG    1       30.478 -18.431   8.023  0.00  0.00    +0.070 A 
ATOM     22  C   LIG    1       29.378 -19.057   7.414  0.00  0.00    +0.309 A 
ENDBRANCH  16  17
ENDBRANCH  15  16
ENDBRANCH  14  15
ENDBRANCH  13  14
ENDBRANCH  12  13
ENDBRANCH   1  12
TORSDOF 15
ENDMDL
MODEL 8
REMARK VINA RESULT:      -6.6      2.312      8.005
REMARK  Name = *****
REMARK                            x       y       z     vdW  Elec       q    Type
REMARK                         _______ _______ _______ _____ _____    ______ ____
ROOT
ATOM      1  C   LIG    1       25.987 -24.145   7.383  0.00  0.00    -0.000 C 
ENDROOT
BRANCH   1   2
ATOM      2  C   LIG    1       26.568 -22.752   7.058  0.00  0.00    -0.000 C 
BRANCH   2   3
ATOM      3  C   LIG    1       26.429 -21.665   8.160  0.00  0.00    -0.000 C 
BRANCH   3   4
ATOM      4  C   LIG    1       27.180 -20.334   7.930  0.00  0.00    -0.000 C 
BRANCH   4   5
ATOM      5  C   LIG    1       28.133 -20.389   6.710  0.00  0.00    -0.000 C 
BRANCH   5   6
ATOM      6  C   LIG    1       29.454 -19.592   6.842  0.00  0.00    -0.000 C 
BRANCH   6   7
ATOM      7  C   LIG    1       30.435 -20.125   7.899  0.00  0.00    -0.000 C 
BRANCH   7   8
ATOM      8  C   LIG    1       31.097 -19.003   8.724  0.00  0.00    -0.000 C 
BRANCH   8   9
ATOM      9  C   LIG    1       30.149 -17.809   8.920  0.00  0.00    -0.000 C 
BRANCH   9  11
ATOM     10  C   LIG    1       30.883 -17.478  11.319  0.00  0.00    +0.004 C 
ATOM     11  C   LIG    1       30.666 -16.813   9.965  0.00  0.00    -0.003 C 
ENDBRANCH   9  11
ENDBRANCH   8   9
ENDBRANCH   7   8
ENDBRANCH   6   7
ENDBRANCH   5   6
ENDBRANCH   4   5
ENDBRANCH   3   4
ENDBRANCH   2   3
ENDBRANCH   1   2
BRANCH   1  12
ATOM     12  C   LIG    1       25.388 -24.923   6.166  0.00  0.00    -0.000 C 
BRANCH  12  13
ATOM     13  C   LIG    1       24.008 -24.381   5.759  0.00  0.00    +0.000 C 
BRANCH  13  14
ATOM     14  C   LIG    1       23.079 -23.791   6.839  0.00  0.00    +0.006 C 
BRANCH  14  15
ATOM     15  C   LIG    1       22.944 -22.248   6.923  0.00  0.00    +0.072 C 
BRANCH  15  16
ATOM     16  C   LIG    1       22.421 -21.584   5.645  0.00  0.00    +0.356 C 
BRANCH  16  17
ATOM     17  N   LIG    1       23.302 -20.550   4.970  0.00  0.00    -0.204 N 
ATOM     18  C   LIG    1       24.634 -20.872   4.827  0.00  0.00    +0.309 A 
ATOM     19  C   LIG    1       25.504 -20.042   4.128  0.00  0.00    +0.070 A 
ATOM     20  C   LIG    1       25.049 -18.861   3.586  0.00  0.00    +0.012 A 
ATOM     21  C   LIG    1       23.706 -18.518   3.762  0.00  0.00    +0.070 A 
ATOM     22  C   LIG    1       22.856 -19.382   4.471  0.00  0.00    +0.309 A 
ENDBRANCH  16  17
ENDBRANCH  15  16
ENDBRANCH  14  15
ENDBRANCH  13  14
ENDBRANCH  12  13
ENDBRANCH   1  12
TORSDOF 15
ENDMDL
MODEL 9
REMARK VINA RESULT:      -6.6      3.775      7.155
REMARK  Name = *****
REMARK                            x       y       z     vdW  Elec       q    Type
REMARK                         _______ _______ _______ _____ _____    ______ ____
ROOT
ATOM      1  C   LIG    1       22.612 -23.095   6.866  0.00  0.00    -0.000 C 
ENDROOT
BRANCH   1   2
ATOM      2  C   LIG    1       23.542 -24.293   6.580  0.00  0.00    -0.000 C 
BRANCH   2   3
ATOM      3  C   LIG    1       25.059 -24.077   6.838  0.00  0.00    -0.000 C 
BRANCH   3   4
ATOM      4  C   LIG    1       26.013 -25.211   6.402  0.00  0.00    -0.000 C 
BRANCH   4   5
ATOM      5  C   LIG    1       25.592 -25.863   5.061  0.00  0.00    -0.000 C 
BRANCH   5   6
ATOM      6  C   LIG    1       25.527 -27.410   5.048  0.00  0.00    -0.000 C 
BRANCH   6   7
ATOM      7  C   LIG    1       25.202 -28.061   6.402  0.00  0.00    -0.000 C 
BRANCH   7   8
ATOM      8  C   LIG    1       24.029 -29.059   6.322  0.00  0.00    -0.000 C 
BRANCH   8   9
ATOM      9  C   LIG    1       24.393 -30.413   6.952  0.00  0.00    -0.000 C 
BRANCH   9  11
ATOM     10  C   LIG    1       25.795 -31.515   5.156  0.00  0.00    +0.004 C 
ATOM     11  C   LIG    1       24.474 -31.541   5.917  0.00  0.00    -0.003 C 
ENDBRANCH   9  11
ENDBRANCH   8   9
ENDBRANCH   7   8
ENDBRANCH   6   7
ENDBRANCH   5   6
ENDBRANCH   4   5
ENDBRANCH   3   4
ENDBRANCH   2   3
ENDBRANCH   1   2
BRANCH   1  12
ATOM     12  C   LIG    1       23.333 -21.764   7.255  0.00  0.00    -0.000 C 
BRANCH  12  13
ATOM     13  C   LIG    1       22.913 -20.595   6.349  0.00  0.00    +0.000 C 
BRANCH  13  14
ATOM     14  C   LIG    1       23.370 -20.577   4.878  0.00  0.00    +0.006 C 
BRANCH  14  15
ATOM     15  C   LIG    1       24.794 -21.098   4.548  0.00  0.00    +0.072 C 
BRANCH  15  16
ATOM     16  C   LIG    1       25.890 -20.028   4.591  0.00  0.00    +0.356 C 
BRANCH  16  17
ATOM     17  N   LIG    1       26.893 -20.085   5.727  0.00  0.00    -0.204 N 
ATOM     18  C   LIG    1       28.157 -19.607   5.459  0.00  0.00    +0.309 A 
ATOM     19  C   LIG    1       29.119 -19.514   6.459  0.00  0.00    +0.070 A 
ATOM     20  C   LIG    1       28.828 -19.927   7.741  0.00  0.00    +0.012 A 
ATOM     21  C   LIG    1       27.557 -20.444   8.003  0.00  0.00    +0.070 A 
ATOM     22  C   LIG    1       26.611 -20.520   6.969  0.00  0.00    +0.309 A 
ENDBRANCH  16  17
ENDBRANCH  15  16
ENDBRANCH  14  15
ENDBRANCH  13  14
ENDBRANCH  12  13
ENDBRANCH   1  12
TORSDOF 15
ENDMDL
