MODEL 1
REMARK VINA RESULT:      -5.1      0.000      0.000
REMARK  Name = *****
REMARK                            x       y       z     vdW  Elec       q    Type
REMARK                         _______ _______ _______ _____ _____    ______ ____
ROOT
ATOM      1  C   LIG    1       23.362 -19.753   4.356  0.00  0.00    +0.090 C 
ATOM      2  C   LIG    1       22.539 -20.805   5.078  0.00  0.00    +0.270 C 
ATOM      3  O   LIG    1       21.349 -20.970   4.823  0.00  0.00    -0.266 OA
ATOM      4  N   LIG    1       23.207 -21.572   6.001  0.00  0.00    -0.327 N 
ATOM      5  H   LIG    1       22.645 -22.263   6.483  0.00  0.00    +0.168 HD
ATOM      6  C   LIG    1       24.544 -21.452   6.276  0.00  0.00    +0.094 C 
ATOM      7  C   LIG    1       25.304 -20.548   5.631  0.00  0.00    +0.000 C 
ATOM      8  C   LIG    1       24.673 -19.684   4.644  0.00  0.00    +0.038 C 
ENDROOT
BRANCH   7   9
ATOM      9  C   LIG    1       26.735 -20.460   5.968  0.00  0.00    -0.014 A 
ATOM     10  C   LIG    1       27.338 -21.417   6.785  0.00  0.00    +0.028 A 
ATOM     11  C   LIG    1       28.689 -21.288   7.062  0.00  0.00    +0.111 A 
ATOM     12  N   LIG    1       29.460 -20.287   6.584  0.00  0.00    -0.263 NA
ATOM     13  C   LIG    1       28.855 -19.377   5.792  0.00  0.00    +0.111 A 
ATOM     14  C   LIG    1       27.512 -19.419   5.457  0.00  0.00    +0.028 A 
ENDBRANCH   7   9
BRANCH   1  15
ATOM     15  N   LIG    1       22.710 -18.952   3.433  0.00  0.00    -0.354 N 
ATOM     16  H   LIG    1       21.982 -18.397   3.893  0.00  0.00    +0.142 HD
ATOM     17  H   LIG    1       22.374 -19.457   2.622  0.00  0.00    +0.142 HD
ENDBRANCH   1  15
TORSDOF 2
ENDMDL
MODEL 2
REMARK VINA RESULT:      -4.4      3.930      5.218
REMARK  Name = *****
REMARK                            x       y       z     vdW  Elec       q    Type
REMARK                         _______ _______ _______ _____ _____    ______ ____
ROOT
ATOM      1  C   LIG    1       23.321 -19.035   4.115  0.00  0.00    +0.090 C 
ATOM      2  C   LIG    1       24.382 -20.053   3.735  0.00  0.00    +0.270 C 
ATOM      3  O   LIG    1       24.137 -21.257   3.730  0.00  0.00    -0.266 OA
ATOM      4  N   LIG    1       25.607 -19.550   3.374  0.00  0.00    -0.327 N 
ATOM      5  H   LIG    1       26.308 -20.238   3.133  0.00  0.00    +0.168 HD
ATOM      6  C   LIG    1       25.901 -18.212   3.318  0.00  0.00    +0.094 C 
ATOM      7  C   LIG    1       24.973 -17.287   3.621  0.00  0.00    +0.000 C 
ATOM      8  C   LIG    1       23.649 -17.735   4.028  0.00  0.00    +0.038 C 
ENDROOT
BRANCH   7   9
ATOM      9  C   LIG    1       25.344 -15.863   3.549  0.00  0.00    -0.014 A 
ATOM     10  C   LIG    1       24.422 -14.867   3.870  0.00  0.00    +0.028 A 
ATOM     11  C   LIG    1       24.828 -13.545   3.792  0.00  0.00    +0.111 A 
ATOM     12  N   LIG    1       26.070 -13.163   3.424  0.00  0.00    -0.263 NA
ATOM     13  C   LIG    1       26.946 -14.145   3.123  0.00  0.00    +0.111 A 
ATOM     14  C   LIG    1       26.637 -15.494   3.171  0.00  0.00    +0.028 A 
ENDBRANCH   7   9
BRANCH   1  15
ATOM     15  N   LIG    1       22.081 -19.516   4.502  0.00  0.00    -0.354 N 
ATOM     16  H   LIG    1       22.102 -19.808   5.483  0.00  0.00    +0.142 HD
ATOM     17  H   LIG    1       21.709 -20.226   3.881  0.00  0.00    +0.142 HD
ENDBRANCH   1  15
TORSDOF 2
ENDMDL
MODEL 3
REMARK VINA RESULT:      -4.3      1.041      2.230
REMARK  Name = *****
REMARK                            x       y       z     vdW  Elec       q    Type
REMARK                         _______ _______ _______ _____ _____    ______ ____
ROOT
ATOM      1  C   LIG    1       23.083 -20.544   4.920  0.00  0.00    +0.090 C 
ATOM      2  C   LIG    1       22.959 -19.373   3.961  0.00  0.00    +0.270 C 
ATOM      3  O   LIG    1       21.874 -19.052   3.483  0.00  0.00    -0.266 OA
ATOM      4  N   LIG    1       24.116 -18.686   3.688  0.00  0.00    -0.327 N 
ATOM      5  H   LIG    1       24.022 -17.914   3.040  0.00  0.00    +0.168 HD
ATOM      6  C   LIG    1       25.334 -18.983   4.241  0.00  0.00    +0.094 C 
ATOM      7  C   LIG    1       25.468 -19.996   5.115  0.00  0.00    +0.000 C 
ATOM      8  C   LIG    1       24.293 -20.787   5.451  0.00  0.00    +0.038 C 
ENDROOT
BRANCH   7   9
ATOM      9  C   LIG    1       26.801 -20.274   5.677  0.00  0.00    -0.014 A 
ATOM     10  C   LIG    1       27.893 -19.466   5.358  0.00  0.00    +0.028 A 
ATOM     11  C   LIG    1       29.121 -19.770   5.922  0.00  0.00    +0.111 A 
ATOM     12  N   LIG    1       29.325 -20.804   6.766  0.00  0.00    -0.263 NA
ATOM     13  C   LIG    1       28.252 -21.568   7.062  0.00  0.00    +0.111 A 
ATOM     14  C   LIG    1       26.984 -21.347   6.551  0.00  0.00    +0.028 A 
ENDBRANCH   7   9
BRANCH   1  15
ATOM     15  N   LIG    1       21.934 -21.267   5.198  0.00  0.00    -0.354 N 
ATOM     16  H   LIG    1       21.243 -21.141   4.453  0.00  0.00    +0.142 HD
ATOM     17  H   LIG    1       21.560 -21.095   6.124  0.00  0.00    +0.142 HD
ENDBRANCH   1  15
TORSDOF 2
ENDMDL
MODEL 4
REMARK VINA RESULT:      -3.9      4.301      6.055
REMARK  Name = *****
REMARK                            x       y       z     vdW  Elec       q    Type
REMARK                         _______ _______ _______ _____ _____    ______ ____
ROOT
ATOM      1  C   LIG    1       24.585 -14.448   3.889  0.00  0.00    +0.090 C 
ATOM      2  C   LIG    1       26.017 -14.397   3.386  0.00  0.00    +0.270 C 
ATOM      3  O   LIG    1       26.609 -13.328   3.253  0.00  0.00    -0.266 OA
ATOM      4  N   LIG    1       26.613 -15.605   3.123  0.00  0.00    -0.327 N 
ATOM      5  H   LIG    1       27.564 -15.557   2.779  0.00  0.00    +0.168 HD
ATOM      6  C   LIG    1       26.004 -16.819   3.308  0.00  0.00    +0.094 C 
ATOM      7  C   LIG    1       24.746 -16.895   3.779  0.00  0.00    +0.000 C 
ATOM      8  C   LIG    1       24.035 -15.660   4.073  0.00  0.00    +0.038 C 
ENDROOT
BRANCH   7   9
ATOM      9  C   LIG    1       24.138 -18.225   3.956  0.00  0.00    -0.014 A 
ATOM     10  C   LIG    1       24.853 -19.385   3.653  0.00  0.00    +0.028 A 
ATOM     11  C   LIG    1       24.234 -20.608   3.847  0.00  0.00    +0.111 A 
ATOM     12  N   LIG    1       22.974 -20.746   4.315  0.00  0.00    -0.263 NA
ATOM     13  C   LIG    1       22.305 -19.610   4.605  0.00  0.00    +0.111 A 
ATOM     14  C   LIG    1       22.836 -18.341   4.446  0.00  0.00    +0.028 A 
ENDBRANCH   7   9
BRANCH   1  15
ATOM     15  N   LIG    1       23.953 -13.242   4.144  0.00  0.00    -0.354 N 
ATOM     16  H   LIG    1       22.938 -13.348   4.072  0.00  0.00    +0.142 HD
ATOM     17  H   LIG    1       24.314 -12.470   3.596  0.00  0.00    +0.142 HD
ENDBRANCH   1  15
TORSDOF 2
ENDMDL
MODEL 5
REMARK VINA RESULT:      -3.9      4.217      5.999
REMARK  Name = *****
REMARK                            x       y       z     vdW  Elec       q    Type
REMARK                         _______ _______ _______ _____ _____    ______ ____
ROOT
ATOM      1  C   LIG    1       25.846 -15.010   3.316  0.00  0.00    +0.090 C 
ATOM      2  C   LIG    1       24.779 -14.004   3.709  0.00  0.00    +0.270 C 
ATOM      3  O   LIG    1       24.965 -12.796   3.587  0.00  0.00    -0.266 OA
ATOM      4  N   LIG    1       23.596 -14.522   4.173  0.00  0.00    -0.327 N 
ATOM      5  H   LIG    1       22.896 -13.841   4.441  0.00  0.00    +0.168 HD
ATOM      6  C   LIG    1       23.332 -15.864   4.274  0.00  0.00    +0.094 C 
ATOM      7  C   LIG    1       24.247 -16.777   3.906  0.00  0.00    +0.000 C 
ATOM      8  C   LIG    1       25.536 -16.314   3.414  0.00  0.00    +0.038 C 
ENDROOT
BRANCH   7   9
ATOM      9  C   LIG    1       23.913 -18.206   4.039  0.00  0.00    -0.014 A 
ATOM     10  C   LIG    1       24.813 -19.191   3.632  0.00  0.00    +0.028 A 
ATOM     11  C   LIG    1       24.449 -20.518   3.789  0.00  0.00    +0.111 A 
ATOM     12  N   LIG    1       23.270 -20.916   4.314  0.00  0.00    -0.263 NA
ATOM     13  C   LIG    1       22.419 -19.945   4.704  0.00  0.00    +0.111 A 
ATOM     14  C   LIG    1       22.690 -18.591   4.591  0.00  0.00    +0.028 A 
ENDBRANCH   7   9
BRANCH   1  15
ATOM     15  N   LIG    1       27.057 -14.514   2.861  0.00  0.00    -0.354 N 
ATOM     16  H   LIG    1       27.820 -15.147   3.115  0.00  0.00    +0.142 HD
ATOM     17  H   LIG    1       27.229 -13.552   3.131  0.00  0.00    +0.142 HD
ENDBRANCH   1  15
TORSDOF 2
ENDMDL
MODEL 6
REMARK VINA RESULT:      -3.7      3.906      5.266
REMARK  Name = *****
REMARK                            x       y       z     vdW  Elec       q    Type
REMARK                         _______ _______ _______ _____ _____    ______ ____
ROOT
ATOM      1  C   LIG    1       24.015 -19.382   3.891  0.00  0.00    +0.090 C 
ATOM      2  C   LIG    1       22.609 -19.274   4.455  0.00  0.00    +0.270 C 
ATOM      3  O   LIG    1       21.954 -20.277   4.729  0.00  0.00    -0.266 OA
ATOM      4  N   LIG    1       22.133 -18.004   4.665  0.00  0.00    -0.327 N 
ATOM      5  H   LIG    1       21.191 -17.946   5.031  0.00  0.00    +0.168 HD
ATOM      6  C   LIG    1       22.853 -16.864   4.420  0.00  0.00    +0.094 C 
ATOM      7  C   LIG    1       24.111 -16.929   3.948  0.00  0.00    +0.000 C 
ATOM      8  C   LIG    1       24.690 -18.238   3.684  0.00  0.00    +0.038 C 
ENDROOT
BRANCH   7   9
ATOM      9  C   LIG    1       24.838 -15.672   3.698  0.00  0.00    -0.014 A 
ATOM     10  C   LIG    1       24.220 -14.437   3.897  0.00  0.00    +0.028 A 
ATOM     11  C   LIG    1       24.954 -13.288   3.656  0.00  0.00    +0.111 A 
ATOM     12  N   LIG    1       26.239 -13.293   3.238  0.00  0.00    -0.263 NA
ATOM     13  C   LIG    1       26.816 -14.499   3.057  0.00  0.00    +0.111 A 
ATOM     14  C   LIG    1       26.167 -15.704   3.273  0.00  0.00    +0.028 A 
ENDBRANCH   7   9
BRANCH   1  15
ATOM     15  N   LIG    1       24.513 -20.651   3.651  0.00  0.00    -0.354 N 
ATOM     16  H   LIG    1       25.127 -20.945   4.415  0.00  0.00    +0.142 HD
ATOM     17  H   LIG    1       24.937 -20.756   2.736  0.00  0.00    +0.142 HD
ENDBRANCH   1  15
TORSDOF 2
ENDMDL
MODEL 7
REMARK VINA RESULT:      -3.7      3.912      5.263
REMARK  Name = *****
REMARK                            x       y       z     vdW  Elec       q    Type
REMARK                         _______ _______ _______ _____ _____    ______ ____
ROOT
ATOM      1  C   LIG    1       24.007 -19.383   3.888  0.00  0.00    +0.090 C 
ATOM      2  C   LIG    1       22.598 -19.292   4.447  0.00  0.00    +0.270 C 
ATOM      3  O   LIG    1       21.953 -20.302   4.717  0.00  0.00    -0.266 OA
ATOM      4  N   LIG    1       22.107 -18.028   4.659  0.00  0.00    -0.327 N 
ATOM      5  H   LIG    1       21.163 -17.981   5.022  0.00  0.00    +0.168 HD
ATOM      6  C   LIG    1       22.815 -16.879   4.419  0.00  0.00    +0.094 C 
ATOM      7  C   LIG    1       24.075 -16.929   3.951  0.00  0.00    +0.000 C 
ATOM      8  C   LIG    1       24.669 -18.231   3.686  0.00  0.00    +0.038 C 
ENDROOT
BRANCH   7   9
ATOM      9  C   LIG    1       24.789 -15.664   3.707  0.00  0.00    -0.014 A 
ATOM     10  C   LIG    1       26.117 -15.664   3.279  0.00  0.00    +0.028 A 
ATOM     11  C   LIG    1       26.736 -14.445   3.057  0.00  0.00    +0.111 A 
ATOM     12  N   LIG    1       26.127 -13.252   3.230  0.00  0.00    -0.263 NA
ATOM     13  C   LIG    1       24.841 -13.278   3.640  0.00  0.00    +0.111 A 
ATOM     14  C   LIG    1       24.136 -14.444   3.888  0.00  0.00    +0.028 A 
ENDBRANCH   7   9
BRANCH   1  15
ATOM     15  N   LIG    1       24.520 -20.646   3.647  0.00  0.00    -0.354 N 
ATOM     16  H   LIG    1       25.068 -20.969   4.450  0.00  0.00    +0.142 HD
ATOM     17  H   LIG    1       25.018 -20.722   2.768  0.00  0.00    +0.142 HD
ENDBRANCH   1  15
TORSDOF 2
ENDMDL
MODEL 8
REMARK VINA RESULT:      -3.1      4.826      6.361
REMARK  Name = *****
REMARK                            x       y       z     vdW  Elec       q    Type
REMARK                         _______ _______ _______ _____ _____    ______ ____
ROOT
ATOM      1  C   LIG    1       23.996 -18.393   3.898  0.00  0.00    +0.090 C 
ATOM      2  C   LIG    1       25.366 -19.028   3.738  0.00  0.00    +0.270 C 
ATOM      3  O   LIG    1       25.513 -20.246   3.787  0.00  0.00    -0.266 OA
ATOM      4  N   LIG    1       26.411 -18.169   3.508  0.00  0.00    -0.327 N 
ATOM      5  H   LIG    1       27.321 -18.603   3.413  0.00  0.00    +0.168 HD
ATOM      6  C   LIG    1       26.278 -16.809   3.396  0.00  0.00    +0.094 C 
ATOM      7  C   LIG    1       25.073 -16.222   3.505  0.00  0.00    +0.000 C 
ATOM      8  C   LIG    1       23.910 -17.059   3.762  0.00  0.00    +0.038 C 
ENDROOT
BRANCH   7   9
ATOM      9  C   LIG    1       24.987 -14.757   3.380  0.00  0.00    -0.014 A 
ATOM     10  C   LIG    1       25.695 -14.081   2.384  0.00  0.00    +0.028 A 
ATOM     11  C   LIG    1       25.569 -12.704   2.308  0.00  0.00    +0.111 A 
ATOM     12  N   LIG    1       24.799 -11.974   3.143  0.00  0.00    -0.263 NA
ATOM     13  C   LIG    1       24.121 -12.650   4.094  0.00  0.00    +0.111 A 
ATOM     14  C   LIG    1       24.179 -14.025   4.251  0.00  0.00    +0.028 A 
ENDBRANCH   7   9
BRANCH   1  15
ATOM     15  N   LIG    1       22.925 -19.235   4.150  0.00  0.00    -0.354 N 
ATOM     16  H   LIG    1       22.414 -19.432   3.286  0.00  0.00    +0.142 HD
ATOM     17  H   LIG    1       22.327 -18.918   4.905  0.00  0.00    +0.142 HD
ENDBRANCH   1  15
TORSDOF 2
ENDMDL
MODEL 9
REMARK VINA RESULT:      -3.0      4.252      5.639
REMARK  Name = *****
REMARK                            x       y       z     vdW  Elec       q    Type
REMARK                         _______ _______ _______ _____ _____    ______ ____
ROOT
ATOM      1  C   LIG    1       26.889 -19.272   4.486  0.00  0.00    +0.090 C 
ATOM      2  C   LIG    1       25.488 -19.731   4.120  0.00  0.00    +0.270 C 
ATOM      3  O   LIG    1       25.116 -20.881   4.341  0.00  0.00    -0.266 OA
ATOM      4  N   LIG    1       24.664 -18.785   3.563  0.00  0.00    -0.327 N 
ATOM      5  H   LIG    1       23.736 -19.106   3.314  0.00  0.00    +0.168 HD
ATOM      6  C   LIG    1       25.027 -17.481   3.349  0.00  0.00    +0.094 C 
ATOM      7  C   LIG    1       26.251 -17.039   3.689  0.00  0.00    +0.000 C 
ATOM      8  C   LIG    1       27.193 -17.981   4.275  0.00  0.00    +0.038 C 
ENDROOT
BRANCH   7   9
ATOM      9  C   LIG    1       26.589 -15.628   3.434  0.00  0.00    -0.014 A 
ATOM     10  C   LIG    1       25.772 -14.831   2.631  0.00  0.00    +0.028 A 
ATOM     11  C   LIG    1       26.135 -13.510   2.433  0.00  0.00    +0.111 A 
ATOM     12  N   LIG    1       27.236 -12.944   2.973  0.00  0.00    -0.263 NA
ATOM     13  C   LIG    1       28.008 -13.734   3.749  0.00  0.00    +0.111 A 
ATOM     14  C   LIG    1       27.730 -15.066   4.009  0.00  0.00    +0.028 A 
ENDBRANCH   7   9
BRANCH   1  15
ATOM     15  N   LIG    1       27.748 -20.212   5.032  0.00  0.00    -0.354 N 
ATOM     16  H   LIG    1       27.601 -21.126   4.597  0.00  0.00    +0.142 HD
ATOM     17  H   LIG    1       27.725 -20.243   6.045  0.00  0.00    +0.142 HD
ENDBRANCH   1  15
TORSDOF 2
ENDMDL
