MODEL 1
REMARK VINA RESULT:     123.8      0.000      0.000
REMARK  Name = *****
REMARK                            x       y       z     vdW  Elec       q    Type
REMARK                         _______ _______ _______ _____ _____    ______ ____
ROOT
ATOM      1  C   LIG    1       24.439 -13.732   5.791  0.00  0.00    +0.058 C 
ATOM      2  C   LIG    1       24.911 -15.194   5.854  0.00  0.00    +0.081 C 
ATOM      3  C   LIG    1       26.113 -15.383   4.901  0.00  0.00    +0.100 C 
ATOM      4  C   LIG    1       26.805 -16.785   4.841  0.00  0.00    +0.094 C 
ATOM      5  N   LIG    1       27.189 -17.200   6.210  0.00  0.00    -0.296 NA
ATOM      6  C   LIG    1       28.270 -16.350   6.724  0.00  0.00    +0.086 C 
ATOM      7  C   LIG    1       27.911 -14.858   6.651  0.00  0.00    +0.034 C 
ATOM      8  C   LIG    1       28.010 -16.770   3.784  0.00  0.00    +0.057 C 
ATOM      9  C   LIG    1       28.552 -15.396   3.422  0.00  0.00    -0.038 A 
ATOM     10  C   LIG    1       29.269 -15.125   2.253  0.00  0.00    +0.008 A 
ATOM     11  C   LIG    1       29.462 -13.793   1.826  0.00  0.00    +0.049 A 
ATOM     12  C   LIG    1       28.895 -12.732   2.539  0.00  0.00    +0.159 A 
ATOM     13  C   LIG    1       28.215 -13.014   3.705  0.00  0.00    +0.167 A 
ATOM     14  O   LIG    1       27.400 -12.143   4.385  0.00  0.00    -0.476 OA
ATOM     15  C   LIG    1       26.803 -12.934   5.453  0.00  0.00    +0.252 C 
ATOM     16  C   LIG    1       28.138 -14.309   4.174  0.00  0.00    +0.014 A 
ATOM     17  C   LIG    1       27.225 -14.404   5.335  0.00  0.00    +0.075 C 
ATOM     18  C   LIG    1       25.302 -12.734   5.482  0.00  0.00    +0.143 C 
ENDROOT
BRANCH   1  21
ATOM     19  N   LIG    1       22.150 -14.333   5.256  0.00  0.00    -0.298 N 
ATOM     20  H   LIG    1       22.592 -15.097   4.741  0.00  0.00    +0.150 HD
ATOM     21  C   LIG    1       22.969 -13.515   5.978  0.00  0.00    +0.244 C 
ATOM     22  O   LIG    1       22.558 -12.592   6.688  0.00  0.00    -0.270 OA
BRANCH  19  24
ATOM     23  C   LIG    1       20.077 -14.337   6.625  0.00  0.00    +0.041 C 
ATOM     24  C   LIG    1       20.681 -14.274   5.211  0.00  0.00    +0.108 C 
ATOM     25  C   LIG    1       20.215 -12.972   4.532  0.00  0.00    +0.041 C 
BRANCH  24  26
ATOM     26  C   LIG    1       20.206 -15.470   4.398  0.00  0.00    +0.251 A 
ATOM     27  O   LIG    1       19.660 -15.205   3.175  0.00  0.00    -0.335 OA
ATOM     28  N   LIG    1       19.361 -16.432   2.592  0.00  0.00    -0.056 NA
ATOM     29  C   LIG    1       19.747 -17.334   3.510  0.00  0.00    +0.202 A 
ATOM     30  N   LIG    1       20.259 -16.765   4.663  0.00  0.00    -0.190 NA
BRANCH  29  31
ATOM     31  C   LIG    1       19.669 -18.779   3.287  0.00  0.00    +0.022 A 
ATOM     32  C   LIG    1       19.844 -19.672   4.360  0.00  0.00    +0.012 A 
ATOM     33  C   LIG    1       19.784 -21.056   4.166  0.00  0.00    +0.001 A 
ATOM     34  C   LIG    1       19.550 -21.570   2.893  0.00  0.00    +0.000 A 
ATOM     35  C   LIG    1       19.367 -20.699   1.819  0.00  0.00    +0.001 A 
ATOM     36  C   LIG    1       19.422 -19.311   2.014  0.00  0.00    +0.012 A 
ENDBRANCH  29  31
ENDBRANCH  24  26
ENDBRANCH  19  24
ENDBRANCH   1  21
BRANCH  12  37
ATOM     37  O   LIG    1       28.943 -11.453   2.074  0.00  0.00    -0.503 OA
ATOM     38  H   LIG    1       28.037 -11.144   1.918  0.00  0.00    +0.292 HD
ENDBRANCH  12  37
BRANCH   3  39
ATOM     39  O   LIG    1       25.596 -15.169   3.560  0.00  0.00    -0.386 OA
ATOM     40  H   LIG    1       26.011 -14.385   3.164  0.00  0.00    +0.210 HD
ENDBRANCH   3  39
BRANCH  18  41
ATOM     41  O   LIG    1       24.878 -11.465   5.129  0.00  0.00    -0.507 OA
ATOM     42  H   LIG    1       24.330 -11.138   5.878  0.00  0.00    +0.292 HD
ENDBRANCH  18  41
BRANCH   5  43
ATOM     43  C   LIG    1       27.527 -18.626   6.332  0.00  0.00    +0.088 C 
BRANCH  43  44
ATOM     44  C   LIG    1       26.964 -19.471   5.220  0.00  0.00    +0.003 C 
ATOM     45  C   LIG    1       26.373 -20.827   5.533  0.00  0.00    +0.005 C 
ATOM     46  C   LIG    1       25.486 -19.722   5.035  0.00  0.00    +0.005 C 
ENDBRANCH  43  44
ENDBRANCH   5  43
TORSDOF 9
ENDMDL
