MODEL 1
REMARK VINA RESULT:     -10.3      0.000      0.000
REMARK  Name = *****
REMARK                            x       y       z     vdW  Elec       q    Type
REMARK                         _______ _______ _______ _____ _____    ______ ____
ROOT
ATOM      1  C   LIG    1       24.987 -20.317   5.379  0.00  0.00    +0.251 C 
ENDROOT
BRANCH   1   2
ATOM      2  C   LIG    1       24.687 -19.800   3.959  0.00  0.00    +0.280 C 
BRANCH   2   3
ATOM      3  O   LIG    1       24.148 -18.446   3.879  0.00  0.00    -0.461 OA
BRANCH   3   4
ATOM      4  C   LIG    1       22.817 -18.401   4.244  0.00  0.00    +0.307 C 
ATOM      5  O   LIG    1       22.231 -19.444   4.459  0.00  0.00    -0.251 OA
BRANCH   4   6
ATOM      6  C   LIG    1       22.276 -16.733   4.501  0.00  0.00    +0.121 C 
BRANCH   6   7
ATOM      7  C   LIG    1       23.215 -15.320   4.799  0.00  0.00    +0.016 C 
BRANCH   7   8
ATOM      8  C   LIG    1       23.576 -14.245   3.854  0.00  0.00    +0.035 C 
BRANCH   8   9
ATOM      9  C   LIG    1       25.105 -13.950   3.923  0.00  0.00    -0.047 A 
ATOM     10  C   LIG    1       25.751 -14.041   2.699  0.00  0.00    +0.003 A 
ATOM     11  C   LIG    1       27.138 -13.971   2.611  0.00  0.00    +0.000 A 
ATOM     12  C   LIG    1       27.923 -13.770   3.745  0.00  0.00    +0.000 A 
ATOM     13  C   LIG    1       27.313 -13.575   4.975  0.00  0.00    +0.000 A 
ATOM     14  C   LIG    1       25.914 -13.658   5.064  0.00  0.00    +0.003 A 
ENDBRANCH   8   9
ENDBRANCH   7   8
ENDBRANCH   6   7
ENDBRANCH   4   6
ENDBRANCH   3   4
ENDBRANCH   2   3
ENDBRANCH   1   2
BRANCH   1  15
ATOM     15  O   LIG    1       24.245 -21.529   5.619  0.00  0.00    -0.454 OA
BRANCH  15  16
ATOM     16  C   LIG    1       23.730 -21.642   6.854  0.00  0.00    +0.308 C 
ATOM     17  O   LIG    1       23.772 -20.771   7.754  0.00  0.00    -0.251 OA
BRANCH  16  18
ATOM     18  C   LIG    1       22.938 -22.941   6.991  0.00  0.00    +0.121 C 
BRANCH  18  19
ATOM     19  C   LIG    1       23.607 -24.244   6.541  0.00  0.00    +0.016 C 
BRANCH  19  20
ATOM     20  C   LIG    1       25.125 -24.369   6.596  0.00  0.00    +0.035 C 
BRANCH  20  21
ATOM     21  C   LIG    1       25.497 -25.750   6.336  0.00  0.00    -0.047 A 
ATOM     22  C   LIG    1       25.624 -25.935   4.990  0.00  0.00    +0.003 A 
ATOM     23  C   LIG    1       25.522 -27.188   4.702  0.00  0.00    +0.000 A 
ATOM     24  C   LIG    1       25.297 -28.298   5.541  0.00  0.00    +0.000 A 
ATOM     25  C   LIG    1       25.588 -28.203   6.865  0.00  0.00    +0.000 A 
ATOM     26  C   LIG    1       25.650 -26.836   7.278  0.00  0.00    +0.003 A 
ENDBRANCH  20  21
ENDBRANCH  19  20
ENDBRANCH  18  19
ENDBRANCH  16  18
ENDBRANCH  15  16
ENDBRANCH   1  15
BRANCH   1  27
ATOM     27  C   LIG    1       26.474 -20.535   5.548  0.00  0.00    +0.280 C 
BRANCH  27  28
ATOM     28  O   LIG    1       26.905 -19.962   6.782  0.00  0.00    -0.461 OA
BRANCH  28  30
ATOM     29  O   LIG    1       27.022 -21.231   8.684  0.00  0.00    -0.251 OA
ATOM     30  C   LIG    1       27.534 -20.776   7.657  0.00  0.00    +0.307 C 
BRANCH  30  31
ATOM     31  C   LIG    1       28.949 -21.063   7.225  0.00  0.00    +0.121 C 
BRANCH  31  32
ATOM     32  C   LIG    1       30.017 -20.259   7.956  0.00  0.00    +0.016 C 
BRANCH  32  33
ATOM     33  C   LIG    1       29.980 -18.738   7.718  0.00  0.00    +0.035 C 
BRANCH  33  34
ATOM     34  C   LIG    1       30.657 -17.937   8.809  0.00  0.00    -0.047 A 
ATOM     35  C   LIG    1       31.972 -17.465   8.680  0.00  0.00    +0.003 A 
ATOM     36  C   LIG    1       32.588 -16.758   9.706  0.00  0.00    +0.000 A 
ATOM     37  C   LIG    1       31.892 -16.499  10.878  0.00  0.00    +0.000 A 
ATOM     38  C   LIG    1       30.576 -16.938  11.020  0.00  0.00    +0.000 A 
ATOM     39  C   LIG    1       29.958 -17.651   9.990  0.00  0.00    +0.003 A 
ENDBRANCH  33  34
ENDBRANCH  32  33
ENDBRANCH  31  32
ENDBRANCH  30  31
ENDBRANCH  28  30
ENDBRANCH  27  28
ENDBRANCH   1  27
TORSDOF 20
ENDMDL
MODEL 2
REMARK VINA RESULT:     -10.1      2.521      8.534
REMARK  Name = *****
REMARK                            x       y       z     vdW  Elec       q    Type
REMARK                         _______ _______ _______ _____ _____    ______ ____
ROOT
ATOM      1  C   LIG    1       25.393 -23.917   7.099  0.00  0.00    +0.251 C 
ENDROOT
BRANCH   1   2
ATOM      2  C   LIG    1       26.329 -22.845   7.688  0.00  0.00    +0.280 C 
BRANCH   2   3
ATOM      3  O   LIG    1       26.615 -21.708   6.820  0.00  0.00    -0.461 OA
BRANCH   3   4
ATOM      4  C   LIG    1       27.069 -20.618   7.536  0.00  0.00    +0.307 C 
ATOM      5  O   LIG    1       26.521 -20.331   8.582  0.00  0.00    -0.251 OA
BRANCH   4   6
ATOM      6  C   LIG    1       28.542 -19.943   6.816  0.00  0.00    +0.121 C 
BRANCH   6   7
ATOM      7  C   LIG    1       30.159 -19.985   7.409  0.00  0.00    +0.016 C 
BRANCH   7   8
ATOM      8  C   LIG    1       31.173 -18.914   7.374  0.00  0.00    +0.035 C 
BRANCH   8   9
ATOM      9  C   LIG    1       31.124 -18.074   8.687  0.00  0.00    -0.047 A 
ATOM     10  C   LIG    1       32.269 -17.328   8.920  0.00  0.00    +0.003 A 
ATOM     11  C   LIG    1       32.456 -16.655  10.124  0.00  0.00    +0.000 A 
ATOM     12  C   LIG    1       31.483 -16.677  11.121  0.00  0.00    +0.000 A 
ATOM     13  C   LIG    1       30.280 -17.329  10.891  0.00  0.00    +0.000 A 
ATOM     14  C   LIG    1       30.098 -18.018   9.680  0.00  0.00    +0.003 A 
ENDBRANCH   8   9
ENDBRANCH   7   8
ENDBRANCH   6   7
ENDBRANCH   4   6
ENDBRANCH   3   4
ENDBRANCH   2   3
ENDBRANCH   1   2
BRANCH   1  15
ATOM     15  O   LIG    1       24.429 -23.292   6.229  0.00  0.00    -0.454 OA
BRANCH  15  16
ATOM     16  C   LIG    1       23.203 -23.143   6.758  0.00  0.00    +0.308 C 
ATOM     17  O   LIG    1       22.278 -23.990   6.729  0.00  0.00    -0.251 OA
BRANCH  16  18
ATOM     18  C   LIG    1       23.111 -21.839   7.547  0.00  0.00    +0.121 C 
BRANCH  18  19
ATOM     19  C   LIG    1       23.137 -20.520   6.766  0.00  0.00    +0.016 C 
BRANCH  19  20
ATOM     20  C   LIG    1       22.527 -20.459   5.371  0.00  0.00    +0.035 C 
BRANCH  20  21
ATOM     21  C   LIG    1       23.463 -19.805   4.471  0.00  0.00    -0.047 A 
ATOM     22  C   LIG    1       24.491 -20.660   4.195  0.00  0.00    +0.003 A 
ATOM     23  C   LIG    1       25.518 -20.001   3.778  0.00  0.00    +0.000 A 
ATOM     24  C   LIG    1       25.698 -18.614   3.606  0.00  0.00    +0.000 A 
ATOM     25  C   LIG    1       24.609 -17.813   3.462  0.00  0.00    +0.000 A 
ATOM     26  C   LIG    1       23.435 -18.451   3.968  0.00  0.00    +0.003 A 
ENDBRANCH  20  21
ENDBRANCH  19  20
ENDBRANCH  18  19
ENDBRANCH  16  18
ENDBRANCH  15  16
ENDBRANCH   1  15
BRANCH   1  27
ATOM     27  C   LIG    1       26.201 -24.966   6.368  0.00  0.00    +0.280 C 
BRANCH  27  28
ATOM     28  O   LIG    1       25.589 -26.245   6.535  0.00  0.00    -0.461 OA
BRANCH  28  30
ATOM     29  O   LIG    1       26.685 -27.208   4.771  0.00  0.00    -0.251 OA
ATOM     30  C   LIG    1       25.705 -27.124   5.516  0.00  0.00    +0.307 C 
BRANCH  30  31
ATOM     31  C   LIG    1       24.483 -27.998   5.398  0.00  0.00    +0.121 C 
BRANCH  31  32
ATOM     32  C   LIG    1       24.141 -28.792   6.652  0.00  0.00    +0.016 C 
BRANCH  32  33
ATOM     33  C   LIG    1       25.302 -29.603   7.260  0.00  0.00    +0.035 C 
BRANCH  33  34
ATOM     34  C   LIG    1       25.503 -29.358   8.739  0.00  0.00    -0.047 A 
ATOM     35  C   LIG    1       24.696 -29.968   9.712  0.00  0.00    +0.003 A 
ATOM     36  C   LIG    1       24.875 -29.706  11.065  0.00  0.00    +0.000 A 
ATOM     37  C   LIG    1       25.877 -28.835  11.471  0.00  0.00    +0.000 A 
ATOM     38  C   LIG    1       26.706 -28.235  10.524  0.00  0.00    +0.000 A 
ATOM     39  C   LIG    1       26.524 -28.496   9.165  0.00  0.00    +0.003 A 
ENDBRANCH  33  34
ENDBRANCH  32  33
ENDBRANCH  31  32
ENDBRANCH  30  31
ENDBRANCH  28  30
ENDBRANCH  27  28
ENDBRANCH   1  27
TORSDOF 20
ENDMDL
MODEL 3
REMARK VINA RESULT:      -9.8      1.693      9.233
REMARK  Name = *****
REMARK                            x       y       z     vdW  Elec       q    Type
REMARK                         _______ _______ _______ _____ _____    ______ ____
ROOT
ATOM      1  C   LIG    1       23.797 -21.680   6.659  0.00  0.00    +0.251 C 
ENDROOT
BRANCH   1   2
ATOM      2  C   LIG    1       25.018 -21.560   7.591  0.00  0.00    +0.280 C 
BRANCH   2   3
ATOM      3  O   LIG    1       26.319 -21.546   6.932  0.00  0.00    -0.461 OA
BRANCH   3   4
ATOM      4  C   LIG    1       27.221 -20.738   7.595  0.00  0.00    +0.307 C 
ATOM      5  O   LIG    1       26.965 -20.376   8.727  0.00  0.00    -0.251 OA
BRANCH   4   6
ATOM      6  C   LIG    1       28.715 -20.537   6.661  0.00  0.00    +0.121 C 
BRANCH   6   7
ATOM      7  C   LIG    1       29.820 -19.216   6.650  0.00  0.00    +0.016 C 
BRANCH   7   8
ATOM      8  C   LIG    1       31.142 -19.125   7.297  0.00  0.00    +0.035 C 
BRANCH   8   9
ATOM      9  C   LIG    1       31.071 -18.208   8.556  0.00  0.00    -0.047 A 
ATOM     10  C   LIG    1       32.208 -17.440   8.758  0.00  0.00    +0.003 A 
ATOM     11  C   LIG    1       32.374 -16.695   9.921  0.00  0.00    +0.000 A 
ATOM     12  C   LIG    1       31.389 -16.665  10.906  0.00  0.00    +0.000 A 
ATOM     13  C   LIG    1       30.194 -17.338  10.701  0.00  0.00    +0.000 A 
ATOM     14  C   LIG    1       30.032 -18.100   9.531  0.00  0.00    +0.003 A 
ENDBRANCH   8   9
ENDBRANCH   7   8
ENDBRANCH   6   7
ENDBRANCH   4   6
ENDBRANCH   3   4
ENDBRANCH   2   3
ENDBRANCH   1   2
BRANCH   1  15
ATOM     15  O   LIG    1       24.178 -21.321   5.316  0.00  0.00    -0.454 OA
BRANCH  15  16
ATOM     16  C   LIG    1       23.699 -20.141   4.889  0.00  0.00    +0.308 C 
ATOM     17  O   LIG    1       22.721 -19.522   5.371  0.00  0.00    -0.251 OA
BRANCH  16  18
ATOM     18  C   LIG    1       24.601 -19.553   3.806  0.00  0.00    +0.121 C 
BRANCH  18  19
ATOM     19  C   LIG    1       24.670 -18.028   3.675  0.00  0.00    +0.016 C 
BRANCH  19  20
ATOM     20  C   LIG    1       25.978 -17.365   3.255  0.00  0.00    +0.035 C 
BRANCH  20  21
ATOM     21  C   LIG    1       25.880 -15.933   3.486  0.00  0.00    -0.047 A 
ATOM     22  C   LIG    1       27.135 -15.398   3.519  0.00  0.00    +0.003 A 
ATOM     23  C   LIG    1       27.118 -14.264   4.132  0.00  0.00    +0.000 A 
ATOM     24  C   LIG    1       26.049 -13.575   4.740  0.00  0.00    +0.000 A 
ATOM     25  C   LIG    1       24.774 -13.858   4.363  0.00  0.00    +0.000 A 
ATOM     26  C   LIG    1       24.699 -15.138   3.733  0.00  0.00    +0.003 A 
ENDBRANCH  20  21
ENDBRANCH  19  20
ENDBRANCH  18  19
ENDBRANCH  16  18
ENDBRANCH  15  16
ENDBRANCH   1  15
BRANCH   1  27
ATOM     27  C   LIG    1       23.234 -23.082   6.719  0.00  0.00    +0.280 C 
BRANCH  27  28
ATOM     28  O   LIG    1       24.292 -24.015   6.937  0.00  0.00    -0.461 OA
BRANCH  28  30
ATOM     29  O   LIG    1       25.467 -24.427   5.016  0.00  0.00    -0.251 OA
ATOM     30  C   LIG    1       24.670 -24.780   5.889  0.00  0.00    +0.307 C 
BRANCH  30  31
ATOM     31  C   LIG    1       23.992 -26.125   5.915  0.00  0.00    +0.121 C 
BRANCH  31  32
ATOM     32  C   LIG    1       24.934 -27.313   6.071  0.00  0.00    +0.016 C 
BRANCH  32  33
ATOM     33  C   LIG    1       25.914 -27.230   7.257  0.00  0.00    +0.035 C 
BRANCH  33  34
ATOM     34  C   LIG    1       25.793 -28.386   8.225  0.00  0.00    -0.047 A 
ATOM     35  C   LIG    1       24.863 -29.420   8.037  0.00  0.00    +0.003 A 
ATOM     36  C   LIG    1       24.744 -30.458   8.953  0.00  0.00    +0.000 A 
ATOM     37  C   LIG    1       25.566 -30.488  10.072  0.00  0.00    +0.000 A 
ATOM     38  C   LIG    1       26.515 -29.484  10.267  0.00  0.00    +0.000 A 
ATOM     39  C   LIG    1       26.632 -28.439   9.347  0.00  0.00    +0.003 A 
ENDBRANCH  33  34
ENDBRANCH  32  33
ENDBRANCH  31  32
ENDBRANCH  30  31
ENDBRANCH  28  30
ENDBRANCH  27  28
ENDBRANCH   1  27
TORSDOF 20
ENDMDL
MODEL 4
REMARK VINA RESULT:      -9.7      2.439      9.109
REMARK  Name = *****
REMARK                            x       y       z     vdW  Elec       q    Type
REMARK                         _______ _______ _______ _____ _____    ______ ____
ROOT
ATOM      1  C   LIG    1       24.855 -23.578   6.136  0.00  0.00    +0.251 C 
ENDROOT
BRANCH   1   2
ATOM      2  C   LIG    1       25.055 -24.635   5.033  0.00  0.00    +0.280 C 
BRANCH   2   3
ATOM      3  O   LIG    1       24.500 -25.955   5.312  0.00  0.00    -0.461 OA
BRANCH   3   4
ATOM      4  C   LIG    1       25.479 -26.928   5.337  0.00  0.00    +0.307 C 
ATOM      5  O   LIG    1       26.643 -26.594   5.233  0.00  0.00    -0.251 OA
BRANCH   4   6
ATOM      6  C   LIG    1       24.794 -28.521   5.708  0.00  0.00    +0.121 C 
BRANCH   6   7
ATOM      7  C   LIG    1       24.315 -29.170   7.230  0.00  0.00    +0.016 C 
BRANCH   7   8
ATOM      8  C   LIG    1       24.991 -30.202   8.038  0.00  0.00    +0.035 C 
BRANCH   8   9
ATOM      9  C   LIG    1       25.580 -29.576   9.340  0.00  0.00    -0.047 A 
ATOM     10  C   LIG    1       24.990 -30.043  10.504  0.00  0.00    +0.003 A 
ATOM     11  C   LIG    1       25.281 -29.468  11.738  0.00  0.00    +0.000 A 
ATOM     12  C   LIG    1       26.202 -28.428  11.850  0.00  0.00    +0.000 A 
ATOM     13  C   LIG    1       26.889 -27.997  10.724  0.00  0.00    +0.000 A 
ATOM     14  C   LIG    1       26.585 -28.570   9.478  0.00  0.00    +0.003 A 
ENDBRANCH   8   9
ENDBRANCH   7   8
ENDBRANCH   6   7
ENDBRANCH   4   6
ENDBRANCH   3   4
ENDBRANCH   2   3
ENDBRANCH   1   2
BRANCH   1  15
ATOM     15  O   LIG    1       23.486 -23.605   6.588  0.00  0.00    -0.454 OA
BRANCH  15  16
ATOM     16  C   LIG    1       22.994 -22.415   6.973  0.00  0.00    +0.308 C 
ATOM     17  O   LIG    1       22.939 -21.986   8.150  0.00  0.00    -0.251 OA
BRANCH  16  18
ATOM     18  C   LIG    1       22.631 -21.563   5.759  0.00  0.00    +0.121 C 
BRANCH  18  19
ATOM     19  C   LIG    1       22.805 -20.044   5.867  0.00  0.00    +0.016 C 
BRANCH  19  20
ATOM     20  C   LIG    1       22.379 -19.153   4.706  0.00  0.00    +0.035 C 
BRANCH  20  21
ATOM     21  C   LIG    1       23.560 -18.743   3.963  0.00  0.00    -0.047 A 
ATOM     22  C   LIG    1       24.207 -19.853   3.502  0.00  0.00    +0.003 A 
ATOM     23  C   LIG    1       25.436 -19.570   3.231  0.00  0.00    +0.000 A 
ATOM     24  C   LIG    1       26.139 -18.356   3.362  0.00  0.00    +0.000 A 
ATOM     25  C   LIG    1       25.447 -17.186   3.403  0.00  0.00    +0.000 A 
ATOM     26  C   LIG    1       24.084 -17.410   3.766  0.00  0.00    +0.003 A 
ENDBRANCH  20  21
ENDBRANCH  19  20
ENDBRANCH  18  19
ENDBRANCH  16  18
ENDBRANCH  15  16
ENDBRANCH   1  15
BRANCH   1  27
ATOM     27  C   LIG    1       25.819 -23.827   7.274  0.00  0.00    +0.280 C 
BRANCH  27  28
ATOM     28  O   LIG    1       26.756 -22.752   7.352  0.00  0.00    -0.461 OA
BRANCH  28  30
ATOM     29  O   LIG    1       26.007 -21.653   9.215  0.00  0.00    -0.251 OA
ATOM     30  C   LIG    1       26.380 -21.651   8.039  0.00  0.00    +0.307 C 
BRANCH  30  31
ATOM     31  C   LIG    1       26.470 -20.411   7.187  0.00  0.00    +0.121 C 
BRANCH  31  32
ATOM     32  C   LIG    1       27.482 -20.488   6.052  0.00  0.00    +0.016 C 
BRANCH  32  33
ATOM     33  C   LIG    1       28.498 -19.330   5.990  0.00  0.00    +0.035 C 
BRANCH  33  34
ATOM     34  C   LIG    1       29.542 -19.383   7.084  0.00  0.00    -0.047 A 
ATOM     35  C   LIG    1       30.120 -18.221   7.619  0.00  0.00    +0.003 A 
ATOM     36  C   LIG    1       31.101 -18.290   8.601  0.00  0.00    +0.000 A 
ATOM     37  C   LIG    1       31.514 -19.527   9.076  0.00  0.00    +0.000 A 
ATOM     38  C   LIG    1       30.937 -20.694   8.576  0.00  0.00    +0.000 A 
ATOM     39  C   LIG    1       29.954 -20.625   7.587  0.00  0.00    +0.003 A 
ENDBRANCH  33  34
ENDBRANCH  32  33
ENDBRANCH  31  32
ENDBRANCH  30  31
ENDBRANCH  28  30
ENDBRANCH  27  28
ENDBRANCH   1  27
TORSDOF 20
ENDMDL
MODEL 5
REMARK VINA RESULT:      -9.5      1.301      7.617
REMARK  Name = *****
REMARK                            x       y       z     vdW  Elec       q    Type
REMARK                         _______ _______ _______ _____ _____    ______ ____
ROOT
ATOM      1  C   LIG    1       23.806 -21.134   6.515  0.00  0.00    +0.251 C 
ENDROOT
BRANCH   1   2
ATOM      2  C   LIG    1       23.077 -19.959   5.838  0.00  0.00    +0.280 C 
BRANCH   2   3
ATOM      3  O   LIG    1       23.240 -19.861   4.392  0.00  0.00    -0.461 OA
BRANCH   3   4
ATOM      4  C   LIG    1       23.840 -18.674   4.022  0.00  0.00    +0.307 C 
ATOM      5  O   LIG    1       24.930 -18.708   3.486  0.00  0.00    -0.251 OA
BRANCH   4   6
ATOM      6  C   LIG    1       22.751 -17.297   4.271  0.00  0.00    +0.121 C 
BRANCH   6   7
ATOM      7  C   LIG    1       23.136 -15.666   4.669  0.00  0.00    +0.016 C 
BRANCH   7   8
ATOM      8  C   LIG    1       23.456 -14.552   3.756  0.00  0.00    +0.035 C 
BRANCH   8   9
ATOM      9  C   LIG    1       24.954 -14.143   3.901  0.00  0.00    -0.047 A 
ATOM     10  C   LIG    1       25.674 -14.218   2.718  0.00  0.00    +0.003 A 
ATOM     11  C   LIG    1       27.055 -14.047   2.705  0.00  0.00    +0.000 A 
ATOM     12  C   LIG    1       27.757 -13.759   3.874  0.00  0.00    +0.000 A 
ATOM     13  C   LIG    1       27.065 -13.578   5.063  0.00  0.00    +0.000 A 
ATOM     14  C   LIG    1       25.672 -13.762   5.075  0.00  0.00    +0.003 A 
ENDBRANCH   8   9
ENDBRANCH   7   8
ENDBRANCH   6   7
ENDBRANCH   4   6
ENDBRANCH   3   4
ENDBRANCH   2   3
ENDBRANCH   1   2
BRANCH   1  15
ATOM     15  O   LIG    1       24.132 -20.782   7.875  0.00  0.00    -0.454 OA
BRANCH  15  16
ATOM     16  C   LIG    1       25.423 -20.945   8.208  0.00  0.00    +0.308 C 
ATOM     17  O   LIG    1       25.856 -21.596   9.188  0.00  0.00    -0.251 OA
BRANCH  16  18
ATOM     18  C   LIG    1       26.336 -20.348   7.139  0.00  0.00    +0.121 C 
BRANCH  18  19
ATOM     19  C   LIG    1       27.734 -20.952   6.965  0.00  0.00    +0.016 C 
BRANCH  19  20
ATOM     20  C   LIG    1       28.813 -20.157   6.239  0.00  0.00    +0.035 C 
BRANCH  20  21
ATOM     21  C   LIG    1       29.745 -19.620   7.217  0.00  0.00    -0.047 A 
ATOM     22  C   LIG    1       29.049 -19.179   8.305  0.00  0.00    +0.003 A 
ATOM     23  C   LIG    1       29.758 -18.333   8.972  0.00  0.00    +0.000 A 
ATOM     24  C   LIG    1       31.053 -17.835   8.723  0.00  0.00    +0.000 A 
ATOM     25  C   LIG    1       31.899 -18.546   7.932  0.00  0.00    +0.000 A 
ATOM     26  C   LIG    1       31.178 -19.463   7.106  0.00  0.00    +0.003 A 
ENDBRANCH  20  21
ENDBRANCH  19  20
ENDBRANCH  18  19
ENDBRANCH  16  18
ENDBRANCH  15  16
ENDBRANCH   1  15
BRANCH   1  27
ATOM     27  C   LIG    1       22.951 -22.380   6.456  0.00  0.00    +0.280 C 
BRANCH  27  28
ATOM     28  O   LIG    1       23.717 -23.508   6.879  0.00  0.00    -0.461 OA
BRANCH  28  30
ATOM     29  O   LIG    1       24.794 -23.683   4.866  0.00  0.00    -0.251 OA
ATOM     30  C   LIG    1       24.732 -23.902   6.079  0.00  0.00    +0.307 C 
BRANCH  30  31
ATOM     31  C   LIG    1       25.787 -24.649   6.853  0.00  0.00    +0.121 C 
BRANCH  31  32
ATOM     32  C   LIG    1       25.988 -26.098   6.427  0.00  0.00    +0.016 C 
BRANCH  32  33
ATOM     33  C   LIG    1       24.719 -26.972   6.433  0.00  0.00    +0.035 C 
BRANCH  33  34
ATOM     34  C   LIG    1       25.006 -28.457   6.474  0.00  0.00    -0.047 A 
ATOM     35  C   LIG    1       25.043 -29.175   7.679  0.00  0.00    +0.003 A 
ATOM     36  C   LIG    1       25.341 -30.533   7.700  0.00  0.00    +0.000 A 
ATOM     37  C   LIG    1       25.594 -31.201   6.510  0.00  0.00    +0.000 A 
ATOM     38  C   LIG    1       25.539 -30.513   5.298  0.00  0.00    +0.000 A 
ATOM     39  C   LIG    1       25.244 -29.148   5.277  0.00  0.00    +0.003 A 
ENDBRANCH  33  34
ENDBRANCH  32  33
ENDBRANCH  31  32
ENDBRANCH  30  31
ENDBRANCH  28  30
ENDBRANCH  27  28
ENDBRANCH   1  27
TORSDOF 20
ENDMDL
MODEL 6
REMARK VINA RESULT:      -9.4      2.712      8.680
REMARK  Name = *****
REMARK                            x       y       z     vdW  Elec       q    Type
REMARK                         _______ _______ _______ _____ _____    ______ ____
ROOT
ATOM      1  C   LIG    1       26.556 -22.315   7.261  0.00  0.00    +0.251 C 
ENDROOT
BRANCH   1   2
ATOM      2  C   LIG    1       28.030 -21.889   7.126  0.00  0.00    +0.280 C 
BRANCH   2   3
ATOM      3  O   LIG    1       28.307 -20.478   7.374  0.00  0.00    -0.461 OA
BRANCH   3   4
ATOM      4  C   LIG    1       28.673 -19.816   6.219  0.00  0.00    +0.307 C 
ATOM      5  O   LIG    1       27.914 -19.825   5.270  0.00  0.00    -0.251 OA
BRANCH   4   6
ATOM      6  C   LIG    1       30.178 -18.906   6.448  0.00  0.00    +0.121 C 
BRANCH   6   7
ATOM      7  C   LIG    1       31.315 -18.994   7.739  0.00  0.00    +0.016 C 
BRANCH   7   8
ATOM      8  C   LIG    1       31.052 -19.202   9.176  0.00  0.00    +0.035 C 
BRANCH   8   9
ATOM      9  C   LIG    1       31.449 -17.933   9.991  0.00  0.00    -0.047 A 
ATOM     10  C   LIG    1       32.390 -17.132   9.361  0.00  0.00    +0.003 A 
ATOM     11  C   LIG    1       32.973 -16.054  10.020  0.00  0.00    +0.000 A 
ATOM     12  C   LIG    1       32.607 -15.721  11.322  0.00  0.00    +0.000 A 
ATOM     13  C   LIG    1       31.599 -16.435  11.955  0.00  0.00    +0.000 A 
ATOM     14  C   LIG    1       31.020 -17.530  11.292  0.00  0.00    +0.003 A 
ENDBRANCH   8   9
ENDBRANCH   7   8
ENDBRANCH   6   7
ENDBRANCH   4   6
ENDBRANCH   3   4
ENDBRANCH   2   3
ENDBRANCH   1   2
BRANCH   1  15
ATOM     15  O   LIG    1       25.699 -21.213   6.901  0.00  0.00    -0.454 OA
BRANCH  15  16
ATOM     16  C   LIG    1       24.917 -20.757   7.894  0.00  0.00    +0.308 C 
ATOM     17  O   LIG    1       25.306 -20.360   9.017  0.00  0.00    -0.251 OA
BRANCH  16  18
ATOM     18  C   LIG    1       23.467 -20.640   7.427  0.00  0.00    +0.121 C 
BRANCH  18  19
ATOM     19  C   LIG    1       22.943 -21.684   6.436  0.00  0.00    +0.016 C 
BRANCH  19  20
ATOM     20  C   LIG    1       22.119 -21.235   5.234  0.00  0.00    +0.035 C 
BRANCH  20  21
ATOM     21  C   LIG    1       22.916 -20.331   4.423  0.00  0.00    -0.047 A 
ATOM     22  C   LIG    1       23.925 -21.032   3.828  0.00  0.00    +0.003 A 
ATOM     23  C   LIG    1       24.872 -20.233   3.472  0.00  0.00    +0.000 A 
ATOM     24  C   LIG    1       24.990 -18.837   3.627  0.00  0.00    +0.000 A 
ATOM     25  C   LIG    1       23.870 -18.090   3.812  0.00  0.00    +0.000 A 
ATOM     26  C   LIG    1       22.787 -18.898   4.276  0.00  0.00    +0.003 A 
ENDBRANCH  20  21
ENDBRANCH  19  20
ENDBRANCH  18  19
ENDBRANCH  16  18
ENDBRANCH  15  16
ENDBRANCH   1  15
BRANCH   1  27
ATOM     27  C   LIG    1       26.286 -23.529   6.402  0.00  0.00    +0.280 C 
BRANCH  27  28
ATOM     28  O   LIG    1       25.764 -24.583   7.212  0.00  0.00    -0.461 OA
BRANCH  28  30
ATOM     29  O   LIG    1       23.700 -25.115   6.375  0.00  0.00    -0.251 OA
ATOM     30  C   LIG    1       24.867 -25.417   6.641  0.00  0.00    +0.307 C 
BRANCH  30  31
ATOM     31  C   LIG    1       25.468 -26.771   6.366  0.00  0.00    +0.121 C 
BRANCH  31  32
ATOM     32  C   LIG    1       24.461 -27.909   6.266  0.00  0.00    +0.016 C 
BRANCH  32  33
ATOM     33  C   LIG    1       24.973 -29.289   6.721  0.00  0.00    +0.035 C 
BRANCH  33  34
ATOM     34  C   LIG    1       24.943 -29.481   8.221  0.00  0.00    -0.047 A 
ATOM     35  C   LIG    1       25.997 -29.061   9.048  0.00  0.00    +0.003 A 
ATOM     36  C   LIG    1       25.965 -29.275  10.421  0.00  0.00    +0.000 A 
ATOM     37  C   LIG    1       24.869 -29.903  10.995  0.00  0.00    +0.000 A 
ATOM     38  C   LIG    1       23.799 -30.308  10.197  0.00  0.00    +0.000 A 
ATOM     39  C   LIG    1       23.832 -30.096   8.817  0.00  0.00    +0.003 A 
ENDBRANCH  33  34
ENDBRANCH  32  33
ENDBRANCH  31  32
ENDBRANCH  30  31
ENDBRANCH  28  30
ENDBRANCH  27  28
ENDBRANCH   1  27
TORSDOF 20
ENDMDL
MODEL 7
REMARK VINA RESULT:      -9.4      2.607      8.594
REMARK  Name = *****
REMARK                            x       y       z     vdW  Elec       q    Type
REMARK                         _______ _______ _______ _____ _____    ______ ____
ROOT
ATOM      1  C   LIG    1       26.734 -21.956   6.780  0.00  0.00    +0.251 C 
ENDROOT
BRANCH   1   2
ATOM      2  C   LIG    1       25.952 -23.256   7.049  0.00  0.00    +0.280 C 
BRANCH   2   3
ATOM      3  O   LIG    1       25.297 -23.853   5.890  0.00  0.00    -0.461 OA
BRANCH   3   4
ATOM      4  C   LIG    1       24.423 -24.857   6.256  0.00  0.00    +0.307 C 
ATOM      5  O   LIG    1       23.419 -24.566   6.877  0.00  0.00    -0.251 OA
BRANCH   4   6
ATOM      6  C   LIG    1       24.898 -26.413   5.551  0.00  0.00    +0.121 C 
BRANCH   6   7
ATOM      7  C   LIG    1       24.359 -27.998   5.956  0.00  0.00    +0.016 C 
BRANCH   7   8
ATOM      8  C   LIG    1       25.172 -29.180   6.300  0.00  0.00    +0.035 C 
BRANCH   8   9
ATOM      9  C   LIG    1       25.198 -29.391   7.845  0.00  0.00    -0.047 A 
ATOM     10  C   LIG    1       24.115 -30.106   8.333  0.00  0.00    +0.003 A 
ATOM     11  C   LIG    1       23.900 -30.240   9.702  0.00  0.00    +0.000 A 
ATOM     12  C   LIG    1       24.784 -29.690  10.628  0.00  0.00    +0.000 A 
ATOM     13  C   LIG    1       25.932 -29.052  10.184  0.00  0.00    +0.000 A 
ATOM     14  C   LIG    1       26.142 -28.908   8.803  0.00  0.00    +0.003 A 
ENDBRANCH   8   9
ENDBRANCH   7   8
ENDBRANCH   6   7
ENDBRANCH   4   6
ENDBRANCH   3   4
ENDBRANCH   2   3
ENDBRANCH   1   2
BRANCH   1  15
ATOM     15  O   LIG    1       25.893 -20.819   7.058  0.00  0.00    -0.454 OA
BRANCH  15  16
ATOM     16  C   LIG    1       24.913 -21.045   7.949  0.00  0.00    +0.308 C 
ATOM     17  O   LIG    1       25.063 -21.461   9.122  0.00  0.00    -0.251 OA
BRANCH  16  18
ATOM     18  C   LIG    1       23.565 -20.585   7.396  0.00  0.00    +0.121 C 
BRANCH  18  19
ATOM     19  C   LIG    1       22.880 -21.463   6.344  0.00  0.00    +0.016 C 
BRANCH  19  20
ATOM     20  C   LIG    1       22.136 -20.810   5.185  0.00  0.00    +0.035 C 
BRANCH  20  21
ATOM     21  C   LIG    1       23.085 -20.069   4.370  0.00  0.00    -0.047 A 
ATOM     22  C   LIG    1       24.057 -20.920   3.929  0.00  0.00    +0.003 A 
ATOM     23  C   LIG    1       25.108 -20.255   3.588  0.00  0.00    +0.000 A 
ATOM     24  C   LIG    1       25.360 -18.868   3.630  0.00  0.00    +0.000 A 
ATOM     25  C   LIG    1       24.313 -18.001   3.650  0.00  0.00    +0.000 A 
ATOM     26  C   LIG    1       23.118 -18.652   4.087  0.00  0.00    +0.003 A 
ENDBRANCH  20  21
ENDBRANCH  19  20
ENDBRANCH  18  19
ENDBRANCH  16  18
ENDBRANCH  15  16
ENDBRANCH   1  15
BRANCH   1  27
ATOM     27  C   LIG    1       27.996 -21.928   7.612  0.00  0.00    +0.280 C 
BRANCH  27  28
ATOM     28  O   LIG    1       28.345 -20.576   7.907  0.00  0.00    -0.461 OA
BRANCH  28  30
ATOM     29  O   LIG    1       29.084 -19.482   6.036  0.00  0.00    -0.251 OA
ATOM     30  C   LIG    1       29.294 -19.999   7.137  0.00  0.00    +0.307 C 
BRANCH  30  31
ATOM     31  C   LIG    1       30.650 -20.064   7.790  0.00  0.00    +0.121 C 
BRANCH  31  32
ATOM     32  C   LIG    1       31.360 -18.723   7.925  0.00  0.00    +0.016 C 
BRANCH  32  33
ATOM     33  C   LIG    1       30.570 -17.626   8.665  0.00  0.00    +0.035 C 
BRANCH  33  34
ATOM     34  C   LIG    1       31.296 -17.062   9.866  0.00  0.00    -0.047 A 
ATOM     35  C   LIG    1       30.952 -17.418  11.179  0.00  0.00    +0.003 A 
ATOM     36  C   LIG    1       31.609 -16.865  12.271  0.00  0.00    +0.000 A 
ATOM     37  C   LIG    1       32.636 -15.952  12.068  0.00  0.00    +0.000 A 
ATOM     38  C   LIG    1       33.011 -15.602  10.772  0.00  0.00    +0.000 A 
ATOM     39  C   LIG    1       32.348 -16.155   9.674  0.00  0.00    +0.003 A 
ENDBRANCH  33  34
ENDBRANCH  32  33
ENDBRANCH  31  32
ENDBRANCH  30  31
ENDBRANCH  28  30
ENDBRANCH  27  28
ENDBRANCH   1  27
TORSDOF 20
ENDMDL
MODEL 8
REMARK VINA RESULT:      -9.3      1.781      6.604
REMARK  Name = *****
REMARK                            x       y       z     vdW  Elec       q    Type
REMARK                         _______ _______ _______ _____ _____    ______ ____
ROOT
ATOM      1  C   LIG    1       24.366 -22.900   6.632  0.00  0.00    +0.251 C 
ENDROOT
BRANCH   1   2
ATOM      2  C   LIG    1       25.540 -22.859   7.628  0.00  0.00    +0.280 C 
BRANCH   2   3
ATOM      3  O   LIG    1       26.713 -22.107   7.194  0.00  0.00    -0.461 OA
BRANCH   3   4
ATOM      4  C   LIG    1       26.941 -21.005   7.995  0.00  0.00    +0.307 C 
ATOM      5  O   LIG    1       26.318 -20.894   9.033  0.00  0.00    -0.251 OA
BRANCH   4   6
ATOM      6  C   LIG    1       28.290 -20.032   7.382  0.00  0.00    +0.121 C 
BRANCH   6   7
ATOM      7  C   LIG    1       29.913 -19.943   7.954  0.00  0.00    +0.016 C 
BRANCH   7   8
ATOM      8  C   LIG    1       30.925 -18.906   7.676  0.00  0.00    +0.035 C 
BRANCH   8   9
ATOM      9  C   LIG    1       31.069 -17.945   8.896  0.00  0.00    -0.047 A 
ATOM     10  C   LIG    1       32.206 -17.152   8.855  0.00  0.00    +0.003 A 
ATOM     11  C   LIG    1       32.570 -16.362   9.941  0.00  0.00    +0.000 A 
ATOM     12  C   LIG    1       31.786 -16.312  11.092  0.00  0.00    +0.000 A 
ATOM     13  C   LIG    1       30.589 -17.012  11.137  0.00  0.00    +0.000 A 
ATOM     14  C   LIG    1       30.229 -17.819  10.044  0.00  0.00    +0.003 A 
ENDBRANCH   8   9
ENDBRANCH   7   8
ENDBRANCH   6   7
ENDBRANCH   4   6
ENDBRANCH   3   4
ENDBRANCH   2   3
ENDBRANCH   1   2
BRANCH   1  15
ATOM     15  O   LIG    1       23.791 -24.222   6.618  0.00  0.00    -0.454 OA
BRANCH  15  16
ATOM     16  C   LIG    1       24.449 -25.118   5.864  0.00  0.00    +0.308 C 
ATOM     17  O   LIG    1       25.281 -24.856   4.964  0.00  0.00    -0.251 OA
BRANCH  16  18
ATOM     18  C   LIG    1       24.164 -26.540   6.343  0.00  0.00    +0.121 C 
BRANCH  18  19
ATOM     19  C   LIG    1       25.356 -27.474   6.576  0.00  0.00    +0.016 C 
BRANCH  19  20
ATOM     20  C   LIG    1       25.119 -28.971   6.742  0.00  0.00    +0.035 C 
BRANCH  20  21
ATOM     21  C   LIG    1       25.547 -29.376   8.071  0.00  0.00    -0.047 A 
ATOM     22  C   LIG    1       26.052 -28.292   8.729  0.00  0.00    +0.003 A 
ATOM     23  C   LIG    1       26.812 -28.674   9.698  0.00  0.00    +0.000 A 
ATOM     24  C   LIG    1       27.170 -29.973  10.114  0.00  0.00    +0.000 A 
ATOM     25  C   LIG    1       26.378 -31.024   9.772  0.00  0.00    +0.000 A 
ATOM     26  C   LIG    1       25.549 -30.698   8.655  0.00  0.00    +0.003 A 
ENDBRANCH  20  21
ENDBRANCH  19  20
ENDBRANCH  18  19
ENDBRANCH  16  18
ENDBRANCH  15  16
ENDBRANCH   1  15
BRANCH   1  27
ATOM     27  C   LIG    1       23.339 -21.853   6.996  0.00  0.00    +0.280 C 
BRANCH  27  28
ATOM     28  O   LIG    1       23.811 -20.563   6.608  0.00  0.00    -0.461 OA
BRANCH  28  30
ATOM     29  O   LIG    1       22.380 -20.079   4.888  0.00  0.00    -0.251 OA
ATOM     30  C   LIG    1       23.519 -20.147   5.356  0.00  0.00    +0.307 C 
BRANCH  30  31
ATOM     31  C   LIG    1       24.765 -19.774   4.594  0.00  0.00    +0.121 C 
BRANCH  31  32
ATOM     32  C   LIG    1       24.586 -18.639   3.593  0.00  0.00    +0.016 C 
BRANCH  32  33
ATOM     33  C   LIG    1       25.849 -17.805   3.306  0.00  0.00    +0.035 C 
BRANCH  33  34
ATOM     34  C   LIG    1       25.652 -16.319   3.511  0.00  0.00    -0.047 A 
ATOM     35  C   LIG    1       26.712 -15.405   3.403  0.00  0.00    +0.003 A 
ATOM     36  C   LIG    1       26.518 -14.047   3.625  0.00  0.00    +0.000 A 
ATOM     37  C   LIG    1       25.253 -13.575   3.948  0.00  0.00    +0.000 A 
ATOM     38  C   LIG    1       24.180 -14.461   4.038  0.00  0.00    +0.000 A 
ATOM     39  C   LIG    1       24.375 -15.827   3.817  0.00  0.00    +0.003 A 
ENDBRANCH  33  34
ENDBRANCH  32  33
ENDBRANCH  31  32
ENDBRANCH  30  31
ENDBRANCH  28  30
ENDBRANCH  27  28
ENDBRANCH   1  27
TORSDOF 20
ENDMDL
MODEL 9
REMARK VINA RESULT:      -9.3      5.851     12.345
REMARK  Name = *****
REMARK                            x       y       z     vdW  Elec       q    Type
REMARK                         _______ _______ _______ _____ _____    ______ ____
ROOT
ATOM      1  C   LIG    1       25.173 -29.783   5.891  0.00  0.00    +0.251 C 
ENDROOT
BRANCH   1   2
ATOM      2  C   LIG    1       25.847 -31.027   5.283  0.00  0.00    +0.280 C 
BRANCH   2   3
ATOM      3  O   LIG    1       25.703 -32.262   6.047  0.00  0.00    -0.461 OA
BRANCH   3   4
ATOM      4  C   LIG    1       26.810 -32.511   6.834  0.00  0.00    +0.307 C 
ATOM      5  O   LIG    1       27.870 -32.764   6.295  0.00  0.00    -0.251 OA
BRANCH   4   6
ATOM      6  C   LIG    1       26.460 -32.220   8.548  0.00  0.00    +0.121 C 
BRANCH   6   7
ATOM      7  C   LIG    1       27.140 -31.049   9.612  0.00  0.00    +0.016 C 
BRANCH   7   8
ATOM      8  C   LIG    1       26.932 -29.588   9.616  0.00  0.00    +0.035 C 
BRANCH   8   9
ATOM      9  C   LIG    1       26.952 -29.040  11.076  0.00  0.00    -0.047 A 
ATOM     10  C   LIG    1       26.698 -27.680  11.169  0.00  0.00    +0.003 A 
ATOM     11  C   LIG    1       26.842 -27.003  12.377  0.00  0.00    +0.000 A 
ATOM     12  C   LIG    1       27.210 -27.675  13.541  0.00  0.00    +0.000 A 
ATOM     13  C   LIG    1       27.378 -29.052  13.514  0.00  0.00    +0.000 A 
ATOM     14  C   LIG    1       27.244 -29.731  12.292  0.00  0.00    +0.003 A 
ENDBRANCH   8   9
ENDBRANCH   7   8
ENDBRANCH   6   7
ENDBRANCH   4   6
ENDBRANCH   3   4
ENDBRANCH   2   3
ENDBRANCH   1   2
BRANCH   1  15
ATOM     15  O   LIG    1       24.950 -28.801   4.859  0.00  0.00    -0.454 OA
BRANCH  15  16
ATOM     16  C   LIG    1       25.411 -27.571   5.138  0.00  0.00    +0.308 C 
ATOM     17  O   LIG    1       26.518 -27.099   4.784  0.00  0.00    -0.251 OA
BRANCH  16  18
ATOM     18  C   LIG    1       24.338 -26.739   5.837  0.00  0.00    +0.121 C 
BRANCH  18  19
ATOM     19  C   LIG    1       24.495 -25.214   5.837  0.00  0.00    +0.016 C 
BRANCH  19  20
ATOM     20  C   LIG    1       25.603 -24.570   6.662  0.00  0.00    +0.035 C 
BRANCH  20  21
ATOM     21  C   LIG    1       25.114 -23.320   7.221  0.00  0.00    -0.047 A 
ATOM     22  C   LIG    1       23.785 -23.191   6.936  0.00  0.00    +0.003 A 
ATOM     23  C   LIG    1       23.430 -21.955   7.022  0.00  0.00    +0.000 A 
ATOM     24  C   LIG    1       24.192 -20.810   7.332  0.00  0.00    +0.000 A 
ATOM     25  C   LIG    1       25.360 -20.951   8.013  0.00  0.00    +0.000 A 
ATOM     26  C   LIG    1       25.856 -22.287   7.907  0.00  0.00    +0.003 A 
ENDBRANCH  20  21
ENDBRANCH  19  20
ENDBRANCH  18  19
ENDBRANCH  16  18
ENDBRANCH  15  16
ENDBRANCH   1  15
BRANCH   1  27
ATOM     27  C   LIG    1       23.881 -30.173   6.572  0.00  0.00    +0.280 C 
BRANCH  27  28
ATOM     28  O   LIG    1       23.898 -29.722   7.927  0.00  0.00    -0.461 OA
BRANCH  28  30
ATOM     29  O   LIG    1       22.978 -31.694   8.638  0.00  0.00    -0.251 OA
ATOM     30  C   LIG    1       23.382 -30.550   8.862  0.00  0.00    +0.307 C 
BRANCH  30  31
ATOM     31  C   LIG    1       23.359 -29.901  10.221  0.00  0.00    +0.121 C 
BRANCH  31  32
ATOM     32  C   LIG    1       23.624 -30.846  11.386  0.00  0.00    +0.016 C 
BRANCH  32  33
ATOM     33  C   LIG    1       23.762 -30.175  12.766  0.00  0.00    +0.035 C 
BRANCH  33  34
ATOM     34  C   LIG    1       22.940 -28.914  12.911  0.00  0.00    -0.047 A 
ATOM     35  C   LIG    1       23.528 -27.666  13.169  0.00  0.00    +0.003 A 
ATOM     36  C   LIG    1       22.754 -26.523  13.330  0.00  0.00    +0.000 A 
ATOM     37  C   LIG    1       21.372 -26.606  13.224  0.00  0.00    +0.000 A 
ATOM     38  C   LIG    1       20.767 -27.831  12.945  0.00  0.00    +0.000 A 
ATOM     39  C   LIG    1       21.545 -28.980  12.785  0.00  0.00    +0.003 A 
ENDBRANCH  33  34
ENDBRANCH  32  33
ENDBRANCH  31  32
ENDBRANCH  30  31
ENDBRANCH  28  30
ENDBRANCH  27  28
ENDBRANCH   1  27
TORSDOF 20
ENDMDL
