MODEL 1
REMARK VINA RESULT:      -7.5      0.000      0.000
REMARK  Name = *****
REMARK                            x       y       z     vdW  Elec       q    Type
REMARK                         _______ _______ _______ _____ _____    ______ ____
ROOT
ATOM      1  C   LIG    1       27.229 -21.320   6.536  0.00  0.00    -0.011 A 
ATOM      2  C   LIG    1       28.405 -20.616   6.960  0.00  0.00    -0.012 A 
ATOM      3  C   LIG    1       28.663 -19.350   6.395  0.00  0.00    -0.009 A 
ATOM      4  C   LIG    1       29.739 -18.581   6.932  0.00  0.00    +0.021 A 
ATOM      5  C   LIG    1       30.568 -19.014   7.969  0.00  0.00    +0.055 A 
ATOM      6  C   LIG    1       30.410 -20.319   8.412  0.00  0.00    +0.013 A 
ATOM      7  C   LIG    1       27.848 -18.794   5.355  0.00  0.00    -0.007 A 
ATOM      8  C   LIG    1       26.786 -19.578   4.829  0.00  0.00    +0.002 A 
ATOM      9  C   LIG    1       25.993 -19.037   3.785  0.00  0.00    +0.050 A 
ATOM     10  C   LIG    1       26.173 -17.738   3.306  0.00  0.00    +0.040 A 
ATOM     11  C   LIG    1       27.188 -16.969   3.840  0.00  0.00    +0.043 A 
ATOM     12 CL   LIG    1       27.386 -15.342   3.332  0.00  0.00    -0.084 Cl
ATOM     13 CL   LIG    1       24.693 -19.947   3.065  0.00  0.00    -0.083 Cl
ATOM     14  C   LIG    1       28.018 -17.505   4.807  0.00  0.00    +0.029 A 
ATOM     15  C   LIG    1       29.347 -21.115   7.914  0.00  0.00    +0.009 A 
ATOM     16  C   LIG    1       26.553 -20.820   5.414  0.00  0.00    +0.016 A 
ENDROOT
BRANCH   5  17
ATOM     17  C   LIG    1       31.552 -18.046   8.576  0.00  0.00    +0.417 C 
ATOM     18  F   LIG    1       32.678 -17.879   7.833  0.00  0.00    -0.166 F 
ATOM     19  F   LIG    1       31.965 -18.446   9.811  0.00  0.00    -0.166 F 
ATOM     20  F   LIG    1       31.037 -16.796   8.754  0.00  0.00    -0.166 F 
ENDBRANCH   5  17
BRANCH   1  21
ATOM     21  C   LIG    1       26.656 -22.531   7.252  0.00  0.00    +0.146 C 
BRANCH  21  22
ATOM     22  O   LIG    1       26.347 -23.538   6.293  0.00  0.00    -0.387 OA
ATOM     23  H   LIG    1       27.176 -24.014   6.109  0.00  0.00    +0.210 HD
ENDBRANCH  21  22
BRANCH  21  24
ATOM     24  C   LIG    1       25.447 -22.359   8.241  0.00  0.00    +0.051 C 
BRANCH  24  25
ATOM     25  C   LIG    1       24.028 -21.961   7.733  0.00  0.00    +0.087 C 
BRANCH  25  26
ATOM     26  N   LIG    1       23.528 -22.424   6.407  0.00  0.00    -0.302 NA
BRANCH  26  27
ATOM     27  C   LIG    1       22.969 -23.822   6.521  0.00  0.00    +0.084 C 
BRANCH  27  28
ATOM     28  C   LIG    1       23.896 -25.074   6.667  0.00  0.00    +0.015 C 
BRANCH  28  30
ATOM     29  C   LIG    1       24.405 -27.436   5.749  0.00  0.00    +0.004 C 
ATOM     30  C   LIG    1       24.027 -25.991   5.444  0.00  0.00    -0.002 C 
ENDBRANCH  28  30
ENDBRANCH  27  28
ENDBRANCH  26  27
BRANCH  26  31
ATOM     31  C   LIG    1       22.616 -21.543   5.665  0.00  0.00    +0.084 C 
BRANCH  31  32
ATOM     32  C   LIG    1       22.785 -20.021   5.736  0.00  0.00    +0.015 C 
BRANCH  32  33
ATOM     33  C   LIG    1       22.015 -19.249   4.660  0.00  0.00    -0.002 C 
ATOM     34  C   LIG    1       22.278 -17.760   4.632  0.00  0.00    +0.004 C 
ENDBRANCH  32  33
ENDBRANCH  31  32
ENDBRANCH  26  31
ENDBRANCH  25  26
ENDBRANCH  24  25
ENDBRANCH  21  24
ENDBRANCH   1  21
TORSDOF 12
ENDMDL
MODEL 2
REMARK VINA RESULT:      -7.4      8.278     11.931
REMARK  Name = *****
REMARK                            x       y       z     vdW  Elec       q    Type
REMARK                         _______ _______ _______ _____ _____    ______ ____
ROOT
ATOM      1  C   LIG    1       23.575 -29.584  11.848  0.00  0.00    -0.011 A 
ATOM      2  C   LIG    1       22.454 -28.992  12.521  0.00  0.00    -0.012 A 
ATOM      3  C   LIG    1       22.640 -27.744  13.153  0.00  0.00    -0.009 A 
ATOM      4  C   LIG    1       21.492 -27.080  13.679  0.00  0.00    +0.021 A 
ATOM      5  C   LIG    1       20.196 -27.599  13.628  0.00  0.00    +0.055 A 
ATOM      6  C   LIG    1       20.044 -28.891  13.149  0.00  0.00    +0.013 A 
ATOM      7  C   LIG    1       23.921 -27.103  13.222  0.00  0.00    -0.007 A 
ATOM      8  C   LIG    1       25.053 -27.784  12.698  0.00  0.00    +0.002 A 
ATOM      9  C   LIG    1       26.323 -27.161  12.787  0.00  0.00    +0.050 A 
ATOM     10  C   LIG    1       26.491 -25.875  13.306  0.00  0.00    +0.040 A 
ATOM     11  C   LIG    1       25.383 -25.205  13.788  0.00  0.00    +0.043 A 
ATOM     12 CL   LIG    1       25.539 -23.595  14.357  0.00  0.00    -0.084 Cl
ATOM     13 CL   LIG    1       27.764 -27.943  12.198  0.00  0.00    -0.083 Cl
ATOM     14  C   LIG    1       24.148 -25.826  13.777  0.00  0.00    +0.029 A 
ATOM     15  C   LIG    1       21.156 -29.585  12.606  0.00  0.00    +0.009 A 
ATOM     16  C   LIG    1       24.834 -29.010  12.076  0.00  0.00    +0.016 A 
ENDROOT
BRANCH   5  17
ATOM     17  C   LIG    1       19.039 -26.729  14.052  0.00  0.00    +0.417 C 
ATOM     18  F   LIG    1       17.886 -27.420  14.252  0.00  0.00    -0.166 F 
ATOM     19  F   LIG    1       18.755 -25.772  13.125  0.00  0.00    -0.166 F 
ATOM     20  F   LIG    1       19.272 -26.052  15.211  0.00  0.00    -0.166 F 
ENDBRANCH   5  17
BRANCH   1  21
ATOM     21  C   LIG    1       23.469 -30.751  10.882  0.00  0.00    +0.146 C 
BRANCH  21  22
ATOM     22  O   LIG    1       24.581 -31.620  11.076  0.00  0.00    -0.387 OA
ATOM     23  H   LIG    1       24.236 -32.430  11.492  0.00  0.00    +0.210 HD
ENDBRANCH  21  22
BRANCH  21  24
ATOM     24  C   LIG    1       23.273 -30.483   9.346  0.00  0.00    +0.051 C 
BRANCH  24  25
ATOM     25  C   LIG    1       24.379 -29.795   8.491  0.00  0.00    +0.087 C 
BRANCH  25  26
ATOM     26  N   LIG    1       24.113 -29.370   7.088  0.00  0.00    -0.302 NA
BRANCH  26  27
ATOM     27  C   LIG    1       24.970 -28.177   6.733  0.00  0.00    +0.084 C 
BRANCH  27  28
ATOM     28  C   LIG    1       24.419 -26.988   5.878  0.00  0.00    +0.015 C 
BRANCH  28  30
ATOM     29  C   LIG    1       23.640 -24.612   6.530  0.00  0.00    +0.004 C 
ATOM     30  C   LIG    1       24.806 -25.573   6.323  0.00  0.00    -0.002 C 
ENDBRANCH  28  30
ENDBRANCH  27  28
ENDBRANCH  26  27
BRANCH  26  31
ATOM     31  C   LIG    1       24.161 -30.392   6.033  0.00  0.00    +0.084 C 
BRANCH  31  32
ATOM     32  C   LIG    1       25.478 -30.688   5.305  0.00  0.00    +0.015 C 
BRANCH  32  33
ATOM     33  C   LIG    1       26.288 -31.839   5.910  0.00  0.00    -0.002 C 
ATOM     34  C   LIG    1       25.471 -32.869   6.659  0.00  0.00    +0.004 C 
ENDBRANCH  32  33
ENDBRANCH  31  32
ENDBRANCH  26  31
ENDBRANCH  25  26
ENDBRANCH  24  25
ENDBRANCH  21  24
ENDBRANCH   1  21
TORSDOF 12
ENDMDL
MODEL 3
REMARK VINA RESULT:      -7.3      1.265      1.999
REMARK  Name = *****
REMARK                            x       y       z     vdW  Elec       q    Type
REMARK                         _______ _______ _______ _____ _____    ______ ____
ROOT
ATOM      1  C   LIG    1       26.673 -21.523   6.629  0.00  0.00    -0.011 A 
ATOM      2  C   LIG    1       27.945 -20.930   6.928  0.00  0.00    -0.012 A 
ATOM      3  C   LIG    1       28.283 -19.720   6.287  0.00  0.00    -0.009 A 
ATOM      4  C   LIG    1       29.472 -19.049   6.704  0.00  0.00    +0.021 A 
ATOM      5  C   LIG    1       30.334 -19.527   7.693  0.00  0.00    +0.055 A 
ATOM      6  C   LIG    1       30.081 -20.790   8.206  0.00  0.00    +0.013 A 
ATOM      7  C   LIG    1       27.446 -19.121   5.289  0.00  0.00    -0.007 A 
ATOM      8  C   LIG    1       26.271 -19.809   4.883  0.00  0.00    +0.002 A 
ATOM      9  C   LIG    1       25.455 -19.228   3.880  0.00  0.00    +0.050 A 
ATOM     10  C   LIG    1       25.726 -17.974   3.329  0.00  0.00    +0.040 A 
ATOM     11  C   LIG    1       26.854 -17.295   3.748  0.00  0.00    +0.043 A 
ATOM     12 CL   LIG    1       27.174 -15.719   3.152  0.00  0.00    -0.084 Cl
ATOM     13 CL   LIG    1       24.015 -20.023   3.305  0.00  0.00    -0.083 Cl
ATOM     14  C   LIG    1       27.701 -17.878   4.671  0.00  0.00    +0.029 A 
ATOM     15  C   LIG    1       28.906 -21.489   7.828  0.00  0.00    +0.009 A 
ATOM     16  C   LIG    1       25.963 -20.997   5.540  0.00  0.00    +0.016 A 
ENDROOT
BRANCH   5  17
ATOM     17  C   LIG    1       31.458 -18.645   8.177  0.00  0.00    +0.417 C 
ATOM     18  F   LIG    1       32.462 -18.498   7.273  0.00  0.00    -0.166 F 
ATOM     19  F   LIG    1       32.034 -19.131   9.312  0.00  0.00    -0.166 F 
ATOM     20  F   LIG    1       31.053 -17.382   8.490  0.00  0.00    -0.166 F 
ENDBRANCH   5  17
BRANCH   1  21
ATOM     21  C   LIG    1       26.040 -22.639   7.442  0.00  0.00    +0.146 C 
BRANCH  21  22
ATOM     22  O   LIG    1       26.338 -22.440   8.820  0.00  0.00    -0.387 OA
ATOM     23  H   LIG    1       26.605 -23.306   9.178  0.00  0.00    +0.210 HD
ENDBRANCH  21  22
BRANCH  21  24
ATOM     24  C   LIG    1       26.308 -24.139   7.057  0.00  0.00    +0.051 C 
BRANCH  24  25
ATOM     25  C   LIG    1       25.703 -24.770   5.767  0.00  0.00    +0.087 C 
BRANCH  25  26
ATOM     26  N   LIG    1       24.257 -25.124   5.689  0.00  0.00    -0.302 NA
BRANCH  26  27
ATOM     27  C   LIG    1       24.089 -26.625   5.671  0.00  0.00    +0.084 C 
BRANCH  27  28
ATOM     28  C   LIG    1       24.951 -27.565   6.578  0.00  0.00    +0.015 C 
BRANCH  28  30
ATOM     29  C   LIG    1       24.457 -29.623   8.060  0.00  0.00    +0.004 C 
ATOM     30  C   LIG    1       24.530 -29.037   6.654  0.00  0.00    -0.002 C 
ENDBRANCH  28  30
ENDBRANCH  27  28
ENDBRANCH  26  27
BRANCH  26  31
ATOM     31  C   LIG    1       23.337 -24.496   6.647  0.00  0.00    +0.084 C 
BRANCH  31  32
ATOM     32  C   LIG    1       22.685 -23.147   6.319  0.00  0.00    +0.015 C 
BRANCH  32  33
ATOM     33  C   LIG    1       22.958 -22.047   7.349  0.00  0.00    -0.002 C 
ATOM     34  C   LIG    1       23.011 -20.644   6.786  0.00  0.00    +0.004 C 
ENDBRANCH  32  33
ENDBRANCH  31  32
ENDBRANCH  26  31
ENDBRANCH  25  26
ENDBRANCH  24  25
ENDBRANCH  21  24
ENDBRANCH   1  21
TORSDOF 12
ENDMDL
MODEL 4
REMARK VINA RESULT:      -7.2      7.111     11.034
REMARK  Name = *****
REMARK                            x       y       z     vdW  Elec       q    Type
REMARK                         _______ _______ _______ _____ _____    ______ ____
ROOT
ATOM      1  C   LIG    1       25.956 -27.893   7.345  0.00  0.00    -0.011 A 
ATOM      2  C   LIG    1       25.598 -29.199   6.870  0.00  0.00    -0.012 A 
ATOM      3  C   LIG    1       25.381 -30.217   7.822  0.00  0.00    -0.009 A 
ATOM      4  C   LIG    1       24.868 -31.468   7.362  0.00  0.00    +0.021 A 
ATOM      5  C   LIG    1       24.590 -31.755   6.024  0.00  0.00    +0.055 A 
ATOM      6  C   LIG    1       24.954 -30.808   5.078  0.00  0.00    +0.013 A 
ATOM      7  C   LIG    1       25.594 -30.014   9.225  0.00  0.00    -0.007 A 
ATOM      8  C   LIG    1       26.111 -28.764   9.661  0.00  0.00    +0.002 A 
ATOM      9  C   LIG    1       26.343 -28.571  11.047  0.00  0.00    +0.050 A 
ATOM     10  C   LIG    1       26.017 -29.535  12.002  0.00  0.00    +0.040 A 
ATOM     11  C   LIG    1       25.487 -30.738  11.576  0.00  0.00    +0.043 A 
ATOM     12 CL   LIG    1       25.001 -31.914  12.726  0.00  0.00    -0.084 Cl
ATOM     13 CL   LIG    1       27.005 -27.079  11.659  0.00  0.00    -0.083 Cl
ATOM     14  C   LIG    1       25.322 -30.973  10.224  0.00  0.00    +0.029 A 
ATOM     15  C   LIG    1       25.457 -29.547   5.490  0.00  0.00    +0.009 A 
ATOM     16  C   LIG    1       26.308 -27.779   8.698  0.00  0.00    +0.016 A 
ENDROOT
BRANCH   5  17
ATOM     17  C   LIG    1       23.883 -33.041   5.680  0.00  0.00    +0.417 C 
ATOM     18  F   LIG    1       24.573 -33.825   4.810  0.00  0.00    -0.166 F 
ATOM     19  F   LIG    1       22.667 -32.816   5.109  0.00  0.00    -0.166 F 
ATOM     20  F   LIG    1       23.633 -33.824   6.767  0.00  0.00    -0.166 F 
ENDBRANCH   5  17
BRANCH   1  21
ATOM     21  C   LIG    1       25.930 -26.639   6.491  0.00  0.00    +0.146 C 
BRANCH  21  22
ATOM     22  O   LIG    1       27.095 -26.606   5.672  0.00  0.00    -0.387 OA
ATOM     23  H   LIG    1       27.695 -27.296   6.009  0.00  0.00    +0.210 HD
ENDBRANCH  21  22
BRANCH  21  24
ATOM     24  C   LIG    1       25.722 -25.234   7.164  0.00  0.00    +0.051 C 
BRANCH  24  25
ATOM     25  C   LIG    1       25.449 -23.956   6.315  0.00  0.00    +0.087 C 
BRANCH  25  26
ATOM     26  N   LIG    1       24.830 -22.745   6.924  0.00  0.00    -0.302 NA
BRANCH  26  27
ATOM     27  C   LIG    1       25.637 -22.292   8.117  0.00  0.00    +0.084 C 
BRANCH  27  28
ATOM     28  C   LIG    1       25.970 -20.783   8.366  0.00  0.00    +0.015 C 
BRANCH  28  30
ATOM     29  C   LIG    1       28.256 -21.353   7.304  0.00  0.00    +0.004 C 
ATOM     30  C   LIG    1       27.337 -20.283   7.883  0.00  0.00    -0.002 C 
ENDBRANCH  28  30
ENDBRANCH  27  28
ENDBRANCH  26  27
BRANCH  26  31
ATOM     31  C   LIG    1       24.502 -21.615   6.043  0.00  0.00    +0.084 C 
BRANCH  31  32
ATOM     32  C   LIG    1       23.040 -21.304   5.701  0.00  0.00    +0.015 C 
BRANCH  32  33
ATOM     33  C   LIG    1       22.701 -19.810   5.683  0.00  0.00    -0.002 C 
ATOM     34  C   LIG    1       22.805 -19.149   4.326  0.00  0.00    +0.004 C 
ENDBRANCH  32  33
ENDBRANCH  31  32
ENDBRANCH  26  31
ENDBRANCH  25  26
ENDBRANCH  24  25
ENDBRANCH  21  24
ENDBRANCH   1  21
TORSDOF 12
ENDMDL
MODEL 5
REMARK VINA RESULT:      -7.2      8.206     11.586
REMARK  Name = *****
REMARK                            x       y       z     vdW  Elec       q    Type
REMARK                         _______ _______ _______ _____ _____    ______ ____
ROOT
ATOM      1  C   LIG    1       23.626 -29.496  11.779  0.00  0.00    -0.011 A 
ATOM      2  C   LIG    1       22.495 -28.927  12.455  0.00  0.00    -0.012 A 
ATOM      3  C   LIG    1       22.673 -27.705  13.137  0.00  0.00    -0.009 A 
ATOM      4  C   LIG    1       21.518 -27.059  13.670  0.00  0.00    +0.021 A 
ATOM      5  C   LIG    1       20.222 -27.572  13.578  0.00  0.00    +0.055 A 
ATOM      6  C   LIG    1       20.075 -28.845  13.047  0.00  0.00    +0.013 A 
ATOM      7  C   LIG    1       23.954 -27.071  13.253  0.00  0.00    -0.007 A 
ATOM      8  C   LIG    1       25.093 -27.734  12.721  0.00  0.00    +0.002 A 
ATOM      9  C   LIG    1       26.362 -27.117  12.856  0.00  0.00    +0.050 A 
ATOM     10  C   LIG    1       26.524 -25.853  13.426  0.00  0.00    +0.040 A 
ATOM     11  C   LIG    1       25.410 -25.199  13.915  0.00  0.00    +0.043 A 
ATOM     12 CL   LIG    1       25.559 -23.612  14.548  0.00  0.00    -0.084 Cl
ATOM     13 CL   LIG    1       27.812 -27.880  12.260  0.00  0.00    -0.083 Cl
ATOM     14  C   LIG    1       24.174 -25.816  13.860  0.00  0.00    +0.029 A 
ATOM     15  C   LIG    1       21.194 -29.520  12.496  0.00  0.00    +0.009 A 
ATOM     16  C   LIG    1       24.882 -28.934  12.049  0.00  0.00    +0.016 A 
ENDROOT
BRANCH   5  17
ATOM     17  C   LIG    1       19.060 -26.717  14.015  0.00  0.00    +0.417 C 
ATOM     18  F   LIG    1       18.718 -25.761  13.110  0.00  0.00    -0.166 F 
ATOM     19  F   LIG    1       19.319 -26.063  15.181  0.00  0.00    -0.166 F 
ATOM     20  F   LIG    1       17.923 -27.432  14.246  0.00  0.00    -0.166 F 
ENDBRANCH   5  17
BRANCH   1  21
ATOM     21  C   LIG    1       23.534 -30.624  10.767  0.00  0.00    +0.146 C 
BRANCH  21  22
ATOM     22  O   LIG    1       23.654 -31.871  11.445  0.00  0.00    -0.387 OA
ATOM     23  H   LIG    1       24.565 -31.921  11.785  0.00  0.00    +0.210 HD
ENDBRANCH  21  22
BRANCH  21  24
ATOM     24  C   LIG    1       24.467 -30.623   9.502  0.00  0.00    +0.051 C 
BRANCH  24  25
ATOM     25  C   LIG    1       24.022 -29.963   8.162  0.00  0.00    +0.087 C 
BRANCH  25  26
ATOM     26  N   LIG    1       25.025 -29.474   7.175  0.00  0.00    -0.302 NA
BRANCH  26  27
ATOM     27  C   LIG    1       24.816 -30.150   5.841  0.00  0.00    +0.084 C 
BRANCH  27  28
ATOM     28  C   LIG    1       25.796 -31.248   5.307  0.00  0.00    +0.015 C 
BRANCH  28  30
ATOM     29  C   LIG    1       27.413 -32.681   6.724  0.00  0.00    +0.004 C 
ATOM     30  C   LIG    1       25.999 -32.487   6.188  0.00  0.00    -0.002 C 
ENDBRANCH  28  30
ENDBRANCH  27  28
ENDBRANCH  26  27
BRANCH  26  31
ATOM     31  C   LIG    1       25.191 -28.022   7.017  0.00  0.00    +0.084 C 
BRANCH  31  32
ATOM     32  C   LIG    1       24.416 -27.272   5.926  0.00  0.00    +0.015 C 
BRANCH  32  33
ATOM     33  C   LIG    1       24.287 -25.765   6.167  0.00  0.00    -0.002 C 
ATOM     34  C   LIG    1       25.562 -25.077   6.602  0.00  0.00    +0.004 C 
ENDBRANCH  32  33
ENDBRANCH  31  32
ENDBRANCH  26  31
ENDBRANCH  25  26
ENDBRANCH  24  25
ENDBRANCH  21  24
ENDBRANCH   1  21
TORSDOF 12
ENDMDL
MODEL 6
REMARK VINA RESULT:      -7.1      0.438      3.277
REMARK  Name = *****
REMARK                            x       y       z     vdW  Elec       q    Type
REMARK                         _______ _______ _______ _____ _____    ______ ____
ROOT
ATOM      1  C   LIG    1       27.243 -21.361   6.542  0.00  0.00    -0.011 A 
ATOM      2  C   LIG    1       28.414 -20.652   6.971  0.00  0.00    -0.012 A 
ATOM      3  C   LIG    1       28.667 -19.381   6.411  0.00  0.00    -0.009 A 
ATOM      4  C   LIG    1       29.737 -18.609   6.954  0.00  0.00    +0.021 A 
ATOM      5  C   LIG    1       30.566 -19.041   7.992  0.00  0.00    +0.055 A 
ATOM      6  C   LIG    1       30.414 -20.349   8.429  0.00  0.00    +0.013 A 
ATOM      7  C   LIG    1       27.850 -18.826   5.372  0.00  0.00    -0.007 A 
ATOM      8  C   LIG    1       26.794 -19.614   4.841  0.00  0.00    +0.002 A 
ATOM      9  C   LIG    1       26.000 -19.073   3.798  0.00  0.00    +0.050 A 
ATOM     10  C   LIG    1       26.173 -17.772   3.324  0.00  0.00    +0.040 A 
ATOM     11  C   LIG    1       27.183 -16.999   3.864  0.00  0.00    +0.043 A 
ATOM     12 CL   LIG    1       27.372 -15.369   3.362  0.00  0.00    -0.084 Cl
ATOM     13 CL   LIG    1       24.707 -19.988   3.071  0.00  0.00    -0.083 Cl
ATOM     14  C   LIG    1       28.014 -17.534   4.830  0.00  0.00    +0.029 A 
ATOM     15  C   LIG    1       29.357 -21.149   7.925  0.00  0.00    +0.009 A 
ATOM     16  C   LIG    1       26.567 -20.860   5.420  0.00  0.00    +0.016 A 
ENDROOT
BRANCH   5  17
ATOM     17  C   LIG    1       31.543 -18.070   8.604  0.00  0.00    +0.417 C 
ATOM     18  F   LIG    1       31.040 -16.816   8.756  0.00  0.00    -0.166 F 
ATOM     19  F   LIG    1       32.672 -17.940   7.852  0.00  0.00    -0.166 F 
ATOM     20  F   LIG    1       31.974 -18.449   9.841  0.00  0.00    -0.166 F 
ENDBRANCH   5  17
BRANCH   1  21
ATOM     21  C   LIG    1       26.676 -22.577   7.252  0.00  0.00    +0.146 C 
BRANCH  21  22
ATOM     22  O   LIG    1       26.404 -23.594   6.292  0.00  0.00    -0.387 OA
ATOM     23  H   LIG    1       27.243 -23.780   5.834  0.00  0.00    +0.210 HD
ENDBRANCH  21  22
BRANCH  21  24
ATOM     24  C   LIG    1       25.444 -22.421   8.215  0.00  0.00    +0.051 C 
BRANCH  24  25
ATOM     25  C   LIG    1       24.112 -21.770   7.734  0.00  0.00    +0.087 C 
BRANCH  25  26
ATOM     26  N   LIG    1       23.140 -22.532   6.899  0.00  0.00    -0.302 NA
BRANCH  26  27
ATOM     27  C   LIG    1       23.138 -22.000   5.486  0.00  0.00    +0.084 C 
BRANCH  27  28
ATOM     28  C   LIG    1       22.160 -20.867   5.030  0.00  0.00    +0.015 C 
BRANCH  28  30
ATOM     29  C   LIG    1       22.098 -18.347   4.457  0.00  0.00    +0.004 C 
ATOM     30  C   LIG    1       22.514 -19.433   5.444  0.00  0.00    -0.002 C 
ENDBRANCH  28  30
ENDBRANCH  27  28
ENDBRANCH  26  27
BRANCH  26  31
ATOM     31  C   LIG    1       23.213 -24.000   6.916  0.00  0.00    +0.084 C 
BRANCH  31  32
ATOM     32  C   LIG    1       23.823 -24.755   5.728  0.00  0.00    +0.015 C 
BRANCH  32  33
ATOM     33  C   LIG    1       24.212 -26.204   6.035  0.00  0.00    -0.002 C 
ATOM     34  C   LIG    1       25.356 -26.746   5.207  0.00  0.00    +0.004 C 
ENDBRANCH  32  33
ENDBRANCH  31  32
ENDBRANCH  26  31
ENDBRANCH  25  26
ENDBRANCH  24  25
ENDBRANCH  21  24
ENDBRANCH   1  21
TORSDOF 12
ENDMDL
MODEL 7
REMARK VINA RESULT:      -7.0      4.124      6.777
REMARK  Name = *****
REMARK                            x       y       z     vdW  Elec       q    Type
REMARK                         _______ _______ _______ _____ _____    ______ ____
ROOT
ATOM      1  C   LIG    1       25.506 -22.963   7.007  0.00  0.00    -0.011 A 
ATOM      2  C   LIG    1       24.640 -21.956   6.465  0.00  0.00    -0.012 A 
ATOM      3  C   LIG    1       25.218 -20.747   6.021  0.00  0.00    -0.009 A 
ATOM      4  C   LIG    1       24.383 -19.815   5.335  0.00  0.00    +0.021 A 
ATOM      5  C   LIG    1       23.021 -20.014   5.095  0.00  0.00    +0.055 A 
ATOM      6  C   LIG    1       22.427 -21.127   5.669  0.00  0.00    +0.013 A 
ATOM      7  C   LIG    1       26.614 -20.462   6.180  0.00  0.00    -0.007 A 
ATOM      8  C   LIG    1       27.427 -21.400   6.872  0.00  0.00    +0.002 A 
ATOM      9  C   LIG    1       28.802 -21.108   7.049  0.00  0.00    +0.050 A 
ATOM     10  C   LIG    1       29.401 -19.968   6.508  0.00  0.00    +0.040 A 
ATOM     11  C   LIG    1       28.613 -19.073   5.811  0.00  0.00    +0.043 A 
ATOM     12 CL   LIG    1       29.328 -17.704   5.065  0.00  0.00    -0.084 Cl
ATOM     13 CL   LIG    1       29.859 -22.191   7.913  0.00  0.00    -0.083 Cl
ATOM     14  C   LIG    1       27.255 -19.304   5.691  0.00  0.00    +0.029 A 
ATOM     15  C   LIG    1       23.220 -22.086   6.351  0.00  0.00    +0.009 A 
ATOM     16  C   LIG    1       26.827 -22.585   7.290  0.00  0.00    +0.016 A 
ENDROOT
BRANCH   5  17
ATOM     17  C   LIG    1       22.284 -19.047   4.203  0.00  0.00    +0.417 C 
ATOM     18  F   LIG    1       22.903 -18.826   3.013  0.00  0.00    -0.166 F 
ATOM     19  F   LIG    1       22.135 -17.826   4.789  0.00  0.00    -0.166 F 
ATOM     20  F   LIG    1       21.021 -19.456   3.895  0.00  0.00    -0.166 F 
ENDBRANCH   5  17
BRANCH   1  21
ATOM     21  C   LIG    1       25.094 -24.404   7.244  0.00  0.00    +0.146 C 
BRANCH  21  22
ATOM     22  O   LIG    1       26.262 -25.210   7.374  0.00  0.00    -0.387 OA
ATOM     23  H   LIG    1       26.077 -25.861   8.073  0.00  0.00    +0.210 HD
ENDBRANCH  21  22
BRANCH  21  24
ATOM     24  C   LIG    1       24.081 -25.102   6.266  0.00  0.00    +0.051 C 
BRANCH  24  25
ATOM     25  C   LIG    1       24.408 -26.470   5.594  0.00  0.00    +0.087 C 
BRANCH  25  26
ATOM     26  N   LIG    1       24.389 -27.737   6.378  0.00  0.00    -0.302 NA
BRANCH  26  27
ATOM     27  C   LIG    1       24.073 -28.904   5.474  0.00  0.00    +0.084 C 
BRANCH  27  28
ATOM     28  C   LIG    1       25.158 -29.960   5.077  0.00  0.00    +0.015 C 
BRANCH  28  30
ATOM     29  C   LIG    1       26.318 -32.002   6.156  0.00  0.00    +0.004 C 
ATOM     30  C   LIG    1       25.018 -31.363   5.679  0.00  0.00    -0.002 C 
ENDBRANCH  28  30
ENDBRANCH  27  28
ENDBRANCH  26  27
BRANCH  26  31
ATOM     31  C   LIG    1       25.536 -28.031   7.248  0.00  0.00    +0.084 C 
BRANCH  31  32
ATOM     32  C   LIG    1       25.368 -28.958   8.459  0.00  0.00    +0.015 C 
BRANCH  32  33
ATOM     33  C   LIG    1       26.622 -29.093   9.328  0.00  0.00    -0.002 C 
ATOM     34  C   LIG    1       26.654 -28.195  10.545  0.00  0.00    +0.004 C 
ENDBRANCH  32  33
ENDBRANCH  31  32
ENDBRANCH  26  31
ENDBRANCH  25  26
ENDBRANCH  24  25
ENDBRANCH  21  24
ENDBRANCH   1  21
TORSDOF 12
ENDMDL
MODEL 8
REMARK VINA RESULT:      -6.9      2.094      4.295
REMARK  Name = *****
REMARK                            x       y       z     vdW  Elec       q    Type
REMARK                         _______ _______ _______ _____ _____    ______ ____
ROOT
ATOM      1  C   LIG    1       26.312 -21.618   6.540  0.00  0.00    -0.011 A 
ATOM      2  C   LIG    1       27.612 -21.083   6.829  0.00  0.00    -0.012 A 
ATOM      3  C   LIG    1       27.996 -19.885   6.191  0.00  0.00    -0.009 A 
ATOM      4  C   LIG    1       29.216 -19.267   6.599  0.00  0.00    +0.021 A 
ATOM      5  C   LIG    1       30.067 -19.788   7.577  0.00  0.00    +0.055 A 
ATOM      6  C   LIG    1       29.764 -21.042   8.087  0.00  0.00    +0.013 A 
ATOM      7  C   LIG    1       27.176 -19.245   5.204  0.00  0.00    -0.007 A 
ATOM      8  C   LIG    1       25.968 -19.880   4.807  0.00  0.00    +0.002 A 
ATOM      9  C   LIG    1       25.168 -19.258   3.814  0.00  0.00    +0.050 A 
ATOM     10  C   LIG    1       25.487 -18.014   3.267  0.00  0.00    +0.040 A 
ATOM     11  C   LIG    1       26.648 -17.387   3.678  0.00  0.00    +0.043 A 
ATOM     12 CL   LIG    1       27.029 -15.823   3.086  0.00  0.00    -0.084 Cl
ATOM     13 CL   LIG    1       23.690 -19.988   3.249  0.00  0.00    -0.083 Cl
ATOM     14  C   LIG    1       27.478 -18.011   4.590  0.00  0.00    +0.029 A 
ATOM     15  C   LIG    1       28.557 -21.687   7.717  0.00  0.00    +0.009 A 
ATOM     16  C   LIG    1       25.615 -21.057   5.461  0.00  0.00    +0.016 A 
ENDROOT
BRANCH   5  17
ATOM     17  C   LIG    1       31.232 -18.958   8.055  0.00  0.00    +0.417 C 
ATOM     18  F   LIG    1       32.205 -18.799   7.119  0.00  0.00    -0.166 F 
ATOM     19  F   LIG    1       31.837 -19.507   9.144  0.00  0.00    -0.166 F 
ATOM     20  F   LIG    1       30.874 -17.699   8.436  0.00  0.00    -0.166 F 
ENDBRANCH   5  17
BRANCH   1  21
ATOM     21  C   LIG    1       25.640 -22.710   7.353  0.00  0.00    +0.146 C 
BRANCH  21  22
ATOM     22  O   LIG    1       25.752 -22.398   8.738  0.00  0.00    -0.387 OA
ATOM     23  H   LIG    1       26.561 -22.833   9.060  0.00  0.00    +0.210 HD
ENDBRANCH  21  22
BRANCH  21  24
ATOM     24  C   LIG    1       26.030 -24.215   7.121  0.00  0.00    +0.051 C 
BRANCH  24  25
ATOM     25  C   LIG    1       25.005 -25.244   6.556  0.00  0.00    +0.087 C 
BRANCH  25  26
ATOM     26  N   LIG    1       25.403 -26.654   6.281  0.00  0.00    -0.302 NA
BRANCH  26  27
ATOM     27  C   LIG    1       26.309 -27.163   7.376  0.00  0.00    +0.084 C 
BRANCH  27  28
ATOM     28  C   LIG    1       25.813 -28.186   8.452  0.00  0.00    +0.015 C 
BRANCH  28  30
ATOM     29  C   LIG    1       26.751 -28.100  10.859  0.00  0.00    +0.004 C 
ATOM     30  C   LIG    1       26.852 -28.696   9.459  0.00  0.00    -0.002 C 
ENDBRANCH  28  30
ENDBRANCH  27  28
ENDBRANCH  26  27
BRANCH  26  31
ATOM     31  C   LIG    1       24.344 -27.625   5.971  0.00  0.00    +0.084 C 
BRANCH  31  32
ATOM     32  C   LIG    1       24.634 -28.810   5.041  0.00  0.00    +0.015 C 
BRANCH  32  33
ATOM     33  C   LIG    1       24.656 -30.172   5.743  0.00  0.00    -0.002 C 
ATOM     34  C   LIG    1       25.741 -31.115   5.272  0.00  0.00    +0.004 C 
ENDBRANCH  32  33
ENDBRANCH  31  32
ENDBRANCH  26  31
ENDBRANCH  25  26
ENDBRANCH  24  25
ENDBRANCH  21  24
ENDBRANCH   1  21
TORSDOF 12
ENDMDL
MODEL 9
REMARK VINA RESULT:      -6.9      4.091      6.967
REMARK  Name = *****
REMARK                            x       y       z     vdW  Elec       q    Type
REMARK                         _______ _______ _______ _____ _____    ______ ____
ROOT
ATOM      1  C   LIG    1       25.675 -23.172   6.997  0.00  0.00    -0.011 A 
ATOM      2  C   LIG    1       24.781 -22.166   6.499  0.00  0.00    -0.012 A 
ATOM      3  C   LIG    1       25.326 -20.925   6.108  0.00  0.00    -0.009 A 
ATOM      4  C   LIG    1       24.466 -19.986   5.464  0.00  0.00    +0.021 A 
ATOM      5  C   LIG    1       23.110 -20.210   5.216  0.00  0.00    +0.055 A 
ATOM      6  C   LIG    1       22.545 -21.363   5.743  0.00  0.00    +0.013 A 
ATOM      7  C   LIG    1       26.715 -20.610   6.278  0.00  0.00    -0.007 A 
ATOM      8  C   LIG    1       27.553 -21.555   6.928  0.00  0.00    +0.002 A 
ATOM      9  C   LIG    1       28.921 -21.235   7.116  0.00  0.00    +0.050 A 
ATOM     10  C   LIG    1       29.488 -20.057   6.624  0.00  0.00    +0.040 A 
ATOM     11  C   LIG    1       28.676 -19.154   5.967  0.00  0.00    +0.043 A 
ATOM     12 CL   LIG    1       29.354 -17.736   5.280  0.00  0.00    -0.084 Cl
ATOM     13 CL   LIG    1       30.008 -22.326   7.932  0.00  0.00    -0.083 Cl
ATOM     14  C   LIG    1       27.324 -19.415   5.839  0.00  0.00    +0.029 A 
ATOM     15  C   LIG    1       23.365 -22.328   6.381  0.00  0.00    +0.009 A 
ATOM     16  C   LIG    1       26.986 -22.772   7.295  0.00  0.00    +0.016 A 
ENDROOT
BRANCH   5  17
ATOM     17  C   LIG    1       22.345 -19.225   4.368  0.00  0.00    +0.417 C 
ATOM     18  F   LIG    1       22.203 -18.004   4.948  0.00  0.00    -0.166 F 
ATOM     19  F   LIG    1       21.086 -19.664   4.088  0.00  0.00    -0.166 F 
ATOM     20  F   LIG    1       22.926 -18.995   3.156  0.00  0.00    -0.166 F 
ENDBRANCH   5  17
BRANCH   1  21
ATOM     21  C   LIG    1       25.301 -24.633   7.172  0.00  0.00    +0.146 C 
BRANCH  21  22
ATOM     22  O   LIG    1       26.448 -25.442   6.931  0.00  0.00    -0.387 OA
ATOM     23  H   LIG    1       26.228 -26.026   6.184  0.00  0.00    +0.210 HD
ENDBRANCH  21  22
BRANCH  21  24
ATOM     24  C   LIG    1       24.068 -25.226   6.398  0.00  0.00    +0.051 C 
BRANCH  24  25
ATOM     25  C   LIG    1       24.201 -26.497   5.505  0.00  0.00    +0.087 C 
BRANCH  25  26
ATOM     26  N   LIG    1       25.046 -27.649   5.929  0.00  0.00    -0.302 NA
BRANCH  26  27
ATOM     27  C   LIG    1       24.615 -28.138   7.291  0.00  0.00    +0.084 C 
BRANCH  27  28
ATOM     28  C   LIG    1       25.649 -28.616   8.364  0.00  0.00    +0.015 C 
BRANCH  28  30
ATOM     29  C   LIG    1       23.804 -30.270   9.096  0.00  0.00    +0.004 C 
ATOM     30  C   LIG    1       25.259 -29.831   9.215  0.00  0.00    -0.002 C 
ENDBRANCH  28  30
ENDBRANCH  27  28
ENDBRANCH  26  27
BRANCH  26  31
ATOM     31  C   LIG    1       25.215 -28.767   4.990  0.00  0.00    +0.084 C 
BRANCH  31  32
ATOM     32  C   LIG    1       24.807 -30.188   5.401  0.00  0.00    +0.015 C 
BRANCH  32  33
ATOM     33  C   LIG    1       25.929 -31.224   5.284  0.00  0.00    -0.002 C 
ATOM     34  C   LIG    1       25.999 -32.220   6.421  0.00  0.00    +0.004 C 
ENDBRANCH  32  33
ENDBRANCH  31  32
ENDBRANCH  26  31
ENDBRANCH  25  26
ENDBRANCH  24  25
ENDBRANCH  21  24
ENDBRANCH   1  21
TORSDOF 12
ENDMDL
