MODEL 1
REMARK VINA RESULT:      -6.3      0.000      0.000
REMARK  Name = *****
REMARK                            x       y       z     vdW  Elec       q    Type
REMARK                         _______ _______ _______ _____ _____    ______ ____
ROOT
ATOM      1  C   LIG    1       27.778 -20.632   7.747  0.00  0.00    +0.242 C 
ATOM      2  N   LIG    1       28.399 -19.745   6.888  0.00  0.00    -0.313 N 
ATOM      3  H   LIG    1       27.843 -18.973   6.535  0.00  0.00    +0.149 HD
ATOM      4  O   LIG    1       28.379 -21.527   8.335  0.00  0.00    -0.273 OA
ENDROOT
BRANCH   1   5
ATOM      5  C   LIG    1       26.249 -20.411   7.909  0.00  0.00    +0.208 C 
BRANCH   5   7
ATOM      6  C   LIG    1       25.388 -20.377   5.496  0.00  0.00    +0.016 C 
ATOM      7  C   LIG    1       25.356 -21.126   6.844  0.00  0.00    +0.023 C 
ATOM      8  C   LIG    1       23.879 -21.111   7.316  0.00  0.00    +0.016 C 
BRANCH   7   9
ATOM      9  C   LIG    1       25.781 -22.595   6.628  0.00  0.00    +0.165 C 
BRANCH   9  10
ATOM     10  O   LIG    1       25.821 -23.294   7.873  0.00  0.00    -0.394 OA
ATOM     11  H   LIG    1       24.902 -23.322   8.210  0.00  0.00    +0.209 HD
ENDBRANCH   9  10
ENDBRANCH   7   9
ENDBRANCH   5   7
BRANCH   5  12
ATOM     12  O   LIG    1       25.888 -20.779   9.250  0.00  0.00    -0.382 OA
ATOM     13  H   LIG    1       24.966 -21.120   9.210  0.00  0.00    +0.210 HD
ENDBRANCH   5  12
ENDBRANCH   1   5
BRANCH   2  14
ATOM     14  C   LIG    1       29.813 -19.781   6.549  0.00  0.00    +0.115 C 
BRANCH  14  15
ATOM     15  C   LIG    1       30.646 -18.910   7.481  0.00  0.00    +0.139 C 
BRANCH  15  16
ATOM     16  C   LIG    1       31.420 -19.763   8.469  0.00  0.00    +0.306 C 
ATOM     17  O   LIG    1       32.126 -19.322   9.365  0.00  0.00    -0.251 OA
BRANCH  16  18
ATOM     18  O   LIG    1       31.296 -21.093   8.204  0.00  0.00    -0.481 OA
ATOM     19  H   LIG    1       31.500 -21.350   7.288  0.00  0.00    +0.295 HD
ENDBRANCH  16  18
ENDBRANCH  15  16
ENDBRANCH  14  15
ENDBRANCH   2  14
TORSDOF 9
ENDMDL
MODEL 2
REMARK VINA RESULT:      -6.3      1.065      1.575
REMARK  Name = *****
REMARK                            x       y       z     vdW  Elec       q    Type
REMARK                         _______ _______ _______ _____ _____    ______ ____
ROOT
ATOM      1  C   LIG    1       27.563 -20.752   7.852  0.00  0.00    +0.242 C 
ATOM      2  N   LIG    1       28.151 -19.921   6.917  0.00  0.00    -0.313 N 
ATOM      3  H   LIG    1       27.575 -19.185   6.522  0.00  0.00    +0.149 HD
ATOM      4  O   LIG    1       28.191 -21.594   8.489  0.00  0.00    -0.273 OA
ENDROOT
BRANCH   1   5
ATOM      5  C   LIG    1       26.035 -20.543   8.032  0.00  0.00    +0.208 C 
BRANCH   5   7
ATOM      6  C   LIG    1       23.728 -21.556   7.572  0.00  0.00    +0.016 C 
ATOM      7  C   LIG    1       25.134 -21.288   6.995  0.00  0.00    +0.023 C 
ATOM      8  C   LIG    1       25.748 -22.677   6.683  0.00  0.00    +0.016 C 
BRANCH   7   9
ATOM      9  C   LIG    1       25.007 -20.504   5.671  0.00  0.00    +0.165 C 
BRANCH   9  10
ATOM     10  O   LIG    1       26.067 -20.851   4.780  0.00  0.00    -0.394 OA
ATOM     11  H   LIG    1       26.471 -21.673   5.128  0.00  0.00    +0.209 HD
ENDBRANCH   9  10
ENDBRANCH   7   9
ENDBRANCH   5   7
BRANCH   5  12
ATOM     12  O   LIG    1       25.697 -20.888   9.386  0.00  0.00    -0.382 OA
ATOM     13  H   LIG    1       26.314 -20.387   9.966  0.00  0.00    +0.210 HD
ENDBRANCH   5  12
ENDBRANCH   1   5
BRANCH   2  14
ATOM     14  C   LIG    1       29.557 -19.960   6.550  0.00  0.00    +0.115 C 
BRANCH  14  15
ATOM     15  C   LIG    1       30.412 -19.094   7.466  0.00  0.00    +0.139 C 
BRANCH  15  16
ATOM     16  C   LIG    1       31.241 -19.952   8.403  0.00  0.00    +0.306 C 
ATOM     17  O   LIG    1       32.078 -19.520   9.184  0.00  0.00    -0.251 OA
BRANCH  16  18
ATOM     18  O   LIG    1       30.999 -21.280   8.229  0.00  0.00    -0.481 OA
ATOM     19  H   LIG    1       30.415 -21.498   7.482  0.00  0.00    +0.295 HD
ENDBRANCH  16  18
ENDBRANCH  15  16
ENDBRANCH  14  15
ENDBRANCH   2  14
TORSDOF 9
ENDMDL
MODEL 3
REMARK VINA RESULT:      -6.3      1.755      2.439
REMARK  Name = *****
REMARK                            x       y       z     vdW  Elec       q    Type
REMARK                         _______ _______ _______ _____ _____    ______ ____
ROOT
ATOM      1  C   LIG    1       26.142 -21.334   8.245  0.00  0.00    +0.242 C 
ATOM      2  N   LIG    1       27.180 -21.010   7.391  0.00  0.00    -0.313 N 
ATOM      3  H   LIG    1       27.208 -21.482   6.493  0.00  0.00    +0.149 HD
ATOM      4  O   LIG    1       25.933 -20.739   9.299  0.00  0.00    -0.273 OA
ENDROOT
BRANCH   1   5
ATOM      5  C   LIG    1       25.260 -22.519   7.768  0.00  0.00    +0.208 C 
BRANCH   5   7
ATOM      6  C   LIG    1       23.463 -20.802   7.144  0.00  0.00    +0.016 C 
ATOM      7  C   LIG    1       24.126 -22.142   6.761  0.00  0.00    +0.023 C 
ATOM      8  C   LIG    1       23.006 -23.214   6.822  0.00  0.00    +0.016 C 
BRANCH   7   9
ATOM      9  C   LIG    1       24.645 -22.065   5.309  0.00  0.00    +0.165 C 
BRANCH   9  10
ATOM     10  O   LIG    1       24.768 -23.373   4.751  0.00  0.00    -0.394 OA
ATOM     11  H   LIG    1       23.861 -23.678   4.543  0.00  0.00    +0.209 HD
ENDBRANCH   9  10
ENDBRANCH   7   9
ENDBRANCH   5   7
BRANCH   5  12
ATOM     12  O   LIG    1       26.130 -23.536   7.244  0.00  0.00    -0.382 OA
ATOM     13  H   LIG    1       27.009 -23.397   7.663  0.00  0.00    +0.210 HD
ENDBRANCH   5  12
ENDBRANCH   1   5
BRANCH   2  14
ATOM     14  C   LIG    1       28.159 -19.965   7.644  0.00  0.00    +0.115 C 
BRANCH  14  15
ATOM     15  C   LIG    1       29.588 -20.468   7.475  0.00  0.00    +0.139 C 
BRANCH  15  16
ATOM     16  C   LIG    1       30.481 -19.376   6.916  0.00  0.00    +0.306 C 
ATOM     17  O   LIG    1       30.087 -18.419   6.264  0.00  0.00    -0.251 OA
BRANCH  16  18
ATOM     18  O   LIG    1       31.799 -19.616   7.163  0.00  0.00    -0.481 OA
ATOM     19  H   LIG    1       32.406 -18.915   6.871  0.00  0.00    +0.295 HD
ENDBRANCH  16  18
ENDBRANCH  15  16
ENDBRANCH  14  15
ENDBRANCH   2  14
TORSDOF 9
ENDMDL
MODEL 4
REMARK VINA RESULT:      -6.2      4.747      7.054
REMARK  Name = *****
REMARK                            x       y       z     vdW  Elec       q    Type
REMARK                         _______ _______ _______ _____ _____    ______ ____
ROOT
ATOM      1  C   LIG    1       25.202 -23.812   5.726  0.00  0.00    +0.242 C 
ATOM      2  N   LIG    1       24.936 -24.819   4.817  0.00  0.00    -0.313 N 
ATOM      3  H   LIG    1       24.504 -24.551   3.939  0.00  0.00    +0.149 HD
ATOM      4  O   LIG    1       25.835 -23.995   6.762  0.00  0.00    -0.273 OA
ENDROOT
BRANCH   1   5
ATOM      5  C   LIG    1       24.630 -22.423   5.335  0.00  0.00    +0.208 C 
BRANCH   5   7
ATOM      6  C   LIG    1       22.648 -23.123   6.799  0.00  0.00    +0.016 C 
ATOM      7  C   LIG    1       23.423 -21.932   6.198  0.00  0.00    +0.023 C 
ATOM      8  C   LIG    1       22.419 -21.170   5.295  0.00  0.00    +0.016 C 
BRANCH   7   9
ATOM      9  C   LIG    1       23.873 -20.985   7.332  0.00  0.00    +0.165 C 
BRANCH   9  10
ATOM     10  O   LIG    1       24.740 -21.666   8.240  0.00  0.00    -0.394 OA
ATOM     11  H   LIG    1       24.671 -22.621   8.033  0.00  0.00    +0.209 HD
ENDBRANCH   9  10
ENDBRANCH   7   9
ENDBRANCH   5   7
BRANCH   5  12
ATOM     12  O   LIG    1       25.715 -21.479   5.340  0.00  0.00    -0.382 OA
ATOM     13  H   LIG    1       26.529 -21.987   5.123  0.00  0.00    +0.210 HD
ENDBRANCH   5  12
ENDBRANCH   1   5
BRANCH   2  14
ATOM     14  C   LIG    1       25.335 -26.207   4.987  0.00  0.00    +0.115 C 
BRANCH  14  15
ATOM     15  C   LIG    1       24.271 -27.024   5.708  0.00  0.00    +0.139 C 
BRANCH  15  16
ATOM     16  C   LIG    1       24.447 -28.505   5.432  0.00  0.00    +0.306 C 
ATOM     17  O   LIG    1       25.523 -29.055   5.246  0.00  0.00    -0.251 OA
BRANCH  16  18
ATOM     18  O   LIG    1       23.253 -29.155   5.343  0.00  0.00    -0.481 OA
ATOM     19  H   LIG    1       23.008 -29.442   4.447  0.00  0.00    +0.295 HD
ENDBRANCH  16  18
ENDBRANCH  15  16
ENDBRANCH  14  15
ENDBRANCH   2  14
TORSDOF 9
ENDMDL
MODEL 5
REMARK VINA RESULT:      -6.1      4.545      7.232
REMARK  Name = *****
REMARK                            x       y       z     vdW  Elec       q    Type
REMARK                         _______ _______ _______ _____ _____    ______ ____
ROOT
ATOM      1  C   LIG    1       24.544 -24.036   6.554  0.00  0.00    +0.242 C 
ATOM      2  N   LIG    1       24.040 -24.998   5.698  0.00  0.00    -0.313 N 
ATOM      3  H   LIG    1       23.173 -24.783   5.217  0.00  0.00    +0.149 HD
ATOM      4  O   LIG    1       25.645 -24.129   7.091  0.00  0.00    -0.273 OA
ENDROOT
BRANCH   1   5
ATOM      5  C   LIG    1       23.603 -22.825   6.790  0.00  0.00    +0.208 C 
BRANCH   5   7
ATOM      6  C   LIG    1       25.128 -20.837   7.325  0.00  0.00    +0.016 C 
ATOM      7  C   LIG    1       24.152 -21.447   6.297  0.00  0.00    +0.023 C 
ATOM      8  C   LIG    1       22.979 -20.442   6.161  0.00  0.00    +0.016 C 
BRANCH   7   9
ATOM      9  C   LIG    1       24.854 -21.563   4.926  0.00  0.00    +0.165 C 
BRANCH   9  10
ATOM     10  O   LIG    1       23.898 -21.809   3.894  0.00  0.00    -0.394 OA
ATOM     11  H   LIG    1       23.487 -22.676   4.091  0.00  0.00    +0.209 HD
ENDBRANCH   9  10
ENDBRANCH   7   9
ENDBRANCH   5   7
BRANCH   5  12
ATOM     12  O   LIG    1       22.327 -23.135   6.205  0.00  0.00    -0.382 OA
ATOM     13  H   LIG    1       21.922 -23.833   6.769  0.00  0.00    +0.210 HD
ENDBRANCH   5  12
ENDBRANCH   1   5
BRANCH   2  14
ATOM     14  C   LIG    1       24.722 -26.236   5.358  0.00  0.00    +0.115 C 
BRANCH  14  15
ATOM     15  C   LIG    1       24.302 -27.387   6.264  0.00  0.00    +0.139 C 
BRANCH  15  16
ATOM     16  C   LIG    1       24.420 -28.715   5.539  0.00  0.00    +0.306 C 
ATOM     17  O   LIG    1       25.472 -29.209   5.159  0.00  0.00    -0.251 OA
BRANCH  16  18
ATOM     18  O   LIG    1       23.203 -29.274   5.294  0.00  0.00    -0.481 OA
ATOM     19  H   LIG    1       22.447 -28.666   5.374  0.00  0.00    +0.295 HD
ENDBRANCH  16  18
ENDBRANCH  15  16
ENDBRANCH  14  15
ENDBRANCH   2  14
TORSDOF 9
ENDMDL
MODEL 6
REMARK VINA RESULT:      -6.1      2.057      2.657
REMARK  Name = *****
REMARK                            x       y       z     vdW  Elec       q    Type
REMARK                         _______ _______ _______ _____ _____    ______ ____
ROOT
ATOM      1  C   LIG    1       25.895 -20.629   7.963  0.00  0.00    +0.242 C 
ATOM      2  N   LIG    1       26.993 -20.301   7.190  0.00  0.00    -0.313 N 
ATOM      3  H   LIG    1       26.839 -20.173   6.195  0.00  0.00    +0.149 HD
ATOM      4  O   LIG    1       25.932 -20.685   9.189  0.00  0.00    -0.273 OA
ENDROOT
BRANCH   1   5
ATOM      5  C   LIG    1       24.603 -20.930   7.155  0.00  0.00    +0.208 C 
BRANCH   5   7
ATOM      6  C   LIG    1       23.102 -22.989   6.887  0.00  0.00    +0.016 C 
ATOM      7  C   LIG    1       24.492 -22.384   6.594  0.00  0.00    +0.023 C 
ATOM      8  C   LIG    1       25.522 -23.295   7.312  0.00  0.00    +0.016 C 
BRANCH   7   9
ATOM      9  C   LIG    1       24.768 -22.441   5.076  0.00  0.00    +0.165 C 
BRANCH   9  10
ATOM     10  O   LIG    1       25.402 -21.238   4.638  0.00  0.00    -0.394 OA
ATOM     11  H   LIG    1       25.803 -21.431   3.766  0.00  0.00    +0.209 HD
ENDBRANCH   9  10
ENDBRANCH   7   9
ENDBRANCH   5   7
BRANCH   5  12
ATOM     12  O   LIG    1       23.476 -20.581   7.976  0.00  0.00    -0.382 OA
ATOM     13  H   LIG    1       22.675 -20.908   7.508  0.00  0.00    +0.210 HD
ENDBRANCH   5  12
ENDBRANCH   1   5
BRANCH   2  14
ATOM     14  C   LIG    1       28.317 -20.019   7.719  0.00  0.00    +0.115 C 
BRANCH  14  15
ATOM     15  C   LIG    1       29.399 -20.153   6.655  0.00  0.00    +0.139 C 
BRANCH  15  16
ATOM     16  C   LIG    1       30.153 -18.848   6.483  0.00  0.00    +0.306 C 
ATOM     17  O   LIG    1       30.997 -18.425   7.261  0.00  0.00    -0.251 OA
BRANCH  16  18
ATOM     18  O   LIG    1       29.734 -18.154   5.389  0.00  0.00    -0.481 OA
ATOM     19  H   LIG    1       30.198 -17.314   5.233  0.00  0.00    +0.295 HD
ENDBRANCH  16  18
ENDBRANCH  15  16
ENDBRANCH  14  15
ENDBRANCH   2  14
TORSDOF 9
ENDMDL
MODEL 7
REMARK VINA RESULT:      -6.1      2.421      3.130
REMARK  Name = *****
REMARK                            x       y       z     vdW  Elec       q    Type
REMARK                         _______ _______ _______ _____ _____    ______ ____
ROOT
ATOM      1  C   LIG    1       25.684 -20.956   5.368  0.00  0.00    +0.242 C 
ATOM      2  N   LIG    1       26.872 -21.038   6.070  0.00  0.00    -0.313 N 
ATOM      3  H   LIG    1       27.057 -21.900   6.573  0.00  0.00    +0.149 HD
ATOM      4  O   LIG    1       25.410 -20.019   4.623  0.00  0.00    -0.273 OA
ENDROOT
BRANCH   1   5
ATOM      5  C   LIG    1       24.714 -22.146   5.600  0.00  0.00    +0.208 C 
BRANCH   5   7
ATOM      6  C   LIG    1       22.410 -21.076   5.271  0.00  0.00    +0.016 C 
ATOM      7  C   LIG    1       23.353 -21.775   6.272  0.00  0.00    +0.023 C 
ATOM      8  C   LIG    1       23.604 -20.759   7.417  0.00  0.00    +0.016 C 
BRANCH   7   9
ATOM      9  C   LIG    1       22.647 -23.013   6.868  0.00  0.00    +0.165 C 
BRANCH   9  10
ATOM     10  O   LIG    1       23.150 -24.210   6.273  0.00  0.00    -0.394 OA
ATOM     11  H   LIG    1       22.644 -24.348   5.446  0.00  0.00    +0.209 HD
ENDBRANCH   9  10
ENDBRANCH   7   9
ENDBRANCH   5   7
BRANCH   5  12
ATOM     12  O   LIG    1       24.528 -22.817   4.342  0.00  0.00    -0.382 OA
ATOM     13  H   LIG    1       25.276 -22.544   3.765  0.00  0.00    +0.210 HD
ENDBRANCH   5  12
ENDBRANCH   1   5
BRANCH   2  14
ATOM     14  C   LIG    1       27.915 -20.025   6.044  0.00  0.00    +0.115 C 
BRANCH  14  15
ATOM     15  C   LIG    1       29.163 -20.469   6.797  0.00  0.00    +0.139 C 
BRANCH  15  16
ATOM     16  C   LIG    1       30.268 -19.439   6.667  0.00  0.00    +0.306 C 
ATOM     17  O   LIG    1       30.132 -18.331   6.165  0.00  0.00    -0.251 OA
BRANCH  16  18
ATOM     18  O   LIG    1       31.465 -19.911   7.113  0.00  0.00    -0.481 OA
ATOM     19  H   LIG    1       31.720 -20.782   6.762  0.00  0.00    +0.295 HD
ENDBRANCH  16  18
ENDBRANCH  15  16
ENDBRANCH  14  15
ENDBRANCH   2  14
TORSDOF 9
ENDMDL
MODEL 8
REMARK VINA RESULT:      -6.0      2.687      3.418
REMARK  Name = *****
REMARK                            x       y       z     vdW  Elec       q    Type
REMARK                         _______ _______ _______ _____ _____    ______ ____
ROOT
ATOM      1  C   LIG    1       25.775 -20.797   5.325  0.00  0.00    +0.242 C 
ATOM      2  N   LIG    1       26.991 -20.863   5.980  0.00  0.00    -0.313 N 
ATOM      3  H   LIG    1       27.204 -21.721   6.477  0.00  0.00    +0.149 HD
ATOM      4  O   LIG    1       25.461 -19.866   4.589  0.00  0.00    -0.273 OA
ENDROOT
BRANCH   1   5
ATOM      5  C   LIG    1       24.828 -21.997   5.599  0.00  0.00    +0.208 C 
BRANCH   5   7
ATOM      6  C   LIG    1       23.697 -20.697   7.494  0.00  0.00    +0.016 C 
ATOM      7  C   LIG    1       23.474 -21.633   6.288  0.00  0.00    +0.023 C 
ATOM      8  C   LIG    1       22.820 -22.921   6.852  0.00  0.00    +0.016 C 
BRANCH   7   9
ATOM      9  C   LIG    1       22.482 -20.977   5.303  0.00  0.00    +0.165 C 
BRANCH   9  10
ATOM     10  O   LIG    1       22.500 -19.556   5.448  0.00  0.00    -0.394 OA
ATOM     11  H   LIG    1       22.821 -19.368   6.353  0.00  0.00    +0.209 HD
ENDBRANCH   9  10
ENDBRANCH   7   9
ENDBRANCH   5   7
BRANCH   5  12
ATOM     12  O   LIG    1       24.631 -22.697   4.358  0.00  0.00    -0.382 OA
ATOM     13  H   LIG    1       25.526 -22.889   3.999  0.00  0.00    +0.210 HD
ENDBRANCH   5  12
ENDBRANCH   1   5
BRANCH   2  14
ATOM     14  C   LIG    1       28.020 -19.839   5.909  0.00  0.00    +0.115 C 
BRANCH  14  15
ATOM     15  C   LIG    1       29.174 -20.122   6.863  0.00  0.00    +0.139 C 
BRANCH  15  16
ATOM     16  C   LIG    1       30.397 -19.307   6.487  0.00  0.00    +0.306 C 
ATOM     17  O   LIG    1       31.523 -19.498   6.926  0.00  0.00    -0.251 OA
BRANCH  16  18
ATOM     18  O   LIG    1       30.090 -18.279   5.648  0.00  0.00    -0.481 OA
ATOM     19  H   LIG    1       29.223 -18.348   5.214  0.00  0.00    +0.295 HD
ENDBRANCH  16  18
ENDBRANCH  15  16
ENDBRANCH  14  15
ENDBRANCH   2  14
TORSDOF 9
ENDMDL
MODEL 9
REMARK VINA RESULT:      -6.0      1.785      2.476
REMARK  Name = *****
REMARK                            x       y       z     vdW  Elec       q    Type
REMARK                         _______ _______ _______ _____ _____    ______ ____
ROOT
ATOM      1  C   LIG    1       25.917 -20.680   7.971  0.00  0.00    +0.242 C 
ATOM      2  N   LIG    1       27.015 -20.348   7.199  0.00  0.00    -0.313 N 
ATOM      3  H   LIG    1       26.858 -20.202   6.207  0.00  0.00    +0.149 HD
ATOM      4  O   LIG    1       25.959 -20.756   9.197  0.00  0.00    -0.273 OA
ENDROOT
BRANCH   1   5
ATOM      5  C   LIG    1       24.620 -20.958   7.164  0.00  0.00    +0.208 C 
BRANCH   5   7
ATOM      6  C   LIG    1       25.521 -23.354   7.262  0.00  0.00    +0.016 C 
ATOM      7  C   LIG    1       24.465 -22.420   6.634  0.00  0.00    +0.023 C 
ATOM      8  C   LIG    1       24.719 -22.443   5.105  0.00  0.00    +0.016 C 
BRANCH   7   9
ATOM      9  C   LIG    1       23.053 -22.984   6.902  0.00  0.00    +0.165 C 
BRANCH   9  10
ATOM     10  O   LIG    1       22.989 -24.364   6.539  0.00  0.00    -0.394 OA
ATOM     11  H   LIG    1       22.123 -24.698   6.851  0.00  0.00    +0.209 HD
ENDBRANCH   9  10
ENDBRANCH   7   9
ENDBRANCH   5   7
BRANCH   5  12
ATOM     12  O   LIG    1       23.501 -20.557   7.973  0.00  0.00    -0.382 OA
ATOM     13  H   LIG    1       23.499 -21.145   8.761  0.00  0.00    +0.210 HD
ENDBRANCH   5  12
ENDBRANCH   1   5
BRANCH   2  14
ATOM     14  C   LIG    1       28.343 -20.084   7.728  0.00  0.00    +0.115 C 
BRANCH  14  15
ATOM     15  C   LIG    1       29.430 -20.329   6.689  0.00  0.00    +0.139 C 
BRANCH  15  16
ATOM     16  C   LIG    1       30.625 -19.426   6.935  0.00  0.00    +0.306 C 
ATOM     17  O   LIG    1       31.735 -19.817   7.268  0.00  0.00    -0.251 OA
BRANCH  16  18
ATOM     18  O   LIG    1       30.305 -18.108   6.811  0.00  0.00    -0.481 OA
ATOM     19  H   LIG    1       29.442 -17.858   7.182  0.00  0.00    +0.295 HD
ENDBRANCH  16  18
ENDBRANCH  15  16
ENDBRANCH  14  15
ENDBRANCH   2  14
TORSDOF 9
ENDMDL
