MODEL 1
REMARK VINA RESULT:      -6.0      0.000      0.000
REMARK  Name = *****
REMARK                            x       y       z     vdW  Elec       q    Type
REMARK                         _______ _______ _______ _____ _____    ______ ____
ROOT
ATOM      1  C   LIG    1       24.683 -30.918   6.009  0.00  0.00    +0.132 C 
ATOM      2  C   LIG    1       24.958 -31.163   7.528  0.00  0.00    +0.011 C 
ATOM      3  C   LIG    1       24.103 -32.331   8.060  0.00  0.00    +0.015 C 
ATOM      4  C   LIG    1       24.524 -29.798   8.131  0.00  0.00    +0.002 C 
ATOM      5  C   LIG    1       25.025 -29.457   9.551  0.00  0.00    +0.001 C 
ATOM      6  C   LIG    1       26.513 -29.813   9.773  0.00  0.00    +0.023 C 
ATOM      7  C   LIG    1       26.841 -31.235   9.290  0.00  0.00    +0.009 C 
ATOM      8  C   LIG    1       26.949 -29.626  11.219  0.00  0.00    -0.041 A 
ATOM      9  C   LIG    1       26.019 -29.528  12.268  0.00  0.00    -0.041 A 
ATOM     10  C   LIG    1       26.480 -29.346  13.583  0.00  0.00    +0.049 A 
ATOM     11  C   LIG    1       27.843 -29.270  13.873  0.00  0.00    +0.120 A 
ATOM     12  C   LIG    1       28.764 -29.377  12.835  0.00  0.00    +0.046 A 
ATOM     13  C   LIG    1       24.534 -29.535  12.017  0.00  0.00    +0.036 C 
ATOM     14  C   LIG    1       28.319 -29.550  11.520  0.00  0.00    +0.008 A 
ATOM     15  C   LIG    1       24.156 -30.094  10.648  0.00  0.00    +0.009 C 
ATOM     16  C   LIG    1       25.007 -28.757   7.096  0.00  0.00    +0.008 C 
ATOM     17  C   LIG    1       26.456 -31.438   7.825  0.00  0.00    +0.011 C 
ATOM     18  C   LIG    1       25.174 -29.489   5.762  0.00  0.00    +0.049 C 
ENDROOT
BRANCH   1  20
ATOM     19  C   LIG    1       25.853 -32.667   4.360  0.00  0.00    +0.007 C 
ATOM     20  C   LIG    1       25.326 -31.886   5.105  0.00  0.00    -0.070 C 
ENDBRANCH   1  20
BRANCH   1  21
ATOM     21  O   LIG    1       23.275 -30.920   5.749  0.00  0.00    -0.376 OA
ATOM     22  H   LIG    1       23.008 -29.994   5.621  0.00  0.00    +0.211 HD
ENDBRANCH   1  21
BRANCH  11  23
ATOM     23  O   LIG    1       28.138 -29.088  15.196  0.00  0.00    -0.495 OA
ATOM     24  C   LIG    1       29.195 -28.186  15.500  0.00  0.00    +0.277 C 
ENDBRANCH  11  23
TORSDOF 3
ENDMDL
MODEL 2
REMARK VINA RESULT:      -6.0      4.762      7.186
REMARK  Name = *****
REMARK                            x       y       z     vdW  Elec       q    Type
REMARK                         _______ _______ _______ _____ _____    ______ ____
ROOT
ATOM      1  C   LIG    1       25.616 -30.320  11.254  0.00  0.00    +0.132 C 
ATOM      2  C   LIG    1       24.568 -29.919  12.343  0.00  0.00    +0.011 C 
ATOM      3  C   LIG    1       24.924 -30.546  13.706  0.00  0.00    +0.015 C 
ATOM      4  C   LIG    1       23.270 -30.526  11.741  0.00  0.00    +0.002 C 
ATOM      5  C   LIG    1       21.923 -30.000  12.282  0.00  0.00    +0.001 C 
ATOM      6  C   LIG    1       21.894 -28.464  12.454  0.00  0.00    +0.023 C 
ATOM      7  C   LIG    1       23.140 -27.946  13.191  0.00  0.00    +0.009 C 
ATOM      8  C   LIG    1       20.625 -27.978  13.140  0.00  0.00    -0.041 A 
ATOM      9  C   LIG    1       19.794 -28.847  13.866  0.00  0.00    -0.041 A 
ATOM     10  C   LIG    1       18.630 -28.342  14.470  0.00  0.00    +0.049 A 
ATOM     11  C   LIG    1       18.285 -26.993  14.374  0.00  0.00    +0.120 A 
ATOM     12  C   LIG    1       19.114 -26.131  13.662  0.00  0.00    +0.046 A 
ATOM     13  C   LIG    1       20.072 -30.325  13.954  0.00  0.00    +0.036 C 
ATOM     14  C   LIG    1       20.272 -26.621  13.049  0.00  0.00    +0.008 A 
ATOM     15  C   LIG    1       21.508 -30.691  13.591  0.00  0.00    +0.009 C 
ATOM     16  C   LIG    1       23.405 -30.276  10.221  0.00  0.00    +0.008 C 
ATOM     17  C   LIG    1       24.430 -28.382  12.497  0.00  0.00    +0.011 C 
ATOM     18  C   LIG    1       24.894 -30.076   9.926  0.00  0.00    +0.049 C 
ENDROOT
BRANCH   1  20
ATOM     19  C   LIG    1       27.926 -28.982  11.395  0.00  0.00    +0.007 C 
ATOM     20  C   LIG    1       26.891 -29.588  11.330  0.00  0.00    -0.070 C 
ENDBRANCH   1  20
BRANCH   1  21
ATOM     21  O   LIG    1       25.894 -31.723  11.320  0.00  0.00    -0.376 OA
ATOM     22  H   LIG    1       26.459 -31.866  12.097  0.00  0.00    +0.211 HD
ENDBRANCH   1  21
BRANCH  11  23
ATOM     23  O   LIG    1       17.123 -26.651  15.010  0.00  0.00    -0.495 OA
ATOM     24  C   LIG    1       15.938 -26.649  14.223  0.00  0.00    +0.277 C 
ENDBRANCH  11  23
TORSDOF 3
ENDMDL
MODEL 3
REMARK VINA RESULT:      -5.9      1.381      1.555
REMARK  Name = *****
REMARK                            x       y       z     vdW  Elec       q    Type
REMARK                         _______ _______ _______ _____ _____    ______ ____
ROOT
ATOM      1  C   LIG    1       25.247 -31.953   5.661  0.00  0.00    +0.132 C 
ATOM      2  C   LIG    1       25.232 -31.841   7.220  0.00  0.00    +0.011 C 
ATOM      3  C   LIG    1       24.636 -33.113   7.856  0.00  0.00    +0.015 C 
ATOM      4  C   LIG    1       24.313 -30.603   7.419  0.00  0.00    +0.002 C 
ATOM      5  C   LIG    1       24.370 -29.890   8.787  0.00  0.00    +0.001 C 
ATOM      6  C   LIG    1       25.810 -29.715   9.323  0.00  0.00    +0.023 C 
ATOM      7  C   LIG    1       26.617 -31.020   9.234  0.00  0.00    +0.009 C 
ATOM      8  C   LIG    1       25.841 -29.161  10.741  0.00  0.00    -0.041 A 
ATOM      9  C   LIG    1       24.710 -29.189  11.574  0.00  0.00    -0.041 A 
ATOM     10  C   LIG    1       24.796 -28.654  12.870  0.00  0.00    +0.049 A 
ATOM     11  C   LIG    1       25.984 -28.104  13.354  0.00  0.00    +0.120 A 
ATOM     12  C   LIG    1       27.106 -28.085  12.531  0.00  0.00    +0.046 A 
ATOM     13  C   LIG    1       23.380 -29.707  11.093  0.00  0.00    +0.036 C 
ATOM     14  C   LIG    1       27.033 -28.607  11.236  0.00  0.00    +0.008 A 
ATOM     15  C   LIG    1       23.489 -30.576   9.842  0.00  0.00    +0.009 C 
ATOM     16  C   LIG    1       24.709 -29.650   6.268  0.00  0.00    +0.008 C 
ATOM     17  C   LIG    1       26.641 -31.575   7.811  0.00  0.00    +0.011 C 
ATOM     18  C   LIG    1       25.366 -30.504   5.180  0.00  0.00    +0.049 C 
ENDROOT
BRANCH   1  20
ATOM     19  C   LIG    1       27.192 -33.492   4.663  0.00  0.00    +0.007 C 
ATOM     20  C   LIG    1       26.318 -32.804   5.116  0.00  0.00    -0.070 C 
ENDBRANCH   1  20
BRANCH   1  21
ATOM     21  O   LIG    1       23.990 -32.443   5.182  0.00  0.00    -0.376 OA
ATOM     22  H   LIG    1       23.297 -31.901   5.595  0.00  0.00    +0.211 HD
ENDBRANCH   1  21
BRANCH  11  23
ATOM     23  O   LIG    1       25.914 -27.620  14.632  0.00  0.00    -0.495 OA
ATOM     24  C   LIG    1       26.905 -26.676  15.016  0.00  0.00    +0.277 C 
ENDBRANCH  11  23
TORSDOF 3
ENDMDL
MODEL 4
REMARK VINA RESULT:      -5.7      2.096      3.237
REMARK  Name = *****
REMARK                            x       y       z     vdW  Elec       q    Type
REMARK                         _______ _______ _______ _____ _____    ______ ____
ROOT
ATOM      1  C   LIG    1       25.453 -31.896   6.984  0.00  0.00    +0.132 C 
ATOM      2  C   LIG    1       25.158 -30.673   7.913  0.00  0.00    +0.011 C 
ATOM      3  C   LIG    1       25.054 -29.373   7.091  0.00  0.00    +0.015 C 
ATOM      4  C   LIG    1       26.414 -30.688   8.828  0.00  0.00    +0.002 C 
ATOM      5  C   LIG    1       26.331 -29.910  10.159  0.00  0.00    +0.001 C 
ATOM      6  C   LIG    1       24.992 -30.115  10.902  0.00  0.00    +0.023 C 
ATOM      7  C   LIG    1       23.784 -29.939   9.968  0.00  0.00    +0.009 C 
ATOM      8  C   LIG    1       24.858 -29.218  12.125  0.00  0.00    -0.041 A 
ATOM      9  C   LIG    1       25.670 -28.086  12.306  0.00  0.00    -0.041 A 
ATOM     10  C   LIG    1       25.508 -27.299  13.459  0.00  0.00    +0.049 A 
ATOM     11  C   LIG    1       24.550 -27.612  14.425  0.00  0.00    +0.120 A 
ATOM     12  C   LIG    1       23.740 -28.728  14.240  0.00  0.00    +0.046 A 
ATOM     13  C   LIG    1       26.767 -27.729  11.337  0.00  0.00    +0.036 C 
ATOM     14  C   LIG    1       23.896 -29.524  13.100  0.00  0.00    +0.008 A 
ATOM     15  C   LIG    1       26.615 -28.410   9.978  0.00  0.00    +0.009 C 
ATOM     16  C   LIG    1       26.689 -32.190   9.068  0.00  0.00    +0.008 C 
ATOM     17  C   LIG    1       23.869 -30.863   8.753  0.00  0.00    +0.011 C 
ATOM     18  C   LIG    1       26.017 -32.961   7.929  0.00  0.00    +0.049 C 
ENDROOT
BRANCH   1  20
ATOM     19  C   LIG    1       23.340 -32.801   5.620  0.00  0.00    +0.007 C 
ATOM     20  C   LIG    1       24.289 -32.390   6.230  0.00  0.00    -0.070 C 
ENDBRANCH   1  20
BRANCH   1  21
ATOM     21  O   LIG    1       26.495 -31.579   6.055  0.00  0.00    -0.376 OA
ATOM     22  H   LIG    1       26.086 -31.525   5.174  0.00  0.00    +0.211 HD
ENDBRANCH   1  21
BRANCH  11  23
ATOM     23  O   LIG    1       24.512 -26.757  15.493  0.00  0.00    -0.495 OA
ATOM     24  C   LIG    1       24.824 -25.394  15.233  0.00  0.00    +0.277 C 
ENDBRANCH  11  23
TORSDOF 3
ENDMDL
MODEL 5
REMARK VINA RESULT:      -5.6      2.162      7.257
REMARK  Name = *****
REMARK                            x       y       z     vdW  Elec       q    Type
REMARK                         _______ _______ _______ _____ _____    ______ ____
ROOT
ATOM      1  C   LIG    1       25.185 -29.373  12.060  0.00  0.00    +0.132 C 
ATOM      2  C   LIG    1       25.106 -30.482  10.960  0.00  0.00    +0.011 C 
ATOM      3  C   LIG    1       24.648 -31.824  11.566  0.00  0.00    +0.015 C 
ATOM      4  C   LIG    1       26.585 -30.530  10.484  0.00  0.00    +0.002 C 
ATOM      5  C   LIG    1       26.869 -31.190   9.117  0.00  0.00    +0.001 C 
ATOM      6  C   LIG    1       25.854 -30.785   8.023  0.00  0.00    +0.023 C 
ATOM      7  C   LIG    1       24.402 -30.904   8.516  0.00  0.00    +0.009 C 
ATOM      8  C   LIG    1       26.046 -31.566   6.731  0.00  0.00    -0.041 A 
ATOM      9  C   LIG    1       26.784 -32.761   6.688  0.00  0.00    -0.041 A 
ATOM     10  C   LIG    1       26.936 -33.434   5.464  0.00  0.00    +0.049 A 
ATOM     11  C   LIG    1       26.361 -32.947   4.289  0.00  0.00    +0.120 A 
ATOM     12  C   LIG    1       25.622 -31.769   4.334  0.00  0.00    +0.046 A 
ATOM     13  C   LIG    1       27.486 -33.306   7.904  0.00  0.00    +0.036 C 
ATOM     14  C   LIG    1       25.469 -31.085   5.544  0.00  0.00    +0.008 A 
ATOM     15  C   LIG    1       26.965 -32.721   9.214  0.00  0.00    +0.009 C 
ATOM     16  C   LIG    1       27.036 -29.052  10.502  0.00  0.00    +0.008 C 
ATOM     17  C   LIG    1       24.168 -30.092   9.789  0.00  0.00    +0.011 C 
ATOM     18  C   LIG    1       26.099 -28.304  11.454  0.00  0.00    +0.049 C 
ENDROOT
BRANCH   1  20
ATOM     19  C   LIG    1       22.825 -28.363  12.808  0.00  0.00    +0.007 C 
ATOM     20  C   LIG    1       23.883 -28.819  12.467  0.00  0.00    -0.070 C 
ENDBRANCH   1  20
BRANCH   1  21
ATOM     21  O   LIG    1       25.851 -29.871  13.226  0.00  0.00    -0.376 OA
ATOM     22  H   LIG    1       25.845 -29.155  13.884  0.00  0.00    +0.211 HD
ENDBRANCH   1  21
BRANCH  11  23
ATOM     23  O   LIG    1       26.598 -33.708   3.177  0.00  0.00    -0.495 OA
ATOM     24  C   LIG    1       26.742 -33.013   1.944  0.00  0.00    +0.277 C 
ENDBRANCH  11  23
TORSDOF 3
ENDMDL
MODEL 6
REMARK VINA RESULT:      -5.5      7.681     10.180
REMARK  Name = *****
REMARK                            x       y       z     vdW  Elec       q    Type
REMARK                         _______ _______ _______ _____ _____    ______ ____
ROOT
ATOM      1  C   LIG    1       22.971 -18.991   4.144  0.00  0.00    +0.132 C 
ATOM      2  C   LIG    1       23.201 -20.140   5.179  0.00  0.00    +0.011 C 
ATOM      3  C   LIG    1       22.959 -19.640   6.618  0.00  0.00    +0.015 C 
ATOM      4  C   LIG    1       24.696 -20.476   4.921  0.00  0.00    +0.002 C 
ATOM      5  C   LIG    1       25.217 -21.837   5.432  0.00  0.00    +0.001 C 
ATOM      6  C   LIG    1       24.240 -23.004   5.159  0.00  0.00    +0.023 C 
ATOM      7  C   LIG    1       22.802 -22.657   5.577  0.00  0.00    +0.009 C 
ATOM      8  C   LIG    1       24.688 -24.305   5.811  0.00  0.00    -0.041 A 
ATOM      9  C   LIG    1       25.642 -24.328   6.841  0.00  0.00    -0.041 A 
ATOM     10  C   LIG    1       26.024 -25.561   7.398  0.00  0.00    +0.049 A 
ATOM     11  C   LIG    1       25.468 -26.763   6.958  0.00  0.00    +0.120 A 
ATOM     12  C   LIG    1       24.515 -26.737   5.943  0.00  0.00    +0.046 A 
ATOM     13  C   LIG    1       26.330 -23.076   7.318  0.00  0.00    +0.036 C 
ATOM     14  C   LIG    1       24.132 -25.519   5.375  0.00  0.00    +0.008 A 
ATOM     15  C   LIG    1       25.596 -21.797   6.921  0.00  0.00    +0.009 C 
ATOM     16  C   LIG    1       24.852 -20.351   3.388  0.00  0.00    +0.008 C 
ATOM     17  C   LIG    1       22.308 -21.378   4.902  0.00  0.00    +0.011 C 
ATOM     18  C   LIG    1       23.711 -19.461   2.888  0.00  0.00    +0.049 C 
ENDROOT
BRANCH   1  20
ATOM     19  C   LIG    1       20.406 -18.437   3.634  0.00  0.00    +0.007 C 
ATOM     20  C   LIG    1       21.557 -18.686   3.869  0.00  0.00    -0.070 C 
ENDBRANCH   1  20
BRANCH   1  21
ATOM     21  O   LIG    1       23.618 -17.790   4.578  0.00  0.00    -0.376 OA
ATOM     22  H   LIG    1       24.348 -17.620   3.958  0.00  0.00    +0.211 HD
ENDBRANCH   1  21
BRANCH  11  23
ATOM     23  O   LIG    1       25.941 -27.879   7.592  0.00  0.00    -0.495 OA
ATOM     24  C   LIG    1       25.130 -29.046   7.524  0.00  0.00    +0.277 C 
ENDBRANCH  11  23
TORSDOF 3
ENDMDL
MODEL 7
REMARK VINA RESULT:      -5.3      4.260      7.058
REMARK  Name = *****
REMARK                            x       y       z     vdW  Elec       q    Type
REMARK                         _______ _______ _______ _____ _____    ______ ____
ROOT
ATOM      1  C   LIG    1       25.131 -30.856   6.742  0.00  0.00    +0.132 C 
ATOM      2  C   LIG    1       25.184 -29.444   6.072  0.00  0.00    +0.011 C 
ATOM      3  C   LIG    1       25.988 -29.491   4.756  0.00  0.00    +0.015 C 
ATOM      4  C   LIG    1       25.912 -28.622   7.172  0.00  0.00    +0.002 C 
ATOM      5  C   LIG    1       25.796 -27.084   7.101  0.00  0.00    +0.001 C 
ATOM      6  C   LIG    1       24.366 -26.595   6.773  0.00  0.00    +0.023 C 
ATOM      7  C   LIG    1       23.762 -27.350   5.578  0.00  0.00    +0.009 C 
ATOM      8  C   LIG    1       24.301 -25.091   6.545  0.00  0.00    -0.041 A 
ATOM      9  C   LIG    1       25.451 -24.331   6.278  0.00  0.00    -0.041 A 
ATOM     10  C   LIG    1       25.332 -22.944   6.085  0.00  0.00    +0.049 A 
ATOM     11  C   LIG    1       24.091 -22.305   6.142  0.00  0.00    +0.120 A 
ATOM     12  C   LIG    1       22.951 -23.062   6.397  0.00  0.00    +0.046 A 
ATOM     13  C   LIG    1       26.827 -24.945   6.269  0.00  0.00    +0.036 C 
ATOM     14  C   LIG    1       23.057 -24.441   6.598  0.00  0.00    +0.008 A 
ATOM     15  C   LIG    1       26.807 -26.465   6.123  0.00  0.00    +0.009 C 
ATOM     16  C   LIG    1       25.336 -29.171   8.497  0.00  0.00    +0.008 C 
ATOM     17  C   LIG    1       23.773 -28.862   5.799  0.00  0.00    +0.011 C 
ATOM     18  C   LIG    1       24.778 -30.566   8.204  0.00  0.00    +0.049 C 
ENDROOT
BRANCH   1  20
ATOM     19  C   LIG    1       23.405 -32.564   5.624  0.00  0.00    +0.007 C 
ATOM     20  C   LIG    1       24.183 -31.795   6.121  0.00  0.00    -0.070 C 
ENDBRANCH   1  20
BRANCH   1  21
ATOM     21  O   LIG    1       26.430 -31.457   6.745  0.00  0.00    -0.376 OA
ATOM     22  H   LIG    1       27.009 -30.885   7.277  0.00  0.00    +0.211 HD
ENDBRANCH   1  21
BRANCH  11  23
ATOM     23  O   LIG    1       24.133 -20.953   5.938  0.00  0.00    -0.495 OA
ATOM     24  C   LIG    1       22.884 -20.280   5.848  0.00  0.00    +0.277 C 
ENDBRANCH  11  23
TORSDOF 3
ENDMDL
MODEL 8
REMARK VINA RESULT:      -5.3      3.148      4.839
REMARK  Name = *****
REMARK                            x       y       z     vdW  Elec       q    Type
REMARK                         _______ _______ _______ _____ _____    ______ ____
ROOT
ATOM      1  C   LIG    1       23.318 -32.451  10.586  0.00  0.00    +0.132 C 
ATOM      2  C   LIG    1       23.671 -30.928  10.635  0.00  0.00    +0.011 C 
ATOM      3  C   LIG    1       23.665 -30.318   9.219  0.00  0.00    +0.015 C 
ATOM      4  C   LIG    1       25.100 -30.975  11.245  0.00  0.00    +0.002 C 
ATOM      5  C   LIG    1       25.654 -29.670  11.856  0.00  0.00    +0.001 C 
ATOM      6  C   LIG    1       24.615 -28.909  12.711  0.00  0.00    +0.023 C 
ATOM      7  C   LIG    1       23.268 -28.768  11.985  0.00  0.00    +0.009 C 
ATOM      8  C   LIG    1       25.121 -27.549  13.170  0.00  0.00    -0.041 A 
ATOM      9  C   LIG    1       26.220 -26.921  12.560  0.00  0.00    -0.041 A 
ATOM     10  C   LIG    1       26.648 -25.669  13.033  0.00  0.00    +0.049 A 
ATOM     11  C   LIG    1       25.998 -25.029  14.090  0.00  0.00    +0.120 A 
ATOM     12  C   LIG    1       24.903 -25.647  14.687  0.00  0.00    +0.046 A 
ATOM     13  C   LIG    1       27.006 -27.586  11.461  0.00  0.00    +0.036 C 
ATOM     14  C   LIG    1       24.472 -26.897  14.231  0.00  0.00    +0.008 A 
ATOM     15  C   LIG    1       26.256 -28.736  10.794  0.00  0.00    +0.009 C 
ATOM     16  C   LIG    1       25.025 -32.105  12.297  0.00  0.00    +0.008 C 
ATOM     17  C   LIG    1       22.713 -30.125  11.553  0.00  0.00    +0.011 C 
ATOM     18  C   LIG    1       23.846 -33.003  11.913  0.00  0.00    +0.049 C 
ENDROOT
BRANCH   1  20
ATOM     19  C   LIG    1       20.722 -32.981  10.232  0.00  0.00    +0.007 C 
ATOM     20  C   LIG    1       21.888 -32.744  10.396  0.00  0.00    -0.070 C 
ENDBRANCH   1  20
BRANCH   1  21
ATOM     21  O   LIG    1       24.057 -33.102   9.547  0.00  0.00    -0.376 OA
ATOM     22  H   LIG    1       24.873 -32.591   9.414  0.00  0.00    +0.211 HD
ENDBRANCH   1  21
BRANCH  11  23
ATOM     23  O   LIG    1       26.530 -23.818  14.441  0.00  0.00    -0.495 OA
ATOM     24  C   LIG    1       25.889 -23.119  15.500  0.00  0.00    +0.277 C 
ENDBRANCH  11  23
TORSDOF 3
ENDMDL
MODEL 9
REMARK VINA RESULT:      -5.2      3.603      5.473
REMARK  Name = *****
REMARK                            x       y       z     vdW  Elec       q    Type
REMARK                         _______ _______ _______ _____ _____    ______ ____
ROOT
ATOM      1  C   LIG    1       25.883 -32.373   9.417  0.00  0.00    +0.132 C 
ATOM      2  C   LIG    1       25.136 -31.049   9.784  0.00  0.00    +0.011 C 
ATOM      3  C   LIG    1       25.732 -29.852   9.017  0.00  0.00    +0.015 C 
ATOM      4  C   LIG    1       25.417 -30.964  11.310  0.00  0.00    +0.002 C 
ATOM      5  C   LIG    1       24.511 -30.037  12.148  0.00  0.00    +0.001 C 
ATOM      6  C   LIG    1       23.014 -30.148  11.775  0.00  0.00    +0.023 C 
ATOM      7  C   LIG    1       22.795 -30.074  10.256  0.00  0.00    +0.009 C 
ATOM      8  C   LIG    1       22.156 -29.114  12.491  0.00  0.00    -0.041 A 
ATOM      9  C   LIG    1       22.714 -27.973  13.091  0.00  0.00    -0.041 A 
ATOM     10  C   LIG    1       21.873 -27.057  13.746  0.00  0.00    +0.049 A 
ATOM     11  C   LIG    1       20.492 -27.251  13.805  0.00  0.00    +0.120 A 
ATOM     12  C   LIG    1       19.939 -28.376  13.202  0.00  0.00    +0.046 A 
ATOM     13  C   LIG    1       24.202 -27.737  13.122  0.00  0.00    +0.036 C 
ATOM     14  C   LIG    1       20.765 -29.299  12.553  0.00  0.00    +0.008 A 
ATOM     15  C   LIG    1       24.965 -28.569  12.094  0.00  0.00    +0.009 C 
ATOM     16  C   LIG    1       25.325 -32.430  11.793  0.00  0.00    +0.008 C 
ATOM     17  C   LIG    1       23.611 -31.133   9.514  0.00  0.00    +0.011 C 
ATOM     18  C   LIG    1       25.554 -33.324  10.572  0.00  0.00    +0.049 C 
ENDROOT
BRANCH   1  20
ATOM     19  C   LIG    1       25.220 -33.402   7.040  0.00  0.00    +0.007 C 
ATOM     20  C   LIG    1       25.515 -32.944   8.111  0.00  0.00    -0.070 C 
ENDBRANCH   1  20
BRANCH   1  21
ATOM     21  O   LIG    1       27.300 -32.171   9.442  0.00  0.00    -0.376 OA
ATOM     22  H   LIG    1       27.468 -31.282   9.087  0.00  0.00    +0.211 HD
ENDBRANCH   1  21
BRANCH  11  23
ATOM     23  O   LIG    1       19.806 -26.278  14.479  0.00  0.00    -0.495 OA
ATOM     24  C   LIG    1       18.392 -26.265  14.322  0.00  0.00    +0.277 C 
ENDBRANCH  11  23
TORSDOF 3
ENDMDL
