MODEL 1
REMARK VINA RESULT:      -9.4      0.000      0.000
REMARK  Name = *****
REMARK                            x       y       z     vdW  Elec       q    Type
REMARK                         _______ _______ _______ _____ _____    ______ ____
ROOT
ATOM      1  N   LIG    1       29.350 -19.947   8.171  0.00  0.00    -0.075 NA
ATOM      2  C   LIG    1       28.741 -20.825   7.458  0.00  0.00    +0.313 C 
ENDROOT
BRANCH   1   3
ATOM      3  S   LIG    1       30.482 -18.983   7.578  0.00  0.00    +0.103 S 
ATOM      4  O   LIG    1       31.621 -19.795   7.183  0.00  0.00    -0.146 OA
ATOM      5  O   LIG    1       29.892 -18.072   6.613  0.00  0.00    -0.146 OA
BRANCH   3  10
ATOM      6  C   LIG    1       32.264 -15.878  12.475  0.00  0.00    +0.044 C 
ATOM      7  C   LIG    1       31.784 -16.562  11.228  0.00  0.00    -0.050 A 
ATOM      8  C   LIG    1       32.652 -16.726  10.139  0.00  0.00    +0.005 A 
ATOM      9  C   LIG    1       32.242 -17.437   9.009  0.00  0.00    +0.029 A 
ATOM     10  C   LIG    1       30.962 -17.999   8.978  0.00  0.00    +0.113 A 
ATOM     11  C   LIG    1       30.079 -17.824  10.044  0.00  0.00    +0.029 A 
ATOM     12  C   LIG    1       30.495 -17.109  11.169  0.00  0.00    +0.005 A 
ENDBRANCH   3  10
ENDBRANCH   1   3
BRANCH   2  13
ATOM     13  N   LIG    1       27.750 -21.671   7.890  0.00  0.00    -0.231 N 
ATOM     14  H   LIG    1       27.610 -21.641   8.896  0.00  0.00    +0.171 HD
BRANCH  13  15
ATOM     15  N   LIG    1       26.596 -21.807   7.060  0.00  0.00    -0.226 NA
ATOM     16  C   LIG    1       26.109 -23.182   7.202  0.00  0.00    +0.105 C 
ATOM     17  C   LIG    1       24.865 -23.534   6.378  0.00  0.00    +0.017 C 
ATOM     18  C   LIG    1       23.587 -22.933   6.951  0.00  0.00    +0.001 C 
ATOM     19  C   LIG    1       23.317 -21.494   6.534  0.00  0.00    +0.001 C 
ATOM     20  C   LIG    1       24.533 -20.588   6.364  0.00  0.00    +0.017 C 
ATOM     21  C   LIG    1       25.627 -20.760   7.418  0.00  0.00    +0.105 C 
ENDBRANCH  13  15
ENDBRANCH   2  13
BRANCH   2  22
ATOM     22  O   LIG    1       28.997 -21.077   6.157  0.00  0.00    -0.480 OA
ATOM     23  H   LIG    1       28.221 -20.910   5.587  0.00  0.00    +0.295 HD
ENDBRANCH   2  22
TORSDOF 5
ENDMDL
MODEL 2
REMARK VINA RESULT:      -8.7      3.281      7.895
REMARK  Name = *****
REMARK                            x       y       z     vdW  Elec       q    Type
REMARK                         _______ _______ _______ _____ _____    ______ ____
ROOT
ATOM      1  N   LIG    1       25.817 -20.435   6.625  0.00  0.00    -0.075 NA
ATOM      2  C   LIG    1       26.499 -20.312   5.542  0.00  0.00    +0.313 C 
ENDROOT
BRANCH   1   3
ATOM      3  S   LIG    1       24.311 -20.976   6.643  0.00  0.00    +0.103 S 
ATOM      4  O   LIG    1       23.693 -20.585   7.899  0.00  0.00    -0.146 OA
ATOM      5  O   LIG    1       23.654 -20.636   5.394  0.00  0.00    -0.146 OA
BRANCH   3  10
ATOM      6  C   LIG    1       25.057 -26.989   6.356  0.00  0.00    +0.044 C 
ATOM      7  C   LIG    1       24.855 -25.511   6.523  0.00  0.00    -0.050 A 
ATOM      8  C   LIG    1       25.959 -24.669   6.716  0.00  0.00    +0.005 A 
ATOM      9  C   LIG    1       25.789 -23.285   6.787  0.00  0.00    +0.029 A 
ATOM     10  C   LIG    1       24.507 -22.743   6.648  0.00  0.00    +0.113 A 
ATOM     11  C   LIG    1       23.396 -23.570   6.479  0.00  0.00    +0.029 A 
ATOM     12  C   LIG    1       23.574 -24.952   6.413  0.00  0.00    +0.005 A 
ENDBRANCH   3  10
ENDBRANCH   1   3
BRANCH   2  13
ATOM     13  N   LIG    1       27.796 -19.874   5.449  0.00  0.00    -0.231 N 
ATOM     14  H   LIG    1       27.926 -19.160   4.737  0.00  0.00    +0.171 HD
BRANCH  13  15
ATOM     15  N   LIG    1       28.533 -19.746   6.665  0.00  0.00    -0.226 NA
ATOM     16  C   LIG    1       28.995 -21.084   7.045  0.00  0.00    +0.105 C 
ATOM     17  C   LIG    1       29.811 -21.161   8.340  0.00  0.00    +0.017 C 
ATOM     18  C   LIG    1       31.229 -20.626   8.180  0.00  0.00    +0.001 C 
ATOM     19  C   LIG    1       31.360 -19.116   8.322  0.00  0.00    +0.001 C 
ATOM     20  C   LIG    1       30.201 -18.274   7.797  0.00  0.00    +0.017 C 
ATOM     21  C   LIG    1       29.597 -18.748   6.475  0.00  0.00    +0.105 C 
ENDBRANCH  13  15
ENDBRANCH   2  13
BRANCH   2  22
ATOM     22  O   LIG    1       26.034 -20.574   4.302  0.00  0.00    -0.480 OA
ATOM     23  H   LIG    1       25.489 -21.385   4.274  0.00  0.00    +0.295 HD
ENDBRANCH   2  22
TORSDOF 5
ENDMDL
MODEL 3
REMARK VINA RESULT:      -8.6      2.064      7.770
REMARK  Name = *****
REMARK                            x       y       z     vdW  Elec       q    Type
REMARK                         _______ _______ _______ _____ _____    ______ ____
ROOT
ATOM      1  N   LIG    1       27.819 -20.309   7.321  0.00  0.00    -0.075 NA
ATOM      2  C   LIG    1       29.017 -20.418   7.773  0.00  0.00    +0.313 C 
ENDROOT
BRANCH   1   3
ATOM      3  S   LIG    1       26.655 -21.343   7.693  0.00  0.00    +0.103 S 
ATOM      4  O   LIG    1       27.059 -22.669   7.257  0.00  0.00    -0.146 OA
ATOM      5  O   LIG    1       26.245 -21.143   9.071  0.00  0.00    -0.146 OA
BRANCH   3  10
ATOM      6  C   LIG    1       22.081 -19.248   4.303  0.00  0.00    +0.044 C 
ATOM      7  C   LIG    1       23.191 -19.857   5.110  0.00  0.00    -0.050 A 
ATOM      8  C   LIG    1       24.495 -19.896   4.594  0.00  0.00    +0.005 A 
ATOM      9  C   LIG    1       25.548 -20.382   5.372  0.00  0.00    +0.029 A 
ATOM     10  C   LIG    1       25.295 -20.816   6.676  0.00  0.00    +0.113 A 
ATOM     11  C   LIG    1       23.999 -20.807   7.194  0.00  0.00    +0.029 A 
ATOM     12  C   LIG    1       22.951 -20.323   6.410  0.00  0.00    +0.005 A 
ENDBRANCH   3  10
ENDBRANCH   1   3
BRANCH   2  13
ATOM     13  N   LIG    1       30.059 -19.564   7.515  0.00  0.00    -0.231 N 
ATOM     14  H   LIG    1       29.919 -19.004   6.678  0.00  0.00    +0.171 HD
BRANCH  13  15
ATOM     15  N   LIG    1       30.689 -18.941   8.635  0.00  0.00    -0.226 NA
ATOM     16  C   LIG    1       31.825 -18.164   8.129  0.00  0.00    +0.105 C 
ATOM     17  C   LIG    1       32.641 -17.416   9.188  0.00  0.00    +0.017 C 
ATOM     18  C   LIG    1       31.927 -16.181   9.723  0.00  0.00    +0.001 C 
ATOM     19  C   LIG    1       30.935 -16.455  10.845  0.00  0.00    +0.001 C 
ATOM     20  C   LIG    1       30.162 -17.767  10.774  0.00  0.00    +0.017 C 
ATOM     21  C   LIG    1       29.683 -18.167   9.377  0.00  0.00    +0.105 C 
ENDBRANCH  13  15
ENDBRANCH   2  13
BRANCH   2  22
ATOM     22  O   LIG    1       29.455 -21.419   8.566  0.00  0.00    -0.480 OA
ATOM     23  H   LIG    1       28.966 -21.465   9.410  0.00  0.00    +0.295 HD
ENDBRANCH   2  22
TORSDOF 5
ENDMDL
MODEL 4
REMARK VINA RESULT:      -8.2      3.909      7.697
REMARK  Name = *****
REMARK                            x       y       z     vdW  Elec       q    Type
REMARK                         _______ _______ _______ _____ _____    ______ ____
ROOT
ATOM      1  N   LIG    1       26.090 -22.953   6.683  0.00  0.00    -0.075 NA
ATOM      2  C   LIG    1       26.130 -22.216   7.735  0.00  0.00    +0.313 C 
ENDROOT
BRANCH   1   3
ATOM      3  S   LIG    1       24.718 -23.414   6.000  0.00  0.00    +0.103 S 
ATOM      4  O   LIG    1       25.030 -24.259   4.859  0.00  0.00    -0.146 OA
ATOM      5  O   LIG    1       23.806 -23.904   7.017  0.00  0.00    -0.146 OA
BRANCH   3  10
ATOM      6  C   LIG    1       22.519 -18.072   4.149  0.00  0.00    +0.044 C 
ATOM      7  C   LIG    1       23.018 -19.436   4.530  0.00  0.00    -0.050 A 
ATOM      8  C   LIG    1       24.291 -19.857   4.121  0.00  0.00    +0.005 A 
ATOM      9  C   LIG    1       24.797 -21.089   4.543  0.00  0.00    +0.029 A 
ATOM     10  C   LIG    1       24.029 -21.893   5.390  0.00  0.00    +0.113 A 
ATOM     11  C   LIG    1       22.751 -21.498   5.786  0.00  0.00    +0.029 A 
ATOM     12  C   LIG    1       22.250 -20.267   5.358  0.00  0.00    +0.005 A 
ENDBRANCH   3  10
ENDBRANCH   1   3
BRANCH   2  13
ATOM     13  N   LIG    1       27.264 -21.766   8.365  0.00  0.00    -0.231 N 
ATOM     14  H   LIG    1       27.532 -22.339   9.161  0.00  0.00    +0.171 HD
BRANCH  13  15
ATOM     15  N   LIG    1       28.304 -21.238   7.543  0.00  0.00    -0.226 NA
ATOM     16  C   LIG    1       27.711 -20.205   6.688  0.00  0.00    +0.105 C 
ATOM     17  C   LIG    1       28.675 -19.512   5.719  0.00  0.00    +0.017 C 
ATOM     18  C   LIG    1       29.604 -18.523   6.413  0.00  0.00    +0.001 C 
ATOM     19  C   LIG    1       30.851 -19.145   7.028  0.00  0.00    +0.001 C 
ATOM     20  C   LIG    1       30.699 -20.541   7.624  0.00  0.00    +0.017 C 
ATOM     21  C   LIG    1       29.406 -20.781   8.403  0.00  0.00    +0.105 C 
ENDBRANCH  13  15
ENDBRANCH   2  13
BRANCH   2  22
ATOM     22  O   LIG    1       25.048 -21.780   8.414  0.00  0.00    -0.480 OA
ATOM     23  H   LIG    1       24.232 -21.820   7.878  0.00  0.00    +0.295 HD
ENDBRANCH   2  22
TORSDOF 5
ENDMDL
MODEL 5
REMARK VINA RESULT:      -7.9      6.841      9.154
REMARK  Name = *****
REMARK                            x       y       z     vdW  Elec       q    Type
REMARK                         _______ _______ _______ _____ _____    ______ ____
ROOT
ATOM      1  N   LIG    1       25.576 -25.283   6.179  0.00  0.00    -0.075 NA
ATOM      2  C   LIG    1       25.207 -24.280   5.465  0.00  0.00    +0.313 C 
ENDROOT
BRANCH   1   3
ATOM      3  S   LIG    1       25.682 -26.770   5.597  0.00  0.00    +0.103 S 
ATOM      4  O   LIG    1       24.508 -27.031   4.781  0.00  0.00    -0.146 OA
ATOM      5  O   LIG    1       27.001 -26.980   5.029  0.00  0.00    -0.146 OA
BRANCH   3  10
ATOM      6  C   LIG    1       25.587 -30.426  10.436  0.00  0.00    +0.044 C 
ATOM      7  C   LIG    1       25.541 -29.467   9.282  0.00  0.00    -0.050 A 
ATOM      8  C   LIG    1       26.459 -28.408   9.212  0.00  0.00    +0.005 A 
ATOM      9  C   LIG    1       26.478 -27.563   8.101  0.00  0.00    +0.029 A 
ATOM     10  C   LIG    1       25.585 -27.790   7.049  0.00  0.00    +0.113 A 
ATOM     11  C   LIG    1       24.652 -28.824   7.116  0.00  0.00    +0.029 A 
ATOM     12  C   LIG    1       24.635 -29.663   8.231  0.00  0.00    +0.005 A 
ENDBRANCH   3  10
ENDBRANCH   1   3
BRANCH   2  13
ATOM     13  N   LIG    1       25.111 -22.978   5.887  0.00  0.00    -0.231 N 
ATOM     14  H   LIG    1       25.969 -22.631   6.310  0.00  0.00    +0.171 HD
BRANCH  13  15
ATOM     15  N   LIG    1       24.359 -22.078   5.073  0.00  0.00    -0.226 NA
ATOM     16  C   LIG    1       23.111 -21.779   5.782  0.00  0.00    +0.105 C 
ATOM     17  C   LIG    1       22.152 -20.824   5.064  0.00  0.00    +0.017 C 
ATOM     18  C   LIG    1       22.620 -19.374   5.104  0.00  0.00    +0.001 C 
ATOM     19  C   LIG    1       23.624 -18.999   4.022  0.00  0.00    +0.001 C 
ATOM     20  C   LIG    1       24.624 -20.074   3.610  0.00  0.00    +0.017 C 
ATOM     21  C   LIG    1       25.193 -20.910   4.757  0.00  0.00    +0.105 C 
ENDBRANCH  13  15
ENDBRANCH   2  13
BRANCH   2  22
ATOM     22  O   LIG    1       24.827 -24.352   4.171  0.00  0.00    -0.480 OA
ATOM     23  H   LIG    1       25.577 -24.230   3.557  0.00  0.00    +0.295 HD
ENDBRANCH   2  22
TORSDOF 5
ENDMDL
MODEL 6
REMARK VINA RESULT:      -7.9      3.574      7.694
REMARK  Name = *****
REMARK                            x       y       z     vdW  Elec       q    Type
REMARK                         _______ _______ _______ _____ _____    ______ ____
ROOT
ATOM      1  N   LIG    1       26.228 -22.820   6.656  0.00  0.00    -0.075 NA
ATOM      2  C   LIG    1       26.385 -22.146   7.739  0.00  0.00    +0.313 C 
ENDROOT
BRANCH   1   3
ATOM      3  S   LIG    1       24.786 -23.209   6.079  0.00  0.00    +0.103 S 
ATOM      4  O   LIG    1       24.967 -24.069   4.922  0.00  0.00    -0.146 OA
ATOM      5  O   LIG    1       23.928 -23.650   7.164  0.00  0.00    -0.146 OA
BRANCH   3  10
ATOM      6  C   LIG    1       22.338 -18.062   4.003  0.00  0.00    +0.044 C 
ATOM      7  C   LIG    1       23.007 -19.281   4.569  0.00  0.00    -0.050 A 
ATOM      8  C   LIG    1       22.476 -19.909   5.704  0.00  0.00    +0.005 A 
ATOM      9  C   LIG    1       23.042 -21.092   6.186  0.00  0.00    +0.029 A 
ATOM     10  C   LIG    1       24.133 -21.654   5.517  0.00  0.00    +0.113 A 
ATOM     11  C   LIG    1       24.686 -21.027   4.400  0.00  0.00    +0.029 A 
ATOM     12  C   LIG    1       24.118 -19.843   3.927  0.00  0.00    +0.005 A 
ENDBRANCH   3  10
ENDBRANCH   1   3
BRANCH   2  13
ATOM     13  N   LIG    1       27.584 -21.759   8.284  0.00  0.00    -0.231 N 
ATOM     14  H   LIG    1       28.216 -22.538   8.449  0.00  0.00    +0.171 HD
BRANCH  13  15
ATOM     15  N   LIG    1       28.146 -20.529   7.827  0.00  0.00    -0.226 NA
ATOM     16  C   LIG    1       29.423 -20.341   8.522  0.00  0.00    +0.105 C 
ATOM     17  C   LIG    1       30.189 -19.062   8.168  0.00  0.00    +0.017 C 
ATOM     18  C   LIG    1       30.849 -19.127   6.796  0.00  0.00    +0.001 C 
ATOM     19  C   LIG    1       29.936 -18.766   5.632  0.00  0.00    +0.001 C 
ATOM     20  C   LIG    1       28.472 -19.177   5.754  0.00  0.00    +0.017 C 
ATOM     21  C   LIG    1       28.231 -20.561   6.359  0.00  0.00    +0.105 C 
ENDBRANCH  13  15
ENDBRANCH   2  13
BRANCH   2  22
ATOM     22  O   LIG    1       25.382 -21.723   8.538  0.00  0.00    -0.480 OA
ATOM     23  H   LIG    1       25.511 -20.802   8.839  0.00  0.00    +0.295 HD
ENDBRANCH   2  22
TORSDOF 5
ENDMDL
MODEL 7
REMARK VINA RESULT:      -7.7      4.230      5.645
REMARK  Name = *****
REMARK                            x       y       z     vdW  Elec       q    Type
REMARK                         _______ _______ _______ _____ _____    ______ ____
ROOT
ATOM      1  N   LIG    1       24.475 -21.661   7.145  0.00  0.00    -0.075 NA
ATOM      2  C   LIG    1       23.530 -22.403   6.687  0.00  0.00    +0.313 C 
ENDROOT
BRANCH   1   3
ATOM      3  S   LIG    1       25.703 -22.247   7.989  0.00  0.00    +0.103 S 
ATOM      4  O   LIG    1       25.510 -21.903   9.387  0.00  0.00    -0.146 OA
ATOM      5  O   LIG    1       25.930 -23.633   7.624  0.00  0.00    -0.146 OA
BRANCH   3  10
ATOM      6  C   LIG    1       30.403 -18.892   6.131  0.00  0.00    +0.044 C 
ATOM      7  C   LIG    1       29.266 -19.790   6.524  0.00  0.00    -0.050 A 
ATOM      8  C   LIG    1       29.408 -20.669   7.607  0.00  0.00    +0.005 A 
ATOM      9  C   LIG    1       28.328 -21.445   8.033  0.00  0.00    +0.029 A 
ATOM     10  C   LIG    1       27.097 -21.327   7.380  0.00  0.00    +0.113 A 
ATOM     11  C   LIG    1       26.948 -20.475   6.286  0.00  0.00    +0.029 A 
ATOM     12  C   LIG    1       28.033 -19.705   5.863  0.00  0.00    +0.005 A 
ENDBRANCH   3  10
ENDBRANCH   1   3
BRANCH   2  13
ATOM     13  N   LIG    1       22.459 -21.978   5.942  0.00  0.00    -0.231 N 
ATOM     14  H   LIG    1       21.630 -21.795   6.503  0.00  0.00    +0.171 HD
BRANCH  13  15
ATOM     15  N   LIG    1       22.727 -21.103   4.846  0.00  0.00    -0.226 NA
ATOM     16  C   LIG    1       22.419 -19.738   5.284  0.00  0.00    +0.105 C 
ATOM     17  C   LIG    1       22.639 -18.640   4.238  0.00  0.00    +0.017 C 
ATOM     18  C   LIG    1       24.113 -18.324   4.013  0.00  0.00    +0.001 C 
ATOM     19  C   LIG    1       24.819 -19.247   3.028  0.00  0.00    +0.001 C 
ATOM     20  C   LIG    1       24.379 -20.707   3.018  0.00  0.00    +0.017 C 
ATOM     21  C   LIG    1       24.110 -21.317   4.394  0.00  0.00    +0.105 C 
ENDBRANCH  13  15
ENDBRANCH   2  13
BRANCH   2  22
ATOM     22  O   LIG    1       23.426 -23.733   6.887  0.00  0.00    -0.480 OA
ATOM     23  H   LIG    1       22.537 -24.073   6.667  0.00  0.00    +0.295 HD
ENDBRANCH   2  22
TORSDOF 5
ENDMDL
MODEL 8
REMARK VINA RESULT:      -7.6      5.488      7.369
REMARK  Name = *****
REMARK                            x       y       z     vdW  Elec       q    Type
REMARK                         _______ _______ _______ _____ _____    ______ ____
ROOT
ATOM      1  N   LIG    1       26.578 -23.120   7.175  0.00  0.00    -0.075 NA
ATOM      2  C   LIG    1       25.783 -24.075   6.848  0.00  0.00    +0.313 C 
ENDROOT
BRANCH   1   3
ATOM      3  S   LIG    1       26.082 -21.802   7.935  0.00  0.00    +0.103 S 
ATOM      4  O   LIG    1       25.278 -22.201   9.078  0.00  0.00    -0.146 OA
ATOM      5  O   LIG    1       27.203 -20.902   8.137  0.00  0.00    -0.146 OA
BRANCH   3  10
ATOM      6  C   LIG    1       22.531 -18.855   3.997  0.00  0.00    +0.044 C 
ATOM      7  C   LIG    1       23.379 -19.668   4.931  0.00  0.00    -0.050 A 
ATOM      8  C   LIG    1       24.725 -19.913   4.625  0.00  0.00    +0.005 A 
ATOM      9  C   LIG    1       25.543 -20.595   5.529  0.00  0.00    +0.029 A 
ATOM     10  C   LIG    1       25.011 -21.020   6.750  0.00  0.00    +0.113 A 
ATOM     11  C   LIG    1       23.668 -20.805   7.058  0.00  0.00    +0.029 A 
ATOM     12  C   LIG    1       22.856 -20.126   6.149  0.00  0.00    +0.005 A 
ENDBRANCH   3  10
ENDBRANCH   1   3
BRANCH   2  13
ATOM     13  N   LIG    1       26.136 -25.240   6.214  0.00  0.00    -0.231 N 
ATOM     14  H   LIG    1       27.139 -25.333   6.081  0.00  0.00    +0.171 HD
BRANCH  13  15
ATOM     15  N   LIG    1       25.396 -26.416   6.543  0.00  0.00    -0.226 NA
ATOM     16  C   LIG    1       24.927 -27.009   5.287  0.00  0.00    +0.105 C 
ATOM     17  C   LIG    1       24.099 -28.291   5.427  0.00  0.00    +0.017 C 
ATOM     18  C   LIG    1       24.947 -29.507   5.782  0.00  0.00    +0.001 C 
ATOM     19  C   LIG    1       25.239 -29.669   7.268  0.00  0.00    +0.001 C 
ATOM     20  C   LIG    1       25.433 -28.388   8.073  0.00  0.00    +0.017 C 
ATOM     21  C   LIG    1       26.237 -27.292   7.372  0.00  0.00    +0.105 C 
ENDBRANCH  13  15
ENDBRANCH   2  13
BRANCH   2  22
ATOM     22  O   LIG    1       24.449 -24.077   7.059  0.00  0.00    -0.480 OA
ATOM     23  H   LIG    1       23.948 -24.338   6.263  0.00  0.00    +0.295 HD
ENDBRANCH   2  22
TORSDOF 5
ENDMDL
MODEL 9
REMARK VINA RESULT:      -7.5      2.947      8.280
REMARK  Name = *****
REMARK                            x       y       z     vdW  Elec       q    Type
REMARK                         _______ _______ _______ _____ _____    ______ ____
ROOT
ATOM      1  N   LIG    1       25.835 -21.189   6.463  0.00  0.00    -0.075 NA
ATOM      2  C   LIG    1       26.615 -20.555   7.264  0.00  0.00    +0.313 C 
ENDROOT
BRANCH   1   3
ATOM      3  S   LIG    1       24.435 -21.808   6.927  0.00  0.00    +0.103 S 
ATOM      4  O   LIG    1       24.265 -21.556   8.348  0.00  0.00    -0.146 OA
ATOM      5  O   LIG    1       23.390 -21.401   6.006  0.00  0.00    -0.146 OA
BRANCH   3  10
ATOM      6  C   LIG    1       25.285 -27.717   5.846  0.00  0.00    +0.044 C 
ATOM      7  C   LIG    1       25.056 -26.278   6.208  0.00  0.00    -0.050 A 
ATOM      8  C   LIG    1       26.142 -25.454   6.536  0.00  0.00    +0.005 A 
ATOM      9  C   LIG    1       25.947 -24.095   6.789  0.00  0.00    +0.029 A 
ATOM     10  C   LIG    1       24.660 -23.557   6.698  0.00  0.00    +0.113 A 
ATOM     11  C   LIG    1       23.566 -24.369   6.396  0.00  0.00    +0.029 A 
ATOM     12  C   LIG    1       23.768 -25.727   6.148  0.00  0.00    +0.005 A 
ENDBRANCH   3  10
ENDBRANCH   1   3
BRANCH   2  13
ATOM     13  N   LIG    1       27.818 -19.981   6.936  0.00  0.00    -0.231 N 
ATOM     14  H   LIG    1       27.727 -19.215   6.274  0.00  0.00    +0.171 HD
BRANCH  13  15
ATOM     15  N   LIG    1       28.788 -19.853   7.975  0.00  0.00    -0.226 NA
ATOM     16  C   LIG    1       29.705 -20.992   7.868  0.00  0.00    +0.105 C 
ATOM     17  C   LIG    1       30.828 -21.040   8.909  0.00  0.00    +0.017 C 
ATOM     18  C   LIG    1       31.930 -20.022   8.639  0.00  0.00    +0.001 C 
ATOM     19  C   LIG    1       31.649 -18.624   9.173  0.00  0.00    +0.001 C 
ATOM     20  C   LIG    1       30.199 -18.153   9.136  0.00  0.00    +0.017 C 
ATOM     21  C   LIG    1       29.422 -18.530   7.875  0.00  0.00    +0.105 C 
ENDBRANCH  13  15
ENDBRANCH   2  13
BRANCH   2  22
ATOM     22  O   LIG    1       26.384 -20.368   8.581  0.00  0.00    -0.480 OA
ATOM     23  H   LIG    1       26.433 -21.202   9.088  0.00  0.00    +0.295 HD
ENDBRANCH   2  22
TORSDOF 5
ENDMDL
