MODEL 1
REMARK VINA RESULT:       1.8      0.000      0.000
REMARK  Name = *****
REMARK                            x       y       z     vdW  Elec       q    Type
REMARK                         _______ _______ _______ _____ _____    ______ ____
ROOT
ATOM      1  C   LIG    1       23.577 -17.464   4.255  0.00  0.00    -0.007 A 
ATOM      2  C   LIG    1       24.181 -18.726   4.167  0.00  0.00    +0.122 A 
ATOM      3  N   LIG    1       23.500 -19.885   3.960  0.00  0.00    -0.221 NA
ATOM      4  C   LIG    1       22.164 -19.822   3.779  0.00  0.00    +0.215 A 
ATOM      5  C   LIG    1       21.489 -18.607   3.813  0.00  0.00    +0.068 A 
ATOM      6  C   LIG    1       22.197 -17.443   4.058  0.00  0.00    +0.015 A 
ENDROOT
BRANCH   1   8
ATOM      7  C   LIG    1       25.305 -15.820   3.571  0.00  0.00    +0.008 C 
ATOM      8  C   LIG    1       24.349 -16.231   4.429  0.00  0.00    +0.010 C 
BRANCH   7  12
ATOM      9  C   LIG    1       28.107 -12.678   4.312  0.00  0.00    +0.027 A 
ATOM     10  C   LIG    1       28.167 -13.454   3.149  0.00  0.00    +0.023 A 
ATOM     11  C   LIG    1       27.238 -14.465   2.905  0.00  0.00    +0.009 A 
ATOM     12  C   LIG    1       26.179 -14.679   3.797  0.00  0.00    -0.025 A 
ATOM     13  C   LIG    1       26.071 -13.868   4.929  0.00  0.00    +0.009 A 
ATOM     14  C   LIG    1       27.013 -12.868   5.170  0.00  0.00    +0.023 A 
BRANCH   9  16
ATOM     15  C   LIG    1       29.475 -11.447   5.892  0.00  0.00    +0.125 C 
ATOM     16  N   LIG    1       29.071 -11.683   4.514  0.00  0.00    -0.347 N 
ATOM     17  H   LIG    1       29.876 -11.834   3.910  0.00  0.00    +0.146 HD
ENDBRANCH   9  16
ENDBRANCH   7  12
ENDBRANCH   1   8
BRANCH   4  18
ATOM     18  O   LIG    1       21.578 -21.038   3.568  0.00  0.00    -0.474 OA
BRANCH  18  19
ATOM     19  C   LIG    1       20.700 -21.564   4.566  0.00  0.00    +0.259 C 
BRANCH  19  20
ATOM     20  C   LIG    1       21.371 -21.557   5.943  0.00  0.00    +0.201 C 
BRANCH  20  21
ATOM     21  O   LIG    1       22.796 -21.571   5.882  0.00  0.00    -0.374 OA
BRANCH  21  22
ATOM     22  C   LIG    1       23.437 -21.078   7.059  0.00  0.00    +0.188 C 
BRANCH  22  23
ATOM     23  C   LIG    1       24.910 -21.453   7.001  0.00  0.00    +0.188 C 
BRANCH  23  24
ATOM     24  O   LIG    1       25.684 -20.340   6.540  0.00  0.00    -0.375 OA
BRANCH  24  25
ATOM     25  C   LIG    1       27.057 -20.708   6.443  0.00  0.00    +0.193 C 
BRANCH  25  26
ATOM     26  C   LIG    1       27.831 -19.672   5.654  0.00  0.00    +0.241 C 
ATOM     27  F   LIG    1       28.941 -19.325   6.357  0.00  0.00    -0.247 F 
ENDBRANCH  25  26
ENDBRANCH  24  25
ENDBRANCH  23  24
ENDBRANCH  22  23
ENDBRANCH  21  22
ENDBRANCH  20  21
ENDBRANCH  19  20
ENDBRANCH  18  19
ENDBRANCH   4  18
TORSDOF 12
ENDMDL
