MODEL 1
REMARK VINA RESULT:      -4.3      0.000      0.000
REMARK  Name = *****
REMARK                            x       y       z     vdW  Elec       q    Type
REMARK                         _______ _______ _______ _____ _____    ______ ____
ROOT
ATOM      1  C   LIG    1       25.563 -20.320   5.953  0.00  0.00    +0.346 C 
ENDROOT
BRANCH   1   2
ATOM      2  C   LIG    1       24.486 -21.238   6.567  0.00  0.00    +0.376 C 
BRANCH   2   3
ATOM      3  O   LIG    1       23.300 -20.490   6.840  0.00  0.00    -0.212 OA
BRANCH   3   5
ATOM      4  O   LIG    1       22.393 -19.080   5.400  0.00  0.00    +0.093 OA
ATOM      5  N   LIG    1       22.502 -20.269   5.686  0.00  0.00    +0.284 N 
ATOM      6  O   LIG    1       22.030 -21.264   5.134  0.00  0.00    -0.534 OA
ENDBRANCH   3   5
ENDBRANCH   2   3
ENDBRANCH   1   2
BRANCH   1   7
ATOM      7  O   LIG    1       25.822 -20.721   4.595  0.00  0.00    -0.206 OA
BRANCH   7   8
ATOM      8  N   LIG    1       25.161 -19.918   3.622  0.00  0.00    +0.285 N 
ATOM      9  O   LIG    1       25.511 -18.734   3.673  0.00  0.00    -0.534 OA
ATOM     10  O   LIG    1       24.350 -20.466   2.885  0.00  0.00    +0.093 OA
ENDBRANCH   7   8
ENDBRANCH   1   7
BRANCH   1  11
ATOM     11  C   LIG    1       26.892 -20.407   6.738  0.00  0.00    +0.376 C 
BRANCH  11  12
ATOM     12  O   LIG    1       28.026 -20.442   5.872  0.00  0.00    -0.212 OA
BRANCH  12  13
ATOM     13  N   LIG    1       28.836 -19.277   6.007  0.00  0.00    +0.284 N 
ATOM     14  O   LIG    1       29.470 -19.253   7.058  0.00  0.00    -0.534 OA
ATOM     15  O   LIG    1       28.795 -18.459   5.087  0.00  0.00    +0.093 OA
ENDBRANCH  12  13
ENDBRANCH  11  12
ENDBRANCH   1  11
TORSDOF 8
ENDMDL
MODEL 2
REMARK VINA RESULT:      -4.1      0.999      4.799
REMARK  Name = *****
REMARK                            x       y       z     vdW  Elec       q    Type
REMARK                         _______ _______ _______ _____ _____    ______ ____
ROOT
ATOM      1  C   LIG    1       25.162 -21.137   5.552  0.00  0.00    +0.346 C 
ENDROOT
BRANCH   1   2
ATOM      2  C   LIG    1       26.272 -21.450   6.577  0.00  0.00    +0.376 C 
BRANCH   2   3
ATOM      3  O   LIG    1       27.001 -20.262   6.891  0.00  0.00    -0.212 OA
BRANCH   3   5
ATOM      4  O   LIG    1       28.503 -19.361   5.543  0.00  0.00    +0.093 OA
ATOM      5  N   LIG    1       28.318 -20.258   6.359  0.00  0.00    +0.284 N 
ATOM      6  O   LIG    1       29.087 -21.130   6.766  0.00  0.00    -0.534 OA
ENDBRANCH   3   5
ENDBRANCH   2   3
ENDBRANCH   1   2
BRANCH   1   7
ATOM      7  O   LIG    1       25.238 -19.753   5.166  0.00  0.00    -0.206 OA
BRANCH   7   8
ATOM      8  N   LIG    1       25.235 -19.547   3.757  0.00  0.00    +0.285 N 
ATOM      9  O   LIG    1       25.656 -18.429   3.444  0.00  0.00    -0.534 OA
ATOM     10  O   LIG    1       24.824 -20.458   3.048  0.00  0.00    +0.093 OA
ENDBRANCH   7   8
ENDBRANCH   1   7
BRANCH   1  11
ATOM     11  C   LIG    1       23.759 -21.392   6.147  0.00  0.00    +0.376 C 
BRANCH  11  12
ATOM     12  O   LIG    1       22.977 -20.199   6.207  0.00  0.00    -0.212 OA
BRANCH  12  13
ATOM     13  N   LIG    1       22.111 -20.073   5.082  0.00  0.00    +0.284 N 
ATOM     14  O   LIG    1       21.576 -21.132   4.766  0.00  0.00    -0.534 OA
ATOM     15  O   LIG    1       22.016 -18.955   4.574  0.00  0.00    +0.093 OA
ENDBRANCH  12  13
ENDBRANCH  11  12
ENDBRANCH   1  11
TORSDOF 8
ENDMDL
MODEL 3
REMARK VINA RESULT:      -4.0      1.270      4.661
REMARK  Name = *****
REMARK                            x       y       z     vdW  Elec       q    Type
REMARK                         _______ _______ _______ _____ _____    ______ ____
ROOT
ATOM      1  C   LIG    1       25.425 -20.475   5.740  0.00  0.00    +0.346 C 
ENDROOT
BRANCH   1   2
ATOM      2  C   LIG    1       26.514 -21.031   6.680  0.00  0.00    +0.376 C 
BRANCH   2   3
ATOM      3  O   LIG    1       27.414 -19.990   7.062  0.00  0.00    -0.212 OA
BRANCH   3   5
ATOM      4  O   LIG    1       29.404 -19.320   6.373  0.00  0.00    +0.093 OA
ATOM      5  N   LIG    1       28.771 -20.291   6.774  0.00  0.00    +0.284 N 
ATOM      6  O   LIG    1       29.135 -21.455   6.954  0.00  0.00    -0.534 OA
ENDBRANCH   3   5
ENDBRANCH   2   3
ENDBRANCH   1   2
BRANCH   1   7
ATOM      7  O   LIG    1       24.405 -21.471   5.541  0.00  0.00    -0.206 OA
BRANCH   7   8
ATOM      8  N   LIG    1       23.107 -21.057   5.954  0.00  0.00    +0.285 N 
ATOM      9  O   LIG    1       23.119 -20.509   7.062  0.00  0.00    -0.534 OA
ATOM     10  O   LIG    1       22.167 -21.289   5.203  0.00  0.00    +0.093 OA
ENDBRANCH   7   8
ENDBRANCH   1   7
BRANCH   1  11
ATOM     11  C   LIG    1       26.009 -20.105   4.358  0.00  0.00    +0.376 C 
BRANCH  11  12
ATOM     12  O   LIG    1       24.987 -19.858   3.392  0.00  0.00    -0.212 OA
BRANCH  12  13
ATOM     13  N   LIG    1       24.469 -18.534   3.492  0.00  0.00    +0.284 N 
ATOM     14  O   LIG    1       25.320 -17.670   3.296  0.00  0.00    -0.534 OA
ATOM     15  O   LIG    1       23.274 -18.421   3.764  0.00  0.00    +0.093 OA
ENDBRANCH  12  13
ENDBRANCH  11  12
ENDBRANCH   1  11
TORSDOF 8
ENDMDL
MODEL 4
REMARK VINA RESULT:      -3.9      5.000      7.093
REMARK  Name = *****
REMARK                            x       y       z     vdW  Elec       q    Type
REMARK                         _______ _______ _______ _____ _____    ______ ____
ROOT
ATOM      1  C   LIG    1       26.009 -15.028   3.229  0.00  0.00    +0.346 C 
ENDROOT
BRANCH   1   2
ATOM      2  C   LIG    1       27.127 -14.189   2.578  0.00  0.00    +0.376 C 
BRANCH   2   3
ATOM      3  O   LIG    1       27.289 -12.955   3.280  0.00  0.00    -0.212 OA
BRANCH   3   5
ATOM      4  O   LIG    1       29.475 -13.233   3.455  0.00  0.00    +0.093 OA
ATOM      5  N   LIG    1       28.465 -12.917   4.076  0.00  0.00    +0.284 N 
ATOM      6  O   LIG    1       28.330 -12.584   5.255  0.00  0.00    -0.534 OA
ENDBRANCH   3   5
ENDBRANCH   2   3
ENDBRANCH   1   2
BRANCH   1   7
ATOM      7  O   LIG    1       25.531 -14.361   4.410  0.00  0.00    -0.206 OA
BRANCH   7   8
ATOM      8  N   LIG    1       24.149 -14.020   4.359  0.00  0.00    +0.285 N 
ATOM      9  O   LIG    1       23.962 -12.800   4.429  0.00  0.00    -0.534 OA
ATOM     10  O   LIG    1       23.338 -14.934   4.265  0.00  0.00    +0.093 OA
ENDBRANCH   7   8
ENDBRANCH   1   7
BRANCH   1  11
ATOM     11  C   LIG    1       26.523 -16.426   3.644  0.00  0.00    +0.376 C 
BRANCH  11  12
ATOM     12  O   LIG    1       25.966 -17.464   2.837  0.00  0.00    -0.212 OA
BRANCH  12  13
ATOM     13  N   LIG    1       25.319 -18.461   3.623  0.00  0.00    +0.284 N 
ATOM     14  O   LIG    1       24.094 -18.374   3.597  0.00  0.00    -0.534 OA
ATOM     15  O   LIG    1       26.044 -19.256   4.222  0.00  0.00    +0.093 OA
ENDBRANCH  12  13
ENDBRANCH  11  12
ENDBRANCH   1  11
TORSDOF 8
ENDMDL
MODEL 5
REMARK VINA RESULT:      -3.9      5.625      7.460
REMARK  Name = *****
REMARK                            x       y       z     vdW  Elec       q    Type
REMARK                         _______ _______ _______ _____ _____    ______ ____
ROOT
ATOM      1  C   LIG    1       27.041 -14.005   2.905  0.00  0.00    +0.346 C 
ENDROOT
BRANCH   1   2
ATOM      2  C   LIG    1       27.012 -15.383   3.596  0.00  0.00    +0.376 C 
BRANCH   2   3
ATOM      3  O   LIG    1       26.031 -16.221   2.982  0.00  0.00    -0.212 OA
BRANCH   3   5
ATOM      4  O   LIG    1       27.168 -17.868   3.918  0.00  0.00    +0.093 OA
ATOM      5  N   LIG    1       26.080 -17.565   3.439  0.00  0.00    +0.284 N 
ATOM      6  O   LIG    1       25.059 -18.240   3.300  0.00  0.00    -0.534 OA
ENDBRANCH   3   5
ENDBRANCH   2   3
ENDBRANCH   1   2
BRANCH   1   7
ATOM      7  O   LIG    1       27.266 -12.977   3.887  0.00  0.00    -0.206 OA
BRANCH   7   8
ATOM      8  N   LIG    1       28.640 -12.771   4.201  0.00  0.00    +0.285 N 
ATOM      9  O   LIG    1       28.793 -12.185   5.278  0.00  0.00    -0.534 OA
ATOM     10  O   LIG    1       29.475 -13.172   3.399  0.00  0.00    +0.093 OA
ENDBRANCH   7   8
ENDBRANCH   1   7
BRANCH   1  11
ATOM     11  C   LIG    1       25.702 -13.702   2.194  0.00  0.00    +0.376 C 
BRANCH  11  12
ATOM     12  O   LIG    1       25.063 -12.542   2.725  0.00  0.00    -0.212 OA
BRANCH  12  13
ATOM     13  N   LIG    1       24.071 -12.877   3.692  0.00  0.00    +0.284 N 
ATOM     14  O   LIG    1       23.806 -11.947   4.450  0.00  0.00    -0.534 OA
ATOM     15  O   LIG    1       23.621 -14.022   3.656  0.00  0.00    +0.093 OA
ENDBRANCH  12  13
ENDBRANCH  11  12
ENDBRANCH   1  11
TORSDOF 8
ENDMDL
MODEL 6
REMARK VINA RESULT:      -3.8      4.873      6.221
REMARK  Name = *****
REMARK                            x       y       z     vdW  Elec       q    Type
REMARK                         _______ _______ _______ _____ _____    ______ ____
ROOT
ATOM      1  C   LIG    1       25.687 -15.708   3.256  0.00  0.00    +0.346 C 
ENDROOT
BRANCH   1   2
ATOM      2  C   LIG    1       25.670 -17.248   3.341  0.00  0.00    +0.376 C 
BRANCH   2   3
ATOM      3  O   LIG    1       24.373 -17.706   3.727  0.00  0.00    -0.212 OA
BRANCH   3   5
ATOM      4  O   LIG    1       23.130 -19.514   3.996  0.00  0.00    +0.093 OA
ATOM      5  N   LIG    1       24.271 -19.122   3.768  0.00  0.00    +0.284 N 
ATOM      6  O   LIG    1       25.306 -19.762   3.579  0.00  0.00    -0.534 OA
ENDBRANCH   3   5
ENDBRANCH   2   3
ENDBRANCH   1   2
BRANCH   1   7
ATOM      7  O   LIG    1       26.948 -15.212   3.741  0.00  0.00    -0.206 OA
BRANCH   7   8
ATOM      8  N   LIG    1       27.461 -14.116   2.990  0.00  0.00    +0.285 N 
ATOM      9  O   LIG    1       26.929 -14.015   1.880  0.00  0.00    -0.534 OA
ATOM     10  O   LIG    1       28.340 -13.434   3.505  0.00  0.00    +0.093 OA
ENDBRANCH   7   8
ENDBRANCH   1   7
BRANCH   1  11
ATOM     11  C   LIG    1       24.564 -15.084   4.116  0.00  0.00    +0.376 C 
BRANCH  11  12
ATOM     12  O   LIG    1       23.824 -14.096   3.399  0.00  0.00    -0.212 OA
BRANCH  12  13
ATOM     13  N   LIG    1       24.216 -12.774   3.757  0.00  0.00    +0.284 N 
ATOM     14  O   LIG    1       24.885 -12.733   4.786  0.00  0.00    -0.534 OA
ATOM     15  O   LIG    1       23.839 -11.862   3.020  0.00  0.00    +0.093 OA
ENDBRANCH  12  13
ENDBRANCH  11  12
ENDBRANCH   1  11
TORSDOF 8
ENDMDL
MODEL 7
REMARK VINA RESULT:      -3.8      5.806      6.818
REMARK  Name = *****
REMARK                            x       y       z     vdW  Elec       q    Type
REMARK                         _______ _______ _______ _____ _____    ______ ____
ROOT
ATOM      1  C   LIG    1       26.297 -14.864   3.224  0.00  0.00    +0.346 C 
ENDROOT
BRANCH   1   2
ATOM      2  C   LIG    1       25.269 -14.260   4.201  0.00  0.00    +0.376 C 
BRANCH   2   3
ATOM      3  O   LIG    1       24.157 -13.727   3.479  0.00  0.00    -0.212 OA
BRANCH   3   5
ATOM      4  O   LIG    1       24.021 -11.712   2.583  0.00  0.00    +0.093 OA
ATOM      5  N   LIG    1       24.003 -12.325   3.645  0.00  0.00    +0.284 N 
ATOM      6  O   LIG    1       23.876 -11.910   4.798  0.00  0.00    -0.534 OA
ENDBRANCH   3   5
ENDBRANCH   2   3
ENDBRANCH   1   2
BRANCH   1   7
ATOM      7  O   LIG    1       27.203 -15.719   3.945  0.00  0.00    -0.206 OA
BRANCH   7   8
ATOM      8  N   LIG    1       26.973 -17.109   3.734  0.00  0.00    +0.285 N 
ATOM      9  O   LIG    1       27.808 -17.816   4.310  0.00  0.00    -0.534 OA
ATOM     10  O   LIG    1       26.023 -17.430   3.031  0.00  0.00    +0.093 OA
ENDBRANCH   7   8
ENDBRANCH   1   7
BRANCH   1  11
ATOM     11  C   LIG    1       27.130 -13.762   2.529  0.00  0.00    +0.376 C 
BRANCH  11  12
ATOM     12  O   LIG    1       27.350 -12.638   3.382  0.00  0.00    -0.212 OA
BRANCH  12  13
ATOM     13  N   LIG    1       28.604 -12.717   4.053  0.00  0.00    +0.284 N 
ATOM     14  O   LIG    1       29.475 -13.264   3.381  0.00  0.00    -0.534 OA
ATOM     15  O   LIG    1       28.658 -12.251   5.192  0.00  0.00    +0.093 OA
ENDBRANCH  12  13
ENDBRANCH  11  12
ENDBRANCH   1  11
TORSDOF 8
ENDMDL
MODEL 8
REMARK VINA RESULT:      -3.8      2.252      3.543
REMARK  Name = *****
REMARK                            x       y       z     vdW  Elec       q    Type
REMARK                         _______ _______ _______ _____ _____    ______ ____
ROOT
ATOM      1  C   LIG    1       25.412 -19.717   3.931  0.00  0.00    +0.346 C 
ENDROOT
BRANCH   1   2
ATOM      2  C   LIG    1       24.261 -20.691   3.605  0.00  0.00    +0.376 C 
BRANCH   2   3
ATOM      3  O   LIG    1       23.654 -21.156   4.812  0.00  0.00    -0.212 OA
BRANCH   3   5
ATOM      4  O   LIG    1       22.407 -19.457   5.476  0.00  0.00    +0.093 OA
ATOM      5  N   LIG    1       22.366 -20.602   5.038  0.00  0.00    +0.284 N 
ATOM      6  O   LIG    1       21.397 -21.317   4.777  0.00  0.00    -0.534 OA
ENDBRANCH   3   5
ENDBRANCH   2   3
ENDBRANCH   1   2
BRANCH   1   7
ATOM      7  O   LIG    1       25.652 -19.711   5.350  0.00  0.00    -0.206 OA
BRANCH   7   8
ATOM      8  N   LIG    1       26.933 -20.211   5.719  0.00  0.00    +0.285 N 
ATOM      9  O   LIG    1       26.857 -21.197   6.460  0.00  0.00    -0.534 OA
ATOM     10  O   LIG    1       27.920 -19.628   5.287  0.00  0.00    +0.093 OA
ENDBRANCH   7   8
ENDBRANCH   1   7
BRANCH   1  11
ATOM     11  C   LIG    1       25.068 -18.274   3.497  0.00  0.00    +0.376 C 
BRANCH  11  12
ATOM     12  O   LIG    1       26.239 -17.495   3.249  0.00  0.00    -0.212 OA
BRANCH  12  13
ATOM     13  N   LIG    1       25.973 -16.097   3.319  0.00  0.00    +0.284 N 
ATOM     14  O   LIG    1       24.847 -15.843   3.739  0.00  0.00    -0.534 OA
ATOM     15  O   LIG    1       26.871 -15.339   2.952  0.00  0.00    +0.093 OA
ENDBRANCH  12  13
ENDBRANCH  11  12
ENDBRANCH   1  11
TORSDOF 8
ENDMDL
MODEL 9
REMARK VINA RESULT:      -3.8      2.543      5.391
REMARK  Name = *****
REMARK                            x       y       z     vdW  Elec       q    Type
REMARK                         _______ _______ _______ _____ _____    ______ ____
ROOT
ATOM      1  C   LIG    1       25.357 -18.899   4.103  0.00  0.00    +0.346 C 
ENDROOT
BRANCH   1   2
ATOM      2  C   LIG    1       26.193 -17.938   3.234  0.00  0.00    +0.376 C 
BRANCH   2   3
ATOM      3  O   LIG    1       25.633 -16.625   3.274  0.00  0.00    -0.212 OA
BRANCH   3   5
ATOM      4  O   LIG    1       26.380 -14.746   2.382  0.00  0.00    +0.093 OA
ATOM      5  N   LIG    1       26.613 -15.598   3.233  0.00  0.00    +0.284 N 
ATOM      6  O   LIG    1       27.549 -15.688   4.029  0.00  0.00    -0.534 OA
ENDBRANCH   3   5
ENDBRANCH   2   3
ENDBRANCH   1   2
BRANCH   1   7
ATOM      7  O   LIG    1       26.110 -20.100   4.354  0.00  0.00    -0.206 OA
BRANCH   7   8
ATOM      8  N   LIG    1       26.822 -20.086   5.588  0.00  0.00    +0.285 N 
ATOM      9  O   LIG    1       26.099 -20.360   6.552  0.00  0.00    -0.534 OA
ATOM     10  O   LIG    1       28.014 -19.806   5.555  0.00  0.00    +0.093 OA
ENDBRANCH   7   8
ENDBRANCH   1   7
BRANCH   1  11
ATOM     11  C   LIG    1       24.041 -19.298   3.397  0.00  0.00    +0.376 C 
BRANCH  11  12
ATOM     12  O   LIG    1       23.301 -20.262   4.147  0.00  0.00    -0.212 OA
BRANCH  12  13
ATOM     13  N   LIG    1       22.726 -19.695   5.321  0.00  0.00    +0.284 N 
ATOM     14  O   LIG    1       22.158 -18.627   5.110  0.00  0.00    -0.534 OA
ATOM     15  O   LIG    1       22.873 -20.321   6.372  0.00  0.00    +0.093 OA
ENDBRANCH  12  13
ENDBRANCH  11  12
ENDBRANCH   1  11
TORSDOF 8
ENDMDL
