MODEL 1
REMARK VINA RESULT:      -8.1      0.000      0.000
REMARK  Name = *****
REMARK                            x       y       z     vdW  Elec       q    Type
REMARK                         _______ _______ _______ _____ _____    ______ ____
ROOT
ATOM      1  N   LIG    1       26.155 -19.659   4.821  0.00  0.00    -0.299 N 
ATOM      2  C   LIG    1       27.341 -19.691   5.596  0.00  0.00    +0.038 A 
ATOM      3  C   LIG    1       27.381 -20.453   6.784  0.00  0.00    -0.016 A 
ATOM      4  C   LIG    1       28.593 -20.544   7.518  0.00  0.00    +0.006 A 
ATOM      5  C   LIG    1       29.747 -19.887   7.120  0.00  0.00    +0.000 A 
ATOM      6  C   LIG    1       29.705 -19.097   5.985  0.00  0.00    +0.002 A 
ATOM      7  C   LIG    1       26.128 -21.169   7.309  0.00  0.00    +0.019 C 
ATOM      8  C   LIG    1       26.447 -22.680   7.464  0.00  0.00    +0.021 C 
ATOM      9  C   LIG    1       25.786 -20.558   8.694  0.00  0.00    +0.021 C 
ATOM     10  C   LIG    1       24.895 -21.031   6.406  0.00  0.00    -0.016 A 
ATOM     11  C   LIG    1       23.676 -21.646   6.793  0.00  0.00    +0.006 A 
ATOM     12  C   LIG    1       22.530 -21.567   6.016  0.00  0.00    +0.000 A 
ATOM     13  C   LIG    1       22.583 -20.883   4.814  0.00  0.00    +0.002 A 
ATOM     14  C   LIG    1       23.778 -20.278   4.415  0.00  0.00    +0.024 A 
ATOM     15  C   LIG    1       28.519 -19.001   5.248  0.00  0.00    +0.024 A 
ATOM     16  C   LIG    1       24.954 -20.312   5.194  0.00  0.00    +0.038 A 
ENDROOT
BRANCH   1  17
ATOM     17  C   LIG    1       26.196 -18.983   3.503  0.00  0.00    +0.112 C 
BRANCH  17  18
ATOM     18  C   LIG    1       25.603 -17.568   3.567  0.00  0.00    +0.035 C 
BRANCH  18  19
ATOM     19  C   LIG    1       26.690 -16.493   3.417  0.00  0.00    +0.085 C 
BRANCH  19  21
ATOM     20  C   LIG    1       25.099 -14.724   3.816  0.00  0.00    +0.104 C 
ATOM     21  N   LIG    1       26.189 -15.186   2.953  0.00  0.00    -0.308 NA
ATOM     22  C   LIG    1       27.245 -14.174   2.907  0.00  0.00    +0.104 C 
ENDBRANCH  19  21
ENDBRANCH  18  19
ENDBRANCH  17  18
ENDBRANCH   1  17
TORSDOF 4
ENDMDL
MODEL 2
REMARK VINA RESULT:      -7.8      0.150      4.064
REMARK  Name = *****
REMARK                            x       y       z     vdW  Elec       q    Type
REMARK                         _______ _______ _______ _____ _____    ______ ____
ROOT
ATOM      1  N   LIG    1       26.238 -19.677   4.741  0.00  0.00    -0.299 N 
ATOM      2  C   LIG    1       25.034 -20.331   5.102  0.00  0.00    +0.038 A 
ATOM      3  C   LIG    1       24.931 -20.967   6.358  0.00  0.00    -0.016 A 
ATOM      4  C   LIG    1       23.699 -21.556   6.748  0.00  0.00    +0.006 A 
ATOM      5  C   LIG    1       22.586 -21.551   5.922  0.00  0.00    +0.000 A 
ATOM      6  C   LIG    1       22.690 -20.976   4.668  0.00  0.00    +0.002 A 
ATOM      7  C   LIG    1       26.137 -21.051   7.305  0.00  0.00    +0.019 C 
ATOM      8  C   LIG    1       25.746 -20.417   8.667  0.00  0.00    +0.021 C 
ATOM      9  C   LIG    1       26.474 -22.553   7.500  0.00  0.00    +0.021 C 
ATOM     10  C   LIG    1       27.397 -20.340   6.791  0.00  0.00    -0.016 A 
ATOM     11  C   LIG    1       28.576 -20.356   7.578  0.00  0.00    +0.006 A 
ATOM     12  C   LIG    1       29.742 -19.724   7.174  0.00  0.00    +0.000 A 
ATOM     13  C   LIG    1       29.749 -19.037   5.972  0.00  0.00    +0.002 A 
ATOM     14  C   LIG    1       28.592 -19.005   5.188  0.00  0.00    +0.024 A 
ATOM     15  C   LIG    1       23.896 -20.386   4.272  0.00  0.00    +0.024 A 
ATOM     16  C   LIG    1       27.398 -19.662   5.553  0.00  0.00    +0.038 A 
ENDROOT
BRANCH   1  17
ATOM     17  C   LIG    1       26.258 -18.886   3.488  0.00  0.00    +0.112 C 
BRANCH  17  18
ATOM     18  C   LIG    1       25.609 -17.506   3.673  0.00  0.00    +0.035 C 
BRANCH  18  19
ATOM     19  C   LIG    1       26.626 -16.373   3.471  0.00  0.00    +0.085 C 
BRANCH  19  21
ATOM     20  C   LIG    1       25.055 -14.591   3.892  0.00  0.00    +0.104 C 
ATOM     21  N   LIG    1       26.043 -15.123   2.950  0.00  0.00    -0.308 NA
ATOM     22  C   LIG    1       27.063 -14.108   2.680  0.00  0.00    +0.104 C 
ENDBRANCH  19  21
ENDBRANCH  18  19
ENDBRANCH  17  18
ENDBRANCH   1  17
TORSDOF 4
ENDMDL
MODEL 3
REMARK VINA RESULT:      -7.0      2.047      5.496
REMARK  Name = *****
REMARK                            x       y       z     vdW  Elec       q    Type
REMARK                         _______ _______ _______ _____ _____    ______ ____
ROOT
ATOM      1  N   LIG    1       26.984 -20.632   5.913  0.00  0.00    -0.299 N 
ATOM      2  C   LIG    1       26.104 -21.690   6.252  0.00  0.00    +0.038 A 
ATOM      3  C   LIG    1       24.837 -21.773   5.636  0.00  0.00    -0.016 A 
ATOM      4  C   LIG    1       23.989 -22.875   5.921  0.00  0.00    +0.006 A 
ATOM      5  C   LIG    1       24.353 -23.874   6.810  0.00  0.00    +0.000 A 
ATOM      6  C   LIG    1       25.571 -23.777   7.457  0.00  0.00    +0.002 A 
ATOM      7  C   LIG    1       24.349 -20.677   4.677  0.00  0.00    +0.019 C 
ATOM      8  C   LIG    1       23.990 -21.331   3.316  0.00  0.00    +0.021 C 
ATOM      9  C   LIG    1       23.083 -20.035   5.304  0.00  0.00    +0.021 C 
ATOM     10  C   LIG    1       25.372 -19.562   4.416  0.00  0.00    -0.016 A 
ATOM     11  C   LIG    1       25.030 -18.492   3.550  0.00  0.00    +0.006 A 
ATOM     12  C   LIG    1       25.913 -17.462   3.265  0.00  0.00    +0.000 A 
ATOM     13  C   LIG    1       27.177 -17.489   3.829  0.00  0.00    +0.002 A 
ATOM     14  C   LIG    1       27.533 -18.541   4.679  0.00  0.00    +0.024 A 
ATOM     15  C   LIG    1       26.421 -22.699   7.183  0.00  0.00    +0.024 A 
ATOM     16  C   LIG    1       26.650 -19.589   5.014  0.00  0.00    +0.038 A 
ENDROOT
BRANCH   1  17
ATOM     17  C   LIG    1       28.363 -20.664   6.455  0.00  0.00    +0.112 C 
BRANCH  17  18
ATOM     18  C   LIG    1       28.459 -19.958   7.815  0.00  0.00    +0.035 C 
BRANCH  18  19
ATOM     19  C   LIG    1       29.721 -19.089   7.913  0.00  0.00    +0.085 C 
BRANCH  19  21
ATOM     20  C   LIG    1       31.156 -20.788   8.849  0.00  0.00    +0.104 C 
ATOM     21  N   LIG    1       30.613 -19.441   9.033  0.00  0.00    -0.308 NA
ATOM     22  C   LIG    1       31.710 -18.484   9.187  0.00  0.00    +0.104 C 
ENDBRANCH  19  21
ENDBRANCH  18  19
ENDBRANCH  17  18
ENDBRANCH   1  17
TORSDOF 4
ENDMDL
MODEL 4
REMARK VINA RESULT:      -6.9      2.077      5.024
REMARK  Name = *****
REMARK                            x       y       z     vdW  Elec       q    Type
REMARK                         _______ _______ _______ _____ _____    ______ ____
ROOT
ATOM      1  N   LIG    1       26.944 -20.748   5.877  0.00  0.00    -0.299 N 
ATOM      2  C   LIG    1       26.619 -19.684   4.999  0.00  0.00    +0.038 A 
ATOM      3  C   LIG    1       25.316 -19.589   4.465  0.00  0.00    -0.016 A 
ATOM      4  C   LIG    1       24.972 -18.482   3.647  0.00  0.00    +0.006 A 
ATOM      5  C   LIG    1       25.885 -17.488   3.330  0.00  0.00    +0.000 A 
ATOM      6  C   LIG    1       27.179 -17.597   3.806  0.00  0.00    +0.002 A 
ATOM      7  C   LIG    1       24.267 -20.678   4.737  0.00  0.00    +0.019 C 
ATOM      8  C   LIG    1       23.018 -20.016   5.378  0.00  0.00    +0.021 C 
ATOM      9  C   LIG    1       23.886 -21.311   3.373  0.00  0.00    +0.021 C 
ATOM     10  C   LIG    1       24.745 -21.800   5.669  0.00  0.00    -0.016 A 
ATOM     11  C   LIG    1       23.863 -22.864   5.987  0.00  0.00    +0.006 A 
ATOM     12  C   LIG    1       24.231 -23.901   6.831  0.00  0.00    +0.000 A 
ATOM     13  C   LIG    1       25.494 -23.885   7.398  0.00  0.00    +0.002 A 
ATOM     14  C   LIG    1       26.373 -22.839   7.101  0.00  0.00    +0.024 A 
ATOM     15  C   LIG    1       27.532 -18.681   4.618  0.00  0.00    +0.024 A 
ATOM     16  C   LIG    1       26.043 -21.785   6.223  0.00  0.00    +0.038 A 
ENDROOT
BRANCH   1  17
ATOM     17  C   LIG    1       28.267 -20.729   6.544  0.00  0.00    +0.112 C 
BRANCH  17  18
ATOM     18  C   LIG    1       28.251 -19.875   7.820  0.00  0.00    +0.035 C 
BRANCH  18  19
ATOM     19  C   LIG    1       29.546 -19.063   7.973  0.00  0.00    +0.085 C 
BRANCH  19  21
ATOM     20  C   LIG    1       31.170 -20.651   8.789  0.00  0.00    +0.104 C 
ATOM     21  N   LIG    1       30.379 -19.464   9.122  0.00  0.00    -0.308 NA
ATOM     22  C   LIG    1       31.268 -18.387   9.561  0.00  0.00    +0.104 C 
ENDBRANCH  19  21
ENDBRANCH  18  19
ENDBRANCH  17  18
ENDBRANCH   1  17
TORSDOF 4
ENDMDL
MODEL 5
REMARK VINA RESULT:      -6.1      1.927      4.664
REMARK  Name = *****
REMARK                            x       y       z     vdW  Elec       q    Type
REMARK                         _______ _______ _______ _____ _____    ______ ____
ROOT
ATOM      1  N   LIG    1       25.945 -20.240   5.093  0.00  0.00    -0.299 N 
ATOM      2  C   LIG    1       24.923 -21.014   5.698  0.00  0.00    +0.038 A 
ATOM      3  C   LIG    1       25.052 -21.417   7.044  0.00  0.00    -0.016 A 
ATOM      4  C   LIG    1       23.994 -22.127   7.669  0.00  0.00    +0.006 A 
ATOM      5  C   LIG    1       22.831 -22.463   6.992  0.00  0.00    +0.000 A 
ATOM      6  C   LIG    1       22.715 -22.117   5.658  0.00  0.00    +0.002 A 
ATOM      7  C   LIG    1       26.332 -21.120   7.841  0.00  0.00    +0.019 C 
ATOM      8  C   LIG    1       25.949 -20.324   9.117  0.00  0.00    +0.021 C 
ATOM      9  C   LIG    1       26.963 -22.481   8.237  0.00  0.00    +0.021 C 
ATOM     10  C   LIG    1       27.384 -20.310   7.070  0.00  0.00    -0.016 A 
ATOM     11  C   LIG    1       28.610 -19.981   7.703  0.00  0.00    +0.006 A 
ATOM     12  C   LIG    1       29.595 -19.243   7.064  0.00  0.00    +0.000 A 
ATOM     13  C   LIG    1       29.366 -18.796   5.774  0.00  0.00    +0.002 A 
ATOM     14  C   LIG    1       28.160 -19.106   5.139  0.00  0.00    +0.024 A 
ATOM     15  C   LIG    1       23.747 -21.412   5.029  0.00  0.00    +0.024 A 
ATOM     16  C   LIG    1       27.148 -19.880   5.747  0.00  0.00    +0.038 A 
ENDROOT
BRANCH   1  17
ATOM     17  C   LIG    1       25.705 -19.699   3.734  0.00  0.00    +0.112 C 
BRANCH  17  18
ATOM     18  C   LIG    1       24.853 -18.422   3.770  0.00  0.00    +0.035 C 
BRANCH  18  19
ATOM     19  C   LIG    1       23.407 -18.694   3.331  0.00  0.00    +0.085 C 
BRANCH  19  21
ATOM     20  C   LIG    1       22.459 -16.878   4.605  0.00  0.00    +0.104 C 
ATOM     21  N   LIG    1       22.390 -18.314   4.329  0.00  0.00    -0.308 NA
ATOM     22  C   LIG    1       21.036 -18.669   3.900  0.00  0.00    +0.104 C 
ENDBRANCH  19  21
ENDBRANCH  18  19
ENDBRANCH  17  18
ENDBRANCH   1  17
TORSDOF 4
ENDMDL
MODEL 6
REMARK VINA RESULT:      -6.0      1.845      2.325
REMARK  Name = *****
REMARK                            x       y       z     vdW  Elec       q    Type
REMARK                         _______ _______ _______ _____ _____    ______ ____
ROOT
ATOM      1  N   LIG    1       25.867 -20.196   5.131  0.00  0.00    -0.299 N 
ATOM      2  C   LIG    1       27.090 -19.888   5.777  0.00  0.00    +0.038 A 
ATOM      3  C   LIG    1       27.350 -20.400   7.066  0.00  0.00    -0.016 A 
ATOM      4  C   LIG    1       28.606 -20.153   7.680  0.00  0.00    +0.006 A 
ATOM      5  C   LIG    1       29.592 -19.398   7.062  0.00  0.00    +0.000 A 
ATOM      6  C   LIG    1       29.329 -18.849   5.820  0.00  0.00    +0.002 A 
ATOM      7  C   LIG    1       26.287 -21.205   7.829  0.00  0.00    +0.019 C 
ATOM      8  C   LIG    1       26.884 -22.588   8.204  0.00  0.00    +0.021 C 
ATOM      9  C   LIG    1       25.936 -20.415   9.117  0.00  0.00    +0.021 C 
ATOM     10  C   LIG    1       24.989 -21.443   7.044  0.00  0.00    -0.016 A 
ATOM     11  C   LIG    1       23.932 -22.170   7.650  0.00  0.00    +0.006 A 
ATOM     12  C   LIG    1       22.740 -22.426   6.989  0.00  0.00    +0.000 A 
ATOM     13  C   LIG    1       22.585 -21.976   5.690  0.00  0.00    +0.002 A 
ATOM     14  C   LIG    1       23.620 -21.264   5.076  0.00  0.00    +0.024 A 
ATOM     15  C   LIG    1       28.097 -19.088   5.201  0.00  0.00    +0.024 A 
ATOM     16  C   LIG    1       24.833 -20.959   5.728  0.00  0.00    +0.038 A 
ENDROOT
BRANCH   1  17
ATOM     17  C   LIG    1       25.694 -19.777   3.720  0.00  0.00    +0.112 C 
BRANCH  17  18
ATOM     18  C   LIG    1       24.988 -18.417   3.610  0.00  0.00    +0.035 C 
BRANCH  18  19
ATOM     19  C   LIG    1       23.504 -18.579   3.250  0.00  0.00    +0.085 C 
BRANCH  19  21
ATOM     20  C   LIG    1       22.609 -16.723   4.506  0.00  0.00    +0.104 C 
ATOM     21  N   LIG    1       22.574 -18.176   4.320  0.00  0.00    -0.308 NA
ATOM     22  C   LIG    1       21.201 -18.605   4.050  0.00  0.00    +0.104 C 
ENDBRANCH  19  21
ENDBRANCH  18  19
ENDBRANCH  17  18
ENDBRANCH   1  17
TORSDOF 4
ENDMDL
MODEL 7
REMARK VINA RESULT:      -5.6      9.480     11.625
REMARK  Name = *****
REMARK                            x       y       z     vdW  Elec       q    Type
REMARK                         _______ _______ _______ _____ _____    ______ ____
ROOT
ATOM      1  N   LIG    1       24.821 -28.954  11.665  0.00  0.00    -0.299 N 
ATOM      2  C   LIG    1       25.277 -27.930  12.531  0.00  0.00    +0.038 A 
ATOM      3  C   LIG    1       24.387 -27.351  13.461  0.00  0.00    -0.016 A 
ATOM      4  C   LIG    1       24.865 -26.379  14.379  0.00  0.00    +0.006 A 
ATOM      5  C   LIG    1       26.185 -25.955  14.382  0.00  0.00    +0.000 A 
ATOM      6  C   LIG    1       27.054 -26.479  13.442  0.00  0.00    +0.002 A 
ATOM      7  C   LIG    1       22.901 -27.739  13.484  0.00  0.00    +0.019 C 
ATOM      8  C   LIG    1       22.541 -28.248  14.905  0.00  0.00    +0.021 C 
ATOM      9  C   LIG    1       22.080 -26.464  13.156  0.00  0.00    +0.021 C 
ATOM     10  C   LIG    1       22.516 -28.830  12.474  0.00  0.00    -0.016 A 
ATOM     11  C   LIG    1       21.168 -29.265  12.400  0.00  0.00    +0.006 A 
ATOM     12  C   LIG    1       20.760 -30.254  11.517  0.00  0.00    +0.000 A 
ATOM     13  C   LIG    1       21.702 -30.849  10.696  0.00  0.00    +0.002 A 
ATOM     14  C   LIG    1       23.036 -30.436  10.762  0.00  0.00    +0.024 A 
ATOM     15  C   LIG    1       26.599 -27.442  12.534  0.00  0.00    +0.024 A 
ATOM     16  C   LIG    1       23.481 -29.413  11.626  0.00  0.00    +0.038 A 
ENDROOT
BRANCH   1  17
ATOM     17  C   LIG    1       25.817 -29.650  10.815  0.00  0.00    +0.112 C 
BRANCH  17  18
ATOM     18  C   LIG    1       26.025 -28.931   9.474  0.00  0.00    +0.035 C 
BRANCH  18  19
ATOM     19  C   LIG    1       25.556 -29.793   8.292  0.00  0.00    +0.085 C 
BRANCH  19  21
ATOM     20  C   LIG    1       25.275 -27.866   6.868  0.00  0.00    +0.104 C 
ATOM     21  N   LIG    1       24.653 -29.098   7.357  0.00  0.00    -0.308 NA
ATOM     22  C   LIG    1       24.275 -29.943   6.223  0.00  0.00    +0.104 C 
ENDBRANCH  19  21
ENDBRANCH  18  19
ENDBRANCH  17  18
ENDBRANCH   1  17
TORSDOF 4
ENDMDL
MODEL 8
REMARK VINA RESULT:      -5.5     10.049     12.664
REMARK  Name = *****
REMARK                            x       y       z     vdW  Elec       q    Type
REMARK                         _______ _______ _______ _____ _____    ______ ____
ROOT
ATOM      1  N   LIG    1       23.877 -29.746  11.530  0.00  0.00    -0.299 N 
ATOM      2  C   LIG    1       22.588 -29.833  12.112  0.00  0.00    +0.038 A 
ATOM      3  C   LIG    1       22.180 -28.870  13.060  0.00  0.00    -0.016 A 
ATOM      4  C   LIG    1       20.862 -28.916  13.585  0.00  0.00    +0.006 A 
ATOM      5  C   LIG    1       19.955 -29.897  13.214  0.00  0.00    +0.000 A 
ATOM      6  C   LIG    1       20.360 -30.875  12.324  0.00  0.00    +0.002 A 
ATOM      7  C   LIG    1       23.148 -27.783  13.551  0.00  0.00    +0.019 C 
ATOM      8  C   LIG    1       22.510 -26.393  13.286  0.00  0.00    +0.021 C 
ATOM      9  C   LIG    1       23.348 -27.990  15.076  0.00  0.00    +0.021 C 
ATOM     10  C   LIG    1       24.527 -27.812  12.878  0.00  0.00    -0.016 A 
ATOM     11  C   LIG    1       25.507 -26.858  13.256  0.00  0.00    +0.006 A 
ATOM     12  C   LIG    1       26.767 -26.825  12.678  0.00  0.00    +0.000 A 
ATOM     13  C   LIG    1       27.071 -27.740  11.685  0.00  0.00    +0.002 A 
ATOM     14  C   LIG    1       26.115 -28.682  11.296  0.00  0.00    +0.024 A 
ATOM     15  C   LIG    1       21.655 -30.841  11.794  0.00  0.00    +0.024 A 
ATOM     16  C   LIG    1       24.834 -28.764  11.883  0.00  0.00    +0.038 A 
ENDROOT
BRANCH   1  17
ATOM     17  C   LIG    1       24.212 -30.675  10.424  0.00  0.00    +0.112 C 
BRANCH  17  18
ATOM     18  C   LIG    1       23.547 -30.257   9.105  0.00  0.00    +0.035 C 
BRANCH  18  19
ATOM     19  C   LIG    1       24.588 -29.848   8.052  0.00  0.00    +0.085 C 
BRANCH  19  21
ATOM     20  C   LIG    1       24.252 -28.560   6.040  0.00  0.00    +0.104 C 
ATOM     21  N   LIG    1       24.088 -29.874   6.665  0.00  0.00    -0.308 NA
ATOM     22  C   LIG    1       24.760 -30.892   5.856  0.00  0.00    +0.104 C 
ENDBRANCH  19  21
ENDBRANCH  18  19
ENDBRANCH  17  18
ENDBRANCH   1  17
TORSDOF 4
ENDMDL
MODEL 9
REMARK VINA RESULT:      -5.4      8.541     11.197
REMARK  Name = *****
REMARK                            x       y       z     vdW  Elec       q    Type
REMARK                         _______ _______ _______ _____ _____    ______ ____
ROOT
ATOM      1  N   LIG    1       25.077 -30.211   7.559  0.00  0.00    -0.299 N 
ATOM      2  C   LIG    1       25.575 -29.846   8.834  0.00  0.00    +0.038 A 
ATOM      3  C   LIG    1       25.422 -30.728   9.925  0.00  0.00    -0.016 A 
ATOM      4  C   LIG    1       25.988 -30.393  11.183  0.00  0.00    +0.006 A 
ATOM      5  C   LIG    1       26.675 -29.207  11.390  0.00  0.00    +0.000 A 
ATOM      6  C   LIG    1       26.788 -28.312  10.341  0.00  0.00    +0.002 A 
ATOM      7  C   LIG    1       24.633 -32.038   9.781  0.00  0.00    +0.019 C 
ATOM      8  C   LIG    1       25.552 -33.220  10.189  0.00  0.00    +0.021 C 
ATOM      9  C   LIG    1       23.417 -31.960  10.741  0.00  0.00    +0.021 C 
ATOM     10  C   LIG    1       24.108 -32.308   8.364  0.00  0.00    -0.016 A 
ATOM     11  C   LIG    1       23.359 -33.486   8.112  0.00  0.00    +0.006 A 
ATOM     12  C   LIG    1       22.867 -33.792   6.852  0.00  0.00    +0.000 A 
ATOM     13  C   LIG    1       23.133 -32.930   5.802  0.00  0.00    +0.002 A 
ATOM     14  C   LIG    1       23.876 -31.768   6.033  0.00  0.00    +0.024 A 
ATOM     15  C   LIG    1       26.239 -28.630   9.093  0.00  0.00    +0.024 A 
ATOM     16  C   LIG    1       24.366 -31.410   7.307  0.00  0.00    +0.038 A 
ENDROOT
BRANCH   1  17
ATOM     17  C   LIG    1       25.394 -29.337   6.405  0.00  0.00    +0.112 C 
BRANCH  17  18
ATOM     18  C   LIG    1       24.289 -28.301   6.151  0.00  0.00    +0.035 C 
BRANCH  18  19
ATOM     19  C   LIG    1       24.751 -26.882   6.516  0.00  0.00    +0.085 C 
BRANCH  19  21
ATOM     20  C   LIG    1       23.720 -24.701   6.504  0.00  0.00    +0.104 C 
ATOM     21  N   LIG    1       24.168 -25.822   5.674  0.00  0.00    -0.308 NA
ATOM     22  C   LIG    1       25.110 -25.340   4.662  0.00  0.00    +0.104 C 
ENDBRANCH  19  21
ENDBRANCH  18  19
ENDBRANCH  17  18
ENDBRANCH   1  17
TORSDOF 4
ENDMDL
