MODEL 1
REMARK VINA RESULT:       0.8      0.000      0.000
REMARK  Name = *****
REMARK                            x       y       z     vdW  Elec       q    Type
REMARK                         _______ _______ _______ _____ _____    ______ ____
ROOT
ATOM      1  C   LIG    1       23.235 -14.980   4.644  0.00  0.00    -0.017 C 
ATOM      2  C   LIG    1       24.322 -15.041   3.846  0.00  0.00    -0.013 C 
ATOM      3  C   LIG    1       25.208 -16.233   3.778  0.00  0.00    -0.003 A 
ATOM      4  C   LIG    1       26.596 -16.050   3.933  0.00  0.00    +0.021 A 
ATOM      5  C   LIG    1       27.456 -17.156   3.885  0.00  0.00    +0.017 A 
ATOM      6  C   LIG    1       26.946 -18.432   3.639  0.00  0.00    +0.021 A 
ATOM      7  C   LIG    1       25.580 -18.600   3.425  0.00  0.00    +0.042 A 
ATOM      8 CL   LIG    1       24.957 -20.167   3.079  0.00  0.00    -0.084 Cl
ATOM      9  S   LIG    1       27.317 -14.420   4.145  0.00  0.00    -0.088 S 
ATOM     10  C   LIG    1       26.118 -13.416   3.261  0.00  0.00    +0.021 A 
ATOM     11  C   LIG    1       26.558 -12.242   2.638  0.00  0.00    +0.015 A 
ATOM     12  C   LIG    1       25.663 -11.449   1.917  0.00  0.00    +0.001 A 
ATOM     13  C   LIG    1       24.325 -11.825   1.813  0.00  0.00    +0.001 A 
ATOM     14  C   LIG    1       23.874 -12.987   2.440  0.00  0.00    +0.009 A 
ATOM     15  C   LIG    1       24.712 -17.510   3.484  0.00  0.00    +0.029 A 
ATOM     16  C   LIG    1       24.760 -13.783   3.180  0.00  0.00    -0.004 A 
ENDROOT
BRANCH   1  17
ATOM     17  C   LIG    1       22.683 -16.028   5.583  0.00  0.00    +0.043 C 
BRANCH  17  18
ATOM     18  C   LIG    1       21.556 -16.836   4.915  0.00  0.00    +0.088 C 
BRANCH  18  20
ATOM     19  C   LIG    1       22.376 -19.064   5.295  0.00  0.00    +0.104 C 
ATOM     20  N   LIG    1       22.004 -18.086   4.268  0.00  0.00    -0.308 NA
ATOM     21  C   LIG    1       20.975 -18.658   3.395  0.00  0.00    +0.104 C 
ENDBRANCH  18  20
ENDBRANCH  17  18
ENDBRANCH   1  17
TORSDOF 3
ENDMDL
MODEL 2
REMARK VINA RESULT:       0.9      2.632      5.633
REMARK  Name = *****
REMARK                            x       y       z     vdW  Elec       q    Type
REMARK                         _______ _______ _______ _____ _____    ______ ____
ROOT
ATOM      1  C   LIG    1       25.415 -19.879   3.569  0.00  0.00    -0.017 C 
ATOM      2  C   LIG    1       26.115 -19.010   4.329  0.00  0.00    -0.013 C 
ATOM      3  C   LIG    1       26.081 -17.540   4.113  0.00  0.00    -0.003 A 
ATOM      4  C   LIG    1       27.303 -16.847   4.003  0.00  0.00    +0.021 A 
ATOM      5  C   LIG    1       27.304 -15.462   3.788  0.00  0.00    +0.017 A 
ATOM      6  C   LIG    1       26.099 -14.760   3.728  0.00  0.00    +0.021 A 
ATOM      7  C   LIG    1       24.895 -15.440   3.899  0.00  0.00    +0.042 A 
ATOM      8 CL   LIG    1       23.412 -14.567   3.868  0.00  0.00    -0.084 Cl
ATOM      9  S   LIG    1       28.882 -17.683   4.179  0.00  0.00    -0.088 S 
ATOM     10  C   LIG    1       28.419 -19.027   5.276  0.00  0.00    +0.021 A 
ATOM     11  C   LIG    1       29.383 -19.534   6.157  0.00  0.00    +0.015 A 
ATOM     12  C   LIG    1       29.055 -20.560   7.046  0.00  0.00    +0.001 A 
ATOM     13  C   LIG    1       27.764 -21.083   7.061  0.00  0.00    +0.001 A 
ATOM     14  C   LIG    1       26.798 -20.593   6.179  0.00  0.00    +0.009 A 
ATOM     15  C   LIG    1       24.880 -16.819   4.100  0.00  0.00    +0.029 A 
ATOM     16  C   LIG    1       27.121 -19.575   5.271  0.00  0.00    -0.004 A 
ENDROOT
BRANCH   1  17
ATOM     17  C   LIG    1       24.484 -19.597   2.412  0.00  0.00    +0.043 C 
BRANCH  17  18
ATOM     18  C   LIG    1       23.011 -19.716   2.839  0.00  0.00    +0.088 C 
BRANCH  18  20
ATOM     19  C   LIG    1       21.758 -18.398   4.411  0.00  0.00    +0.104 C 
ATOM     20  N   LIG    1       22.768 -19.451   4.271  0.00  0.00    -0.308 NA
ATOM     21  C   LIG    1       22.330 -20.650   4.990  0.00  0.00    +0.104 C 
ENDBRANCH  18  20
ENDBRANCH  17  18
ENDBRANCH   1  17
TORSDOF 3
ENDMDL
MODEL 3
REMARK VINA RESULT:       1.3      3.012      5.381
REMARK  Name = *****
REMARK                            x       y       z     vdW  Elec       q    Type
REMARK                         _______ _______ _______ _____ _____    ______ ____
ROOT
ATOM      1  C   LIG    1       23.477 -13.915   3.240  0.00  0.00    -0.017 C 
ATOM      2  C   LIG    1       24.218 -14.866   3.847  0.00  0.00    -0.013 C 
ATOM      3  C   LIG    1       25.689 -14.749   4.030  0.00  0.00    -0.003 A 
ATOM      4  C   LIG    1       26.506 -15.820   3.617  0.00  0.00    +0.021 A 
ATOM      5  C   LIG    1       27.897 -15.735   3.766  0.00  0.00    +0.017 A 
ATOM      6  C   LIG    1       28.472 -14.612   4.364  0.00  0.00    +0.021 A 
ATOM      7  C   LIG    1       27.656 -13.582   4.828  0.00  0.00    +0.042 A 
ATOM      8 CL   LIG    1       28.361 -12.218   5.604  0.00  0.00    -0.084 Cl
ATOM      9  S   LIG    1       25.813 -17.331   2.940  0.00  0.00    -0.088 S 
ATOM     10  C   LIG    1       24.217 -17.356   3.765  0.00  0.00    +0.021 A 
ATOM     11  C   LIG    1       23.624 -18.595   4.037  0.00  0.00    +0.015 A 
ATOM     12  C   LIG    1       22.398 -18.658   4.701  0.00  0.00    +0.001 A 
ATOM     13  C   LIG    1       21.759 -17.486   5.100  0.00  0.00    +0.001 A 
ATOM     14  C   LIG    1       22.336 -16.245   4.824  0.00  0.00    +0.009 A 
ATOM     15  C   LIG    1       26.272 -13.649   4.673  0.00  0.00    +0.029 A 
ATOM     16  C   LIG    1       23.560 -16.169   4.142  0.00  0.00    -0.004 A 
ENDROOT
BRANCH   1  17
ATOM     17  C   LIG    1       23.918 -12.592   2.656  0.00  0.00    +0.043 C 
BRANCH  17  18
ATOM     18  C   LIG    1       23.795 -11.457   3.688  0.00  0.00    +0.088 C 
BRANCH  18  20
ATOM     19  C   LIG    1       24.787 -11.447   5.878  0.00  0.00    +0.104 C 
ATOM     20  N   LIG    1       23.648 -11.916   5.084  0.00  0.00    -0.308 NA
ATOM     21  C   LIG    1       22.399 -11.449   5.692  0.00  0.00    +0.104 C 
ENDBRANCH  18  20
ENDBRANCH  17  18
ENDBRANCH   1  17
TORSDOF 3
ENDMDL
MODEL 4
REMARK VINA RESULT:       1.6      3.111      6.352
REMARK  Name = *****
REMARK                            x       y       z     vdW  Elec       q    Type
REMARK                         _______ _______ _______ _____ _____    ______ ____
ROOT
ATOM      1  C   LIG    1       27.019 -16.589   4.056  0.00  0.00    -0.017 C 
ATOM      2  C   LIG    1       25.735 -16.475   3.658  0.00  0.00    -0.013 C 
ATOM      3  C   LIG    1       25.032 -15.168   3.564  0.00  0.00    -0.003 A 
ATOM      4  C   LIG    1       23.779 -15.030   4.195  0.00  0.00    +0.021 A 
ATOM      5  C   LIG    1       23.098 -13.807   4.134  0.00  0.00    +0.017 A 
ATOM      6  C   LIG    1       23.634 -12.739   3.412  0.00  0.00    +0.021 A 
ATOM      7  C   LIG    1       24.843 -12.900   2.738  0.00  0.00    +0.042 A 
ATOM      8 CL   LIG    1       25.482 -11.597   1.812  0.00  0.00    -0.084 Cl
ATOM      9  S   LIG    1       22.994 -16.401   5.046  0.00  0.00    -0.088 S 
ATOM     10  C   LIG    1       23.669 -17.788   4.124  0.00  0.00    +0.021 A 
ATOM     11  C   LIG    1       22.898 -18.950   4.006  0.00  0.00    +0.015 A 
ATOM     12  C   LIG    1       23.375 -20.039   3.273  0.00  0.00    +0.001 A 
ATOM     13  C   LIG    1       24.621 -19.972   2.654  0.00  0.00    +0.001 A 
ATOM     14  C   LIG    1       25.402 -18.822   2.775  0.00  0.00    +0.009 A 
ATOM     15  C   LIG    1       25.537 -14.107   2.802  0.00  0.00    +0.029 A 
ATOM     16  C   LIG    1       24.941 -17.728   3.522  0.00  0.00    -0.004 A 
ENDROOT
BRANCH   1  17
ATOM     17  C   LIG    1       27.992 -15.504   4.458  0.00  0.00    +0.043 C 
BRANCH  17  18
ATOM     18  C   LIG    1       27.949 -14.323   3.473  0.00  0.00    +0.088 C 
BRANCH  18  20
ATOM     19  C   LIG    1       27.477 -13.116   5.497  0.00  0.00    +0.104 C 
ATOM     20  N   LIG    1       27.948 -12.994   4.115  0.00  0.00    -0.308 NA
ATOM     21  C   LIG    1       29.273 -12.370   4.101  0.00  0.00    +0.104 C 
ENDBRANCH  18  20
ENDBRANCH  17  18
ENDBRANCH   1  17
TORSDOF 3
ENDMDL
MODEL 5
REMARK VINA RESULT:       1.8      3.001      6.223
REMARK  Name = *****
REMARK                            x       y       z     vdW  Elec       q    Type
REMARK                         _______ _______ _______ _____ _____    ______ ____
ROOT
ATOM      1  C   LIG    1       26.693 -18.049   4.076  0.00  0.00    -0.017 C 
ATOM      2  C   LIG    1       25.450 -17.656   3.725  0.00  0.00    -0.013 C 
ATOM      3  C   LIG    1       25.044 -16.228   3.654  0.00  0.00    -0.003 A 
ATOM      4  C   LIG    1       23.874 -15.826   4.329  0.00  0.00    +0.021 A 
ATOM      5  C   LIG    1       23.473 -14.484   4.291  0.00  0.00    +0.017 A 
ATOM      6  C   LIG    1       24.201 -13.553   3.548  0.00  0.00    +0.021 A 
ATOM      7  C   LIG    1       25.321 -13.967   2.831  0.00  0.00    +0.042 A 
ATOM      8 CL   LIG    1       26.195 -12.829   1.881  0.00  0.00    -0.084 Cl
ATOM      9  S   LIG    1       22.842 -16.999   5.212  0.00  0.00    -0.088 S 
ATOM     10  C   LIG    1       23.166 -18.493   4.268  0.00  0.00    +0.021 A 
ATOM     11  C   LIG    1       22.159 -19.461   4.180  0.00  0.00    +0.015 A 
ATOM     12  C   LIG    1       22.362 -20.623   3.433  0.00  0.00    +0.001 A 
ATOM     13  C   LIG    1       23.570 -20.824   2.769  0.00  0.00    +0.001 A 
ATOM     14  C   LIG    1       24.586 -19.870   2.859  0.00  0.00    +0.009 A 
ATOM     15  C   LIG    1       25.740 -15.296   2.873  0.00  0.00    +0.029 A 
ATOM     16  C   LIG    1       24.399 -18.707   3.620  0.00  0.00    -0.004 A 
ENDROOT
BRANCH   1  17
ATOM     17  C   LIG    1       27.891 -17.203   4.442  0.00  0.00    +0.043 C 
BRANCH  17  18
ATOM     18  C   LIG    1       28.961 -18.035   5.169  0.00  0.00    +0.088 C 
BRANCH  18  20
ATOM     19  C   LIG    1       27.676 -20.047   5.454  0.00  0.00    +0.104 C 
ATOM     20  N   LIG    1       28.421 -18.996   6.152  0.00  0.00    -0.308 NA
ATOM     21  C   LIG    1       29.475 -19.602   6.971  0.00  0.00    +0.104 C 
ENDBRANCH  18  20
ENDBRANCH  17  18
ENDBRANCH   1  17
TORSDOF 3
ENDMDL
MODEL 6
REMARK VINA RESULT:       2.3      2.806      5.617
REMARK  Name = *****
REMARK                            x       y       z     vdW  Elec       q    Type
REMARK                         _______ _______ _______ _____ _____    ______ ____
ROOT
ATOM      1  C   LIG    1       22.944 -15.126   3.409  0.00  0.00    -0.017 C 
ATOM      2  C   LIG    1       23.893 -15.921   3.948  0.00  0.00    -0.013 C 
ATOM      3  C   LIG    1       25.304 -15.487   4.126  0.00  0.00    -0.003 A 
ATOM      4  C   LIG    1       26.331 -16.320   3.639  0.00  0.00    +0.021 A 
ATOM      5  C   LIG    1       27.670 -15.932   3.782  0.00  0.00    +0.017 A 
ATOM      6  C   LIG    1       27.992 -14.747   4.446  0.00  0.00    +0.021 A 
ATOM      7  C   LIG    1       26.976 -13.958   4.981  0.00  0.00    +0.042 A 
ATOM      8 CL   LIG    1       27.375 -12.519   5.836  0.00  0.00    -0.084 Cl
ATOM      9  S   LIG    1       25.980 -17.904   2.873  0.00  0.00    -0.088 S 
ATOM     10  C   LIG    1       24.449 -18.338   3.707  0.00  0.00    +0.021 A 
ATOM     11  C   LIG    1       24.155 -19.692   3.904  0.00  0.00    +0.015 A 
ATOM     12  C   LIG    1       22.989 -20.070   4.573  0.00  0.00    +0.001 A 
ATOM     13  C   LIG    1       22.113 -19.098   5.050  0.00  0.00    +0.001 A 
ATOM     14  C   LIG    1       22.391 -17.745   4.850  0.00  0.00    +0.009 A 
ATOM     15  C   LIG    1       25.639 -14.325   4.833  0.00  0.00    +0.029 A 
ATOM     16  C   LIG    1       23.550 -17.354   4.164  0.00  0.00    -0.004 A 
ENDROOT
BRANCH   1  17
ATOM     17  C   LIG    1       23.065 -13.706   2.907  0.00  0.00    +0.043 C 
BRANCH  17  18
ATOM     18  C   LIG    1       24.172 -13.581   1.846  0.00  0.00    +0.088 C 
BRANCH  18  20
ATOM     19  C   LIG    1       24.358 -11.447   2.937  0.00  0.00    +0.104 C 
ATOM     20  N   LIG    1       24.906 -12.301   1.879  0.00  0.00    -0.308 NA
ATOM     21  C   LIG    1       26.343 -12.490   2.095  0.00  0.00    +0.104 C 
ENDBRANCH  18  20
ENDBRANCH  17  18
ENDBRANCH   1  17
TORSDOF 3
ENDMDL
