MODEL 1
REMARK VINA RESULT:      -5.4      0.000      0.000
REMARK  Name = *****
REMARK                            x       y       z     vdW  Elec       q    Type
REMARK                         _______ _______ _______ _____ _____    ______ ____
ROOT
ATOM      1  C   LIG    1       21.982 -18.043   4.589  0.00  0.00    +0.003 C 
ATOM      2  C   LIG    1       22.394 -16.785   4.819  0.00  0.00    -0.050 C 
ATOM      3  C   LIG    1       21.713 -15.983   5.900  0.00  0.00    +0.044 C 
ENDROOT
BRANCH   1   5
ATOM      4  C   LIG    1       23.470 -19.855   3.745  0.00  0.00    +0.003 C 
ATOM      5  C   LIG    1       22.440 -19.000   3.606  0.00  0.00    +0.001 C 
BRANCH   4   7
ATOM      6  C   LIG    1       23.703 -20.506   6.156  0.00  0.00    +0.044 C 
ATOM      7  C   LIG    1       24.376 -20.065   4.879  0.00  0.00    -0.044 C 
ATOM      8  C   LIG    1       25.719 -19.965   4.771  0.00  0.00    +0.094 C 
BRANCH   8   9
ATOM      9  C   LIG    1       26.696 -20.204   5.834  0.00  0.00    +0.330 C 
ATOM     10  O   LIG    1       26.497 -20.379   7.032  0.00  0.00    -0.246 OA
BRANCH   9  11
ATOM     11  O   LIG    1       27.932 -20.244   5.316  0.00  0.00    -0.477 OA
ATOM     12  H   LIG    1       27.923 -21.021   4.723  0.00  0.00    +0.295 HD
ENDBRANCH   9  11
ENDBRANCH   8   9
ENDBRANCH   4   7
ENDBRANCH   1   5
BRANCH   2  13
ATOM     13  C   LIG    1       23.434 -16.122   4.058  0.00  0.00    +0.003 C 
ATOM     14  C   LIG    1       24.169 -15.109   4.545  0.00  0.00    +0.004 C 
BRANCH  14  15
ATOM     15  C   LIG    1       25.251 -14.440   3.827  0.00  0.00    -0.043 C 
ATOM     16  C   LIG    1       25.044 -12.923   3.567  0.00  0.00    -0.010 C 
ATOM     17  C   LIG    1       23.707 -12.678   2.827  0.00  0.00    +0.016 C 
ATOM     18  C   LIG    1       25.040 -12.102   4.878  0.00  0.00    +0.016 C 
ATOM     19  C   LIG    1       26.157 -12.347   2.647  0.00  0.00    +0.011 C 
ATOM     20  C   LIG    1       27.525 -12.897   3.009  0.00  0.00    +0.005 C 
ATOM     21  C   LIG    1       27.530 -14.398   2.769  0.00  0.00    +0.031 C 
ATOM     22  C   LIG    1       26.356 -15.109   3.405  0.00  0.00    -0.069 C 
ATOM     23  C   LIG    1       26.577 -16.601   3.501  0.00  0.00    +0.039 C 
ENDBRANCH  14  15
ENDBRANCH   2  13
TORSDOF 6
ENDMDL
MODEL 2
REMARK VINA RESULT:      -4.9      0.977      2.073
REMARK  Name = *****
REMARK                            x       y       z     vdW  Elec       q    Type
REMARK                         _______ _______ _______ _____ _____    ______ ____
ROOT
ATOM      1  C   LIG    1       22.262 -17.568   4.509  0.00  0.00    +0.003 C 
ATOM      2  C   LIG    1       22.672 -16.331   4.837  0.00  0.00    -0.050 C 
ATOM      3  C   LIG    1       21.935 -15.585   5.922  0.00  0.00    +0.044 C 
ENDROOT
BRANCH   1   5
ATOM      4  C   LIG    1       23.613 -19.501   3.703  0.00  0.00    +0.003 C 
ATOM      5  C   LIG    1       22.770 -18.471   3.500  0.00  0.00    +0.001 C 
BRANCH   4   7
ATOM      6  C   LIG    1       23.242 -20.428   6.003  0.00  0.00    +0.044 C 
ATOM      7  C   LIG    1       24.223 -19.992   4.942  0.00  0.00    -0.044 C 
ATOM      8  C   LIG    1       25.558 -20.132   5.095  0.00  0.00    +0.094 C 
BRANCH   8   9
ATOM      9  C   LIG    1       26.246 -20.657   6.274  0.00  0.00    +0.330 C 
ATOM     10  O   LIG    1       25.887 -21.548   7.037  0.00  0.00    -0.246 OA
BRANCH   9  11
ATOM     11  O   LIG    1       27.422 -20.031   6.433  0.00  0.00    -0.477 OA
ATOM     12  H   LIG    1       27.928 -20.257   5.627  0.00  0.00    +0.295 HD
ENDBRANCH   9  11
ENDBRANCH   8   9
ENDBRANCH   4   7
ENDBRANCH   1   5
BRANCH   2  13
ATOM     13  C   LIG    1       23.763 -15.639   4.181  0.00  0.00    +0.003 C 
ATOM     14  C   LIG    1       24.249 -14.462   4.607  0.00  0.00    +0.004 C 
BRANCH  14  15
ATOM     15  C   LIG    1       25.371 -13.751   4.000  0.00  0.00    -0.043 C 
ATOM     16  C   LIG    1       26.764 -14.046   4.621  0.00  0.00    -0.010 C 
ATOM     17  C   LIG    1       26.745 -13.773   6.144  0.00  0.00    +0.016 C 
ATOM     18  C   LIG    1       27.210 -15.508   4.387  0.00  0.00    +0.016 C 
ATOM     19  C   LIG    1       27.858 -13.112   4.030  0.00  0.00    +0.011 C 
ATOM     20  C   LIG    1       27.695 -12.934   2.532  0.00  0.00    +0.005 C 
ATOM     21  C   LIG    1       26.371 -12.236   2.261  0.00  0.00    +0.031 C 
ATOM     22  C   LIG    1       25.201 -12.882   2.970  0.00  0.00    -0.069 C 
ATOM     23  C   LIG    1       23.874 -12.442   2.395  0.00  0.00    +0.039 C 
ENDBRANCH  14  15
ENDBRANCH   2  13
TORSDOF 6
ENDMDL
MODEL 3
REMARK VINA RESULT:      -3.1      2.636      6.370
REMARK  Name = *****
REMARK                            x       y       z     vdW  Elec       q    Type
REMARK                         _______ _______ _______ _____ _____    ______ ____
ROOT
ATOM      1  C   LIG    1       23.205 -14.083   3.932  0.00  0.00    +0.003 C 
ATOM      2  C   LIG    1       23.030 -15.203   4.653  0.00  0.00    -0.050 C 
ATOM      3  C   LIG    1       22.228 -15.129   5.929  0.00  0.00    +0.044 C 
ENDROOT
BRANCH   1   5
ATOM      4  C   LIG    1       25.283 -13.800   2.586  0.00  0.00    +0.003 C 
ATOM      5  C   LIG    1       23.945 -13.881   2.705  0.00  0.00    +0.001 C 
BRANCH   4   7
ATOM      6  C   LIG    1       27.202 -15.128   3.504  0.00  0.00    +0.044 C 
ATOM      7  C   LIG    1       26.330 -13.901   3.607  0.00  0.00    -0.044 C 
ATOM      8  C   LIG    1       26.561 -12.928   4.516  0.00  0.00    +0.094 C 
BRANCH   8   9
ATOM      9  C   LIG    1       27.611 -12.923   5.535  0.00  0.00    +0.330 C 
ATOM     10  O   LIG    1       28.724 -12.410   5.485  0.00  0.00    -0.246 OA
BRANCH   9  11
ATOM     11  O   LIG    1       27.186 -13.568   6.631  0.00  0.00    -0.477 OA
ATOM     12  H   LIG    1       26.380 -14.038   6.339  0.00  0.00    +0.295 HD
ENDBRANCH   9  11
ENDBRANCH   8   9
ENDBRANCH   4   7
ENDBRANCH   1   5
BRANCH   2  13
ATOM     13  C   LIG    1       23.604 -16.488   4.306  0.00  0.00    +0.003 C 
ATOM     14  C   LIG    1       23.092 -17.658   4.720  0.00  0.00    +0.004 C 
BRANCH  14  15
ATOM     15  C   LIG    1       23.615 -18.974   4.361  0.00  0.00    -0.043 C 
ATOM     16  C   LIG    1       22.858 -20.184   4.974  0.00  0.00    -0.010 C 
ATOM     17  C   LIG    1       22.793 -20.058   6.515  0.00  0.00    +0.016 C 
ATOM     18  C   LIG    1       21.416 -20.306   4.428  0.00  0.00    +0.016 C 
ATOM     19  C   LIG    1       23.594 -21.521   4.682  0.00  0.00    +0.011 C 
ATOM     20  C   LIG    1       24.125 -21.572   3.261  0.00  0.00    +0.005 C 
ATOM     21  C   LIG    1       25.171 -20.482   3.087  0.00  0.00    +0.031 C 
ATOM     22  C   LIG    1       24.700 -19.123   3.557  0.00  0.00    -0.069 C 
ATOM     23  C   LIG    1       25.569 -18.005   3.027  0.00  0.00    +0.039 C 
ENDBRANCH  14  15
ENDBRANCH   2  13
TORSDOF 6
ENDMDL
