MODEL 1
REMARK VINA RESULT:      -5.2      0.000      0.000
REMARK  Name = *****
REMARK                            x       y       z     vdW  Elec       q    Type
REMARK                         _______ _______ _______ _____ _____    ______ ____
ROOT
ATOM      1  C   LIG    1       23.615 -21.273   6.471  0.00  0.00    +0.146 C 
ENDROOT
BRANCH   1   2
ATOM      2  C   LIG    1       25.019 -20.862   6.082  0.00  0.00    +0.032 C 
ATOM      3  C   LIG    1       26.075 -20.554   6.843  0.00  0.00    +0.079 C 
ATOM      4 CL   LIG    1       26.138 -20.600   8.552  0.00  0.00    -0.092 Cl
ENDBRANCH   1   2
BRANCH   1   6
ATOM      5  C   LIG    1       23.560 -23.891   6.748  0.00  0.00    +0.007 C 
ATOM      6  C   LIG    1       23.585 -22.708   6.623  0.00  0.00    -0.067 C 
ENDBRANCH   1   6
BRANCH   1   7
ATOM      7  C   LIG    1       22.578 -20.858   5.401  0.00  0.00    +0.049 C 
ATOM      8  C   LIG    1       22.534 -19.362   5.102  0.00  0.00    +0.008 C 
ENDBRANCH   1   7
BRANCH   1   9
ATOM      9  O   LIG    1       23.222 -20.670   7.696  0.00  0.00    -0.373 OA
ATOM     10  H   LIG    1       23.603 -19.775   7.698  0.00  0.00    +0.212 HD
ENDBRANCH   1   9
TORSDOF 4
ENDMDL
MODEL 2
REMARK VINA RESULT:      -5.2      1.582      2.938
REMARK  Name = *****
REMARK                            x       y       z     vdW  Elec       q    Type
REMARK                         _______ _______ _______ _____ _____    ______ ____
ROOT
ATOM      1  C   LIG    1       23.897 -21.246   5.861  0.00  0.00    +0.146 C 
ENDROOT
BRANCH   1   2
ATOM      2  C   LIG    1       25.237 -20.689   6.292  0.00  0.00    +0.032 C 
ATOM      3  C   LIG    1       26.290 -21.298   6.848  0.00  0.00    +0.079 C 
ATOM      4 CL   LIG    1       26.431 -22.968   7.186  0.00  0.00    -0.092 Cl
ENDBRANCH   1   2
BRANCH   1   6
ATOM      5  C   LIG    1       22.412 -19.256   4.980  0.00  0.00    +0.007 C 
ATOM      6  C   LIG    1       23.083 -20.155   5.378  0.00  0.00    -0.067 C 
ENDBRANCH   1   6
BRANCH   1   7
ATOM      7  C   LIG    1       23.162 -21.942   7.031  0.00  0.00    +0.049 C 
ATOM      8  C   LIG    1       22.812 -23.406   6.783  0.00  0.00    +0.008 C 
ENDBRANCH   1   7
BRANCH   1   9
ATOM      9  O   LIG    1       24.046 -22.205   4.825  0.00  0.00    -0.373 OA
ATOM     10  H   LIG    1       24.981 -22.180   4.558  0.00  0.00    +0.212 HD
ENDBRANCH   1   9
TORSDOF 4
ENDMDL
MODEL 3
REMARK VINA RESULT:      -5.2      2.115      3.080
REMARK  Name = *****
REMARK                            x       y       z     vdW  Elec       q    Type
REMARK                         _______ _______ _______ _____ _____    ______ ____
ROOT
ATOM      1  C   LIG    1       23.990 -20.554   4.829  0.00  0.00    +0.146 C 
ENDROOT
BRANCH   1   2
ATOM      2  C   LIG    1       23.170 -20.706   6.092  0.00  0.00    +0.032 C 
ATOM      3  C   LIG    1       23.130 -21.701   6.986  0.00  0.00    +0.079 C 
ATOM      4 CL   LIG    1       24.090 -23.116   6.967  0.00  0.00    -0.092 Cl
ENDBRANCH   1   2
BRANCH   1   6
ATOM      5  C   LIG    1       26.516 -20.247   5.508  0.00  0.00    +0.007 C 
ATOM      6  C   LIG    1       25.375 -20.385   5.201  0.00  0.00    -0.067 C 
ENDBRANCH   1   6
BRANCH   1   7
ATOM      7  C   LIG    1       23.540 -19.330   3.997  0.00  0.00    +0.049 C 
ATOM      8  C   LIG    1       22.292 -18.626   4.523  0.00  0.00    +0.008 C 
ENDBRANCH   1   7
BRANCH   1   9
ATOM      9  O   LIG    1       23.871 -21.698   3.996  0.00  0.00    -0.373 OA
ATOM     10  H   LIG    1       23.033 -21.601   3.512  0.00  0.00    +0.212 HD
ENDBRANCH   1   9
TORSDOF 4
ENDMDL
MODEL 4
REMARK VINA RESULT:      -5.1      1.651      3.210
REMARK  Name = *****
REMARK                            x       y       z     vdW  Elec       q    Type
REMARK                         _______ _______ _______ _____ _____    ______ ____
ROOT
ATOM      1  C   LIG    1       24.157 -21.336   6.570  0.00  0.00    +0.146 C 
ENDROOT
BRANCH   1   2
ATOM      2  C   LIG    1       24.362 -22.514   5.642  0.00  0.00    +0.032 C 
ATOM      3  C   LIG    1       25.037 -23.654   5.823  0.00  0.00    +0.079 C 
ATOM      4 CL   LIG    1       25.845 -24.134   7.252  0.00  0.00    -0.092 Cl
ENDBRANCH   1   2
BRANCH   1   6
ATOM      5  C   LIG    1       22.587 -19.593   5.373  0.00  0.00    +0.007 C 
ATOM      6  C   LIG    1       23.296 -20.381   5.914  0.00  0.00    -0.067 C 
ENDBRANCH   1   6
BRANCH   1   7
ATOM      7  C   LIG    1       25.495 -20.646   6.926  0.00  0.00    +0.049 C 
ATOM      8  C   LIG    1       25.848 -20.666   8.410  0.00  0.00    +0.008 C 
ENDBRANCH   1   7
BRANCH   1   9
ATOM      9  O   LIG    1       23.553 -21.740   7.790  0.00  0.00    -0.373 OA
ATOM     10  H   LIG    1       24.280 -21.953   8.401  0.00  0.00    +0.212 HD
ENDBRANCH   1   9
TORSDOF 4
ENDMDL
MODEL 5
REMARK VINA RESULT:      -5.1      1.620      2.995
REMARK  Name = *****
REMARK                            x       y       z     vdW  Elec       q    Type
REMARK                         _______ _______ _______ _____ _____    ______ ____
ROOT
ATOM      1  C   LIG    1       24.097 -21.777   6.327  0.00  0.00    +0.146 C 
ENDROOT
BRANCH   1   2
ATOM      2  C   LIG    1       25.006 -21.227   7.405  0.00  0.00    +0.032 C 
ATOM      3  C   LIG    1       26.169 -20.573   7.308  0.00  0.00    +0.079 C 
ATOM      4 CL   LIG    1       26.952 -20.112   5.859  0.00  0.00    -0.092 Cl
ENDBRANCH   1   2
BRANCH   1   6
ATOM      5  C   LIG    1       22.689 -19.788   5.327  0.00  0.00    +0.007 C 
ATOM      6  C   LIG    1       23.325 -20.687   5.779  0.00  0.00    -0.067 C 
ENDBRANCH   1   6
BRANCH   1   7
ATOM      7  C   LIG    1       23.130 -22.848   6.884  0.00  0.00    +0.049 C 
ATOM      8  C   LIG    1       23.557 -24.290   6.624  0.00  0.00    +0.008 C 
ENDBRANCH   1   7
BRANCH   1   9
ATOM      9  O   LIG    1       24.844 -22.385   5.283  0.00  0.00    -0.373 OA
ATOM     10  H   LIG    1       25.090 -21.672   4.668  0.00  0.00    +0.212 HD
ENDBRANCH   1   9
TORSDOF 4
ENDMDL
MODEL 6
REMARK VINA RESULT:      -5.1      1.991      2.937
REMARK  Name = *****
REMARK                            x       y       z     vdW  Elec       q    Type
REMARK                         _______ _______ _______ _____ _____    ______ ____
ROOT
ATOM      1  C   LIG    1       24.331 -21.459   6.316  0.00  0.00    +0.146 C 
ENDROOT
BRANCH   1   2
ATOM      2  C   LIG    1       23.658 -22.776   6.641  0.00  0.00    +0.032 C 
ATOM      3  C   LIG    1       24.173 -24.003   6.776  0.00  0.00    +0.079 C 
ATOM      4 CL   LIG    1       25.827 -24.422   6.669  0.00  0.00    -0.092 Cl
ENDBRANCH   1   2
BRANCH   1   6
ATOM      5  C   LIG    1       25.790 -20.737   8.386  0.00  0.00    +0.007 C 
ATOM      6  C   LIG    1       25.131 -21.063   7.451  0.00  0.00    -0.067 C 
ENDBRANCH   1   6
BRANCH   1   7
ATOM      7  C   LIG    1       23.299 -20.347   6.015  0.00  0.00    +0.049 C 
ATOM      8  C   LIG    1       22.253 -20.714   4.966  0.00  0.00    +0.008 C 
ENDBRANCH   1   7
BRANCH   1   9
ATOM      9  O   LIG    1       25.171 -21.576   5.177  0.00  0.00    -0.373 OA
ATOM     10  H   LIG    1       25.984 -21.084   5.382  0.00  0.00    +0.212 HD
ENDBRANCH   1   9
TORSDOF 4
ENDMDL
MODEL 7
REMARK VINA RESULT:      -5.1      1.854      2.174
REMARK  Name = *****
REMARK                            x       y       z     vdW  Elec       q    Type
REMARK                         _______ _______ _______ _____ _____    ______ ____
ROOT
ATOM      1  C   LIG    1       25.199 -21.666   7.766  0.00  0.00    +0.146 C 
ENDROOT
BRANCH   1   2
ATOM      2  C   LIG    1       25.978 -20.663   6.942  0.00  0.00    +0.032 C 
ATOM      3  C   LIG    1       27.295 -20.441   6.864  0.00  0.00    +0.079 C 
ATOM      4 CL   LIG    1       28.518 -21.318   7.676  0.00  0.00    -0.092 Cl
ENDBRANCH   1   2
BRANCH   1   6
ATOM      5  C   LIG    1       25.821 -24.088   6.938  0.00  0.00    +0.007 C 
ATOM      6  C   LIG    1       25.540 -22.993   7.312  0.00  0.00    -0.067 C 
ENDBRANCH   1   6
BRANCH   1   7
ATOM      7  C   LIG    1       23.672 -21.462   7.623  0.00  0.00    +0.049 C 
ATOM      8  C   LIG    1       23.250 -20.632   6.414  0.00  0.00    +0.008 C 
ENDBRANCH   1   7
BRANCH   1   9
ATOM      9  O   LIG    1       25.513 -21.554   9.146  0.00  0.00    -0.373 OA
ATOM     10  H   LIG    1       25.538 -20.603   9.348  0.00  0.00    +0.212 HD
ENDBRANCH   1   9
TORSDOF 4
ENDMDL
MODEL 8
REMARK VINA RESULT:      -5.0      2.574      3.603
REMARK  Name = *****
REMARK                            x       y       z     vdW  Elec       q    Type
REMARK                         _______ _______ _______ _____ _____    ______ ____
ROOT
ATOM      1  C   LIG    1       25.057 -23.490   6.180  0.00  0.00    +0.146 C 
ENDROOT
BRANCH   1   2
ATOM      2  C   LIG    1       25.887 -23.270   7.426  0.00  0.00    +0.032 C 
ATOM      3  C   LIG    1       26.050 -22.176   8.178  0.00  0.00    +0.079 C 
ATOM      4 CL   LIG    1       25.278 -20.667   7.949  0.00  0.00    -0.092 Cl
ENDBRANCH   1   2
BRANCH   1   6
ATOM      5  C   LIG    1       22.510 -23.390   6.846  0.00  0.00    +0.007 C 
ATOM      6  C   LIG    1       23.661 -23.435   6.545  0.00  0.00    -0.067 C 
ENDBRANCH   1   6
BRANCH   1   7
ATOM      7  C   LIG    1       25.352 -24.861   5.528  0.00  0.00    +0.049 C 
ATOM      8  C   LIG    1       25.978 -25.891   6.465  0.00  0.00    +0.008 C 
ENDBRANCH   1   7
BRANCH   1   9
ATOM      9  O   LIG    1       25.318 -22.492   5.204  0.00  0.00    -0.373 OA
ATOM     10  H   LIG    1       25.285 -21.637   5.667  0.00  0.00    +0.212 HD
ENDBRANCH   1   9
TORSDOF 4
ENDMDL
MODEL 9
REMARK VINA RESULT:      -5.0      2.411      3.800
REMARK  Name = *****
REMARK                            x       y       z     vdW  Elec       q    Type
REMARK                         _______ _______ _______ _____ _____    ______ ____
ROOT
ATOM      1  C   LIG    1       22.847 -20.623   4.981  0.00  0.00    +0.146 C 
ENDROOT
BRANCH   1   2
ATOM      2  C   LIG    1       23.847 -21.036   3.922  0.00  0.00    +0.032 C 
ATOM      3  C   LIG    1       24.862 -20.357   3.376  0.00  0.00    +0.079 C 
ATOM      4 CL   LIG    1       25.360 -18.775   3.792  0.00  0.00    -0.092 Cl
ENDBRANCH   1   2
BRANCH   1   6
ATOM      5  C   LIG    1       21.964 -18.211   4.397  0.00  0.00    +0.007 C 
ATOM      6  C   LIG    1       22.363 -19.301   4.661  0.00  0.00    -0.067 C 
ENDBRANCH   1   6
BRANCH   1   7
ATOM      7  C   LIG    1       23.483 -20.599   6.391  0.00  0.00    +0.049 C 
ATOM      8  C   LIG    1       23.327 -21.894   7.183  0.00  0.00    +0.008 C 
ENDBRANCH   1   7
BRANCH   1   9
ATOM      9  O   LIG    1       21.747 -21.519   5.029  0.00  0.00    -0.373 OA
ATOM     10  H   LIG    1       20.992 -21.011   5.373  0.00  0.00    +0.212 HD
ENDBRANCH   1   9
TORSDOF 4
ENDMDL
