MODEL 1
REMARK VINA RESULT:      -7.8      0.000      0.000
REMARK  Name = *****
REMARK                            x       y       z     vdW  Elec       q    Type
REMARK                         _______ _______ _______ _____ _____    ______ ____
ROOT
ATOM      1  C   LIG    1       26.405 -20.100   4.901  0.00  0.00    +0.073 A 
ATOM      2  C   LIG    1       25.776 -20.628   6.060  0.00  0.00    +0.175 A 
ATOM      3  C   LIG    1       26.436 -20.604   7.293  0.00  0.00    +0.150 A 
ATOM      4  C   LIG    1       27.748 -20.124   7.376  0.00  0.00    +0.047 A 
ATOM      5  C   LIG    1       28.414 -19.693   6.226  0.00  0.00    +0.063 A 
ATOM      6  C   LIG    1       27.737 -19.660   5.000  0.00  0.00    +0.041 A 
ENDROOT
BRANCH   3   7
ATOM      7  S   LIG    1       25.666 -21.055   8.820  0.00  0.00    +0.059 S 
ATOM      8  O   LIG    1       26.057 -20.163   9.879  0.00  0.00    -0.153 OA
ATOM      9  O   LIG    1       25.771 -22.484   8.971  0.00  0.00    -0.153 OA
BRANCH   7  10
ATOM     10  N   LIG    1       24.030 -20.775   8.545  0.00  0.00    -0.203 NA
ATOM     11  H   LIG    1       23.507 -21.048   9.382  0.00  0.00    +0.144 HD
ATOM     12  H   LIG    1       23.732 -21.307   7.723  0.00  0.00    +0.144 HD
ENDBRANCH   7  10
ENDBRANCH   3   7
BRANCH   1  13
ATOM     13  N   LIG    1       25.754 -19.990   3.658  0.00  0.00    -0.341 N 
ATOM     14  H   LIG    1       26.378 -20.073   2.860  0.00  0.00    +0.146 HD
BRANCH  13  15
ATOM     15  C   LIG    1       24.805 -18.881   3.503  0.00  0.00    +0.101 C 
BRANCH  15  16
ATOM     16  C   LIG    1       23.371 -19.411   3.403  0.00  0.00    +0.018 C 
BRANCH  16  18
ATOM     17  C   LIG    1       22.199 -17.503   4.573  0.00  0.00    +0.004 C 
ATOM     18  C   LIG    1       22.530 -18.987   4.608  0.00  0.00    -0.002 C 
ENDBRANCH  16  18
ENDBRANCH  15  16
ENDBRANCH  13  15
ENDBRANCH   1  13
BRANCH   5  19
ATOM     19  C   LIG    1       29.822 -19.228   6.302  0.00  0.00    +0.337 C 
ATOM     20  O   LIG    1       30.649 -19.723   7.047  0.00  0.00    -0.245 OA
BRANCH  19  21
ATOM     21  O   LIG    1       30.090 -18.177   5.497  0.00  0.00    -0.477 OA
ATOM     22  H   LIG    1       29.323 -17.650   5.205  0.00  0.00    +0.295 HD
ENDBRANCH  19  21
ENDBRANCH   5  19
BRANCH   2  23
ATOM     23  O   LIG    1       24.519 -21.190   5.981  0.00  0.00    -0.452 OA
BRANCH  23  24
ATOM     24  C   LIG    1       24.448 -22.570   6.014  0.00  0.00    +0.129 A 
ATOM     25  C   LIG    1       25.466 -23.416   5.561  0.00  0.00    +0.046 A 
ATOM     26  C   LIG    1       25.300 -24.801   5.618  0.00  0.00    +0.004 A 
ATOM     27  C   LIG    1       24.129 -25.344   6.147  0.00  0.00    +0.000 A 
ATOM     28  C   LIG    1       23.127 -24.502   6.628  0.00  0.00    +0.004 A 
ATOM     29  C   LIG    1       23.289 -23.116   6.568  0.00  0.00    +0.046 A 
ENDBRANCH  23  24
ENDBRANCH   2  23
TORSDOF 10
ENDMDL
MODEL 2
REMARK VINA RESULT:      -7.4      3.647      6.860
REMARK  Name = *****
REMARK                            x       y       z     vdW  Elec       q    Type
REMARK                         _______ _______ _______ _____ _____    ______ ____
ROOT
ATOM      1  C   LIG    1       29.234 -19.424   6.462  0.00  0.00    +0.073 A 
ATOM      2  C   LIG    1       30.202 -19.820   7.424  0.00  0.00    +0.175 A 
ATOM      3  C   LIG    1       30.015 -20.986   8.174  0.00  0.00    +0.150 A 
ATOM      4  C   LIG    1       28.838 -21.730   8.029  0.00  0.00    +0.047 A 
ATOM      5  C   LIG    1       27.834 -21.298   7.159  0.00  0.00    +0.063 A 
ATOM      6  C   LIG    1       28.042 -20.164   6.364  0.00  0.00    +0.041 A 
ENDROOT
BRANCH   3   7
ATOM      7  S   LIG    1       31.246 -21.664   9.246  0.00  0.00    +0.059 S 
ATOM      8  O   LIG    1       30.674 -22.061  10.505  0.00  0.00    -0.153 OA
ATOM      9  O   LIG    1       32.408 -20.814   9.189  0.00  0.00    -0.153 OA
BRANCH   7  10
ATOM     10  N   LIG    1       31.718 -23.082   8.473  0.00  0.00    -0.203 NA
ATOM     11  H   LIG    1       31.460 -23.878   9.064  0.00  0.00    +0.144 HD
ATOM     12  H   LIG    1       32.727 -23.052   8.301  0.00  0.00    +0.144 HD
ENDBRANCH   7  10
ENDBRANCH   3   7
BRANCH   1  13
ATOM     13  N   LIG    1       29.416 -18.329   5.598  0.00  0.00    -0.341 N 
ATOM     14  H   LIG    1       29.767 -17.495   6.062  0.00  0.00    +0.146 HD
BRANCH  13  15
ATOM     15  C   LIG    1       28.318 -18.024   4.673  0.00  0.00    +0.101 C 
BRANCH  15  16
ATOM     16  C   LIG    1       28.144 -16.508   4.527  0.00  0.00    +0.018 C 
BRANCH  16  18
ATOM     17  C   LIG    1       26.961 -14.679   3.248  0.00  0.00    +0.004 C 
ATOM     18  C   LIG    1       27.003 -16.164   3.568  0.00  0.00    -0.002 C 
ENDBRANCH  16  18
ENDBRANCH  15  16
ENDBRANCH  13  15
ENDBRANCH   1  13
BRANCH   5  19
ATOM     19  C   LIG    1       26.564 -22.058   7.039  0.00  0.00    +0.337 C 
ATOM     20  O   LIG    1       26.141 -22.792   7.914  0.00  0.00    -0.245 OA
BRANCH  19  21
ATOM     21  O   LIG    1       25.942 -21.890   5.852  0.00  0.00    -0.477 OA
ATOM     22  H   LIG    1       26.384 -21.302   5.212  0.00  0.00    +0.295 HD
ENDBRANCH  19  21
ENDBRANCH   5  19
BRANCH   2  23
ATOM     23  O   LIG    1       31.325 -19.051   7.646  0.00  0.00    -0.452 OA
BRANCH  23  24
ATOM     24  C   LIG    1       31.275 -18.163   8.704  0.00  0.00    +0.129 A 
ATOM     25  C   LIG    1       30.200 -18.067   9.594  0.00  0.00    +0.046 A 
ATOM     26  C   LIG    1       30.230 -17.128  10.626  0.00  0.00    +0.004 A 
ATOM     27  C   LIG    1       31.339 -16.298  10.785  0.00  0.00    +0.000 A 
ATOM     28  C   LIG    1       32.425 -16.414   9.918  0.00  0.00    +0.004 A 
ATOM     29  C   LIG    1       32.396 -17.350   8.882  0.00  0.00    +0.046 A 
ENDBRANCH  23  24
ENDBRANCH   2  23
TORSDOF 10
ENDMDL
MODEL 3
REMARK VINA RESULT:      -7.1      1.932      2.575
REMARK  Name = *****
REMARK                            x       y       z     vdW  Elec       q    Type
REMARK                         _______ _______ _______ _____ _____    ______ ____
ROOT
ATOM      1  C   LIG    1       24.420 -21.139   5.193  0.00  0.00    +0.073 A 
ATOM      2  C   LIG    1       25.044 -21.458   6.428  0.00  0.00    +0.175 A 
ATOM      3  C   LIG    1       26.158 -20.732   6.863  0.00  0.00    +0.150 A 
ATOM      4  C   LIG    1       26.704 -19.734   6.049  0.00  0.00    +0.047 A 
ATOM      5  C   LIG    1       26.160 -19.476   4.789  0.00  0.00    +0.063 A 
ATOM      6  C   LIG    1       25.010 -20.159   4.374  0.00  0.00    +0.041 A 
ENDROOT
BRANCH   3   7
ATOM      7  S   LIG    1       26.880 -20.923   8.466  0.00  0.00    +0.059 S 
ATOM      8  O   LIG    1       27.450 -22.234   8.624  0.00  0.00    -0.153 OA
ATOM      9  O   LIG    1       25.963 -20.385   9.438  0.00  0.00    -0.153 OA
BRANCH   7  10
ATOM     10  N   LIG    1       28.171 -19.843   8.458  0.00  0.00    -0.203 NA
ATOM     11  H   LIG    1       28.505 -19.726   9.419  0.00  0.00    +0.144 HD
ATOM     12  H   LIG    1       27.863 -18.954   8.054  0.00  0.00    +0.144 HD
ENDBRANCH   7  10
ENDBRANCH   3   7
BRANCH   1  13
ATOM     13  N   LIG    1       23.232 -21.752   4.753  0.00  0.00    -0.341 N 
ATOM     14  H   LIG    1       23.313 -22.197   3.843  0.00  0.00    +0.146 HD
BRANCH  13  15
ATOM     15  C   LIG    1       21.996 -20.969   4.876  0.00  0.00    +0.101 C 
BRANCH  15  16
ATOM     16  C   LIG    1       22.310 -19.537   5.321  0.00  0.00    +0.018 C 
BRANCH  16  18
ATOM     17  C   LIG    1       22.305 -17.103   4.642  0.00  0.00    +0.004 C 
ATOM     18  C   LIG    1       21.885 -18.515   4.265  0.00  0.00    -0.002 C 
ENDBRANCH  16  18
ENDBRANCH  15  16
ENDBRANCH  13  15
ENDBRANCH   1  13
BRANCH   5  19
ATOM     19  C   LIG    1       26.766 -18.451   3.903  0.00  0.00    +0.337 C 
ATOM     20  O   LIG    1       26.206 -18.006   2.916  0.00  0.00    -0.245 OA
BRANCH  19  21
ATOM     21  O   LIG    1       28.014 -18.086   4.270  0.00  0.00    -0.477 OA
ATOM     22  H   LIG    1       28.350 -17.253   3.890  0.00  0.00    +0.295 HD
ENDBRANCH  19  21
ENDBRANCH   5  19
BRANCH   2  23
ATOM     23  O   LIG    1       24.576 -22.499   7.201  0.00  0.00    -0.452 OA
BRANCH  23  24
ATOM     24  C   LIG    1       24.829 -23.779   6.746  0.00  0.00    +0.129 A 
ATOM     25  C   LIG    1       26.112 -24.308   6.571  0.00  0.00    +0.046 A 
ATOM     26  C   LIG    1       26.273 -25.609   6.090  0.00  0.00    +0.004 A 
ATOM     27  C   LIG    1       25.155 -26.391   5.804  0.00  0.00    +0.000 A 
ATOM     28  C   LIG    1       23.874 -25.877   6.008  0.00  0.00    +0.004 A 
ATOM     29  C   LIG    1       23.712 -24.575   6.485  0.00  0.00    +0.046 A 
ENDBRANCH  23  24
ENDBRANCH   2  23
TORSDOF 10
ENDMDL
MODEL 4
REMARK VINA RESULT:      -7.0      1.410      2.072
REMARK  Name = *****
REMARK                            x       y       z     vdW  Elec       q    Type
REMARK                         _______ _______ _______ _____ _____    ______ ____
ROOT
ATOM      1  C   LIG    1       26.348 -19.882   4.764  0.00  0.00    +0.073 A 
ATOM      2  C   LIG    1       25.659 -20.483   5.851  0.00  0.00    +0.175 A 
ATOM      3  C   LIG    1       26.282 -20.608   7.098  0.00  0.00    +0.150 A 
ATOM      4  C   LIG    1       27.612 -20.205   7.259  0.00  0.00    +0.047 A 
ATOM      5  C   LIG    1       28.333 -19.703   6.173  0.00  0.00    +0.063 A 
ATOM      6  C   LIG    1       27.696 -19.522   4.939  0.00  0.00    +0.041 A 
ENDROOT
BRANCH   3   7
ATOM      7  S   LIG    1       25.445 -21.158   8.555  0.00  0.00    +0.059 S 
ATOM      8  O   LIG    1       25.759 -22.532   8.844  0.00  0.00    -0.153 OA
ATOM      9  O   LIG    1       24.080 -20.703   8.487  0.00  0.00    -0.153 OA
BRANCH   7  10
ATOM     10  N   LIG    1       26.137 -20.245   9.787  0.00  0.00    -0.203 NA
ATOM     11  H   LIG    1       25.591 -20.382  10.642  0.00  0.00    +0.144 HD
ATOM     12  H   LIG    1       26.157 -19.261   9.506  0.00  0.00    +0.144 HD
ENDBRANCH   7  10
ENDBRANCH   3   7
BRANCH   1  13
ATOM     13  N   LIG    1       25.741 -19.624   3.521  0.00  0.00    -0.341 N 
ATOM     14  H   LIG    1       26.315 -19.885   2.723  0.00  0.00    +0.146 HD
BRANCH  13  15
ATOM     15  C   LIG    1       25.122 -18.304   3.347  0.00  0.00    +0.101 C 
BRANCH  15  16
ATOM     16  C   LIG    1       26.197 -17.226   3.170  0.00  0.00    +0.018 C 
BRANCH  16  18
ATOM     17  C   LIG    1       26.739 -14.788   3.549  0.00  0.00    +0.004 C 
ATOM     18  C   LIG    1       25.636 -15.826   3.427  0.00  0.00    -0.002 C 
ENDBRANCH  16  18
ENDBRANCH  15  16
ENDBRANCH  13  15
ENDBRANCH   1  13
BRANCH   5  19
ATOM     19  C   LIG    1       29.759 -19.319   6.328  0.00  0.00    +0.337 C 
ATOM     20  O   LIG    1       30.524 -19.888   7.087  0.00  0.00    -0.245 OA
BRANCH  19  21
ATOM     21  O   LIG    1       30.118 -18.254   5.579  0.00  0.00    -0.477 OA
ATOM     22  H   LIG    1       30.658 -18.444   4.789  0.00  0.00    +0.295 HD
ENDBRANCH  19  21
ENDBRANCH   5  19
BRANCH   2  23
ATOM     23  O   LIG    1       24.380 -20.970   5.687  0.00  0.00    -0.452 OA
BRANCH  23  24
ATOM     24  C   LIG    1       24.202 -22.330   5.860  0.00  0.00    +0.129 A 
ATOM     25  C   LIG    1       23.121 -22.895   6.546  0.00  0.00    +0.046 A 
ATOM     26  C   LIG    1       23.030 -24.282   6.685  0.00  0.00    +0.004 A 
ATOM     27  C   LIG    1       24.004 -25.106   6.122  0.00  0.00    +0.000 A 
ATOM     28  C   LIG    1       25.065 -24.546   5.411  0.00  0.00    +0.004 A 
ATOM     29  C   LIG    1       25.160 -23.159   5.274  0.00  0.00    +0.046 A 
ENDBRANCH  23  24
ENDBRANCH   2  23
TORSDOF 10
ENDMDL
MODEL 5
REMARK VINA RESULT:      -6.8      2.421      3.910
REMARK  Name = *****
REMARK                            x       y       z     vdW  Elec       q    Type
REMARK                         _______ _______ _______ _____ _____    ______ ____
ROOT
ATOM      1  C   LIG    1       27.339 -19.605   5.257  0.00  0.00    +0.073 A 
ATOM      2  C   LIG    1       26.467 -20.705   5.474  0.00  0.00    +0.175 A 
ATOM      3  C   LIG    1       26.632 -21.525   6.595  0.00  0.00    +0.150 A 
ATOM      4  C   LIG    1       27.702 -21.306   7.471  0.00  0.00    +0.047 A 
ATOM      5  C   LIG    1       28.624 -20.289   7.216  0.00  0.00    +0.063 A 
ATOM      6  C   LIG    1       28.429 -19.429   6.127  0.00  0.00    +0.041 A 
ENDROOT
BRANCH   3   7
ATOM      7  S   LIG    1       25.487 -22.791   7.055  0.00  0.00    +0.059 S 
ATOM      8  O   LIG    1       24.247 -22.225   7.514  0.00  0.00    -0.153 OA
ATOM      9  O   LIG    1       26.194 -23.774   7.837  0.00  0.00    -0.153 OA
BRANCH   7  10
ATOM     10  N   LIG    1       25.143 -23.570   5.604  0.00  0.00    -0.203 NA
ATOM     11  H   LIG    1       24.546 -22.959   5.038  0.00  0.00    +0.144 HD
ATOM     12  H   LIG    1       24.687 -24.465   5.802  0.00  0.00    +0.144 HD
ENDBRANCH   7  10
ENDBRANCH   3   7
BRANCH   1  13
ATOM     13  N   LIG    1       27.157 -18.677   4.215  0.00  0.00    -0.341 N 
ATOM     14  H   LIG    1       27.331 -19.061   3.290  0.00  0.00    +0.146 HD
BRANCH  13  15
ATOM     15  C   LIG    1       27.773 -17.356   4.388  0.00  0.00    +0.101 C 
BRANCH  15  16
ATOM     16  C   LIG    1       26.996 -16.294   3.601  0.00  0.00    +0.018 C 
BRANCH  16  18
ATOM     17  C   LIG    1       27.120 -13.889   2.837  0.00  0.00    +0.004 C 
ATOM     18  C   LIG    1       27.486 -14.882   3.929  0.00  0.00    -0.002 C 
ENDBRANCH  16  18
ENDBRANCH  15  16
ENDBRANCH  13  15
ENDBRANCH   1  13
BRANCH   5  19
ATOM     19  C   LIG    1       29.787 -20.084   8.116  0.00  0.00    +0.337 C 
ATOM     20  O   LIG    1       29.827 -19.213   8.967  0.00  0.00    -0.245 OA
BRANCH  19  21
ATOM     21  O   LIG    1       30.813 -20.929   7.876  0.00  0.00    -0.477 OA
ATOM     22  H   LIG    1       31.462 -21.035   8.596  0.00  0.00    +0.295 HD
ENDBRANCH  19  21
ENDBRANCH   5  19
BRANCH   2  23
ATOM     23  O   LIG    1       25.463 -20.992   4.573  0.00  0.00    -0.452 OA
BRANCH  23  24
ATOM     24  C   LIG    1       24.350 -20.173   4.595  0.00  0.00    +0.129 A 
ATOM     25  C   LIG    1       23.358 -20.228   5.580  0.00  0.00    +0.046 A 
ATOM     26  C   LIG    1       22.259 -19.370   5.513  0.00  0.00    +0.004 A 
ATOM     27  C   LIG    1       22.158 -18.442   4.477  0.00  0.00    +0.000 A 
ATOM     28  C   LIG    1       23.162 -18.364   3.512  0.00  0.00    +0.004 A 
ATOM     29  C   LIG    1       24.261 -19.224   3.575  0.00  0.00    +0.046 A 
ENDBRANCH  23  24
ENDBRANCH   2  23
TORSDOF 10
ENDMDL
MODEL 6
REMARK VINA RESULT:      -6.6      6.890      9.459
REMARK  Name = *****
REMARK                            x       y       z     vdW  Elec       q    Type
REMARK                         _______ _______ _______ _____ _____    ______ ____
ROOT
ATOM      1  C   LIG    1       25.568 -28.687   7.838  0.00  0.00    +0.073 A 
ATOM      2  C   LIG    1       24.650 -29.731   8.134  0.00  0.00    +0.175 A 
ATOM      3  C   LIG    1       24.532 -30.216   9.441  0.00  0.00    +0.150 A 
ATOM      4  C   LIG    1       25.368 -29.722  10.449  0.00  0.00    +0.047 A 
ATOM      5  C   LIG    1       26.341 -28.766  10.152  0.00  0.00    +0.063 A 
ATOM      6  C   LIG    1       26.424 -28.236   8.858  0.00  0.00    +0.041 A 
ENDROOT
BRANCH   3   7
ATOM      7  S   LIG    1       23.289 -31.368   9.944  0.00  0.00    +0.059 S 
ATOM      8  O   LIG    1       23.610 -32.700   9.505  0.00  0.00    -0.153 OA
ATOM      9  O   LIG    1       22.000 -30.783   9.675  0.00  0.00    -0.153 OA
BRANCH   7  10
ATOM     10  N   LIG    1       23.407 -31.381  11.623  0.00  0.00    -0.203 NA
ATOM     11  H   LIG    1       22.478 -31.205  12.017  0.00  0.00    +0.144 HD
ATOM     12  H   LIG    1       24.083 -30.672  11.918  0.00  0.00    +0.144 HD
ENDBRANCH   7  10
ENDBRANCH   3   7
BRANCH   1  13
ATOM     13  N   LIG    1       25.653 -28.078   6.573  0.00  0.00    -0.341 N 
ATOM     14  H   LIG    1       26.384 -28.464   5.981  0.00  0.00    +0.146 HD
BRANCH  13  15
ATOM     15  C   LIG    1       25.635 -26.610   6.540  0.00  0.00    +0.101 C 
BRANCH  15  16
ATOM     16  C   LIG    1       24.263 -26.100   6.087  0.00  0.00    +0.018 C 
BRANCH  16  18
ATOM     17  C   LIG    1       25.356 -23.974   6.906  0.00  0.00    +0.004 C 
ATOM     18  C   LIG    1       24.058 -24.632   6.465  0.00  0.00    -0.002 C 
ENDBRANCH  16  18
ENDBRANCH  15  16
ENDBRANCH  13  15
ENDBRANCH   1  13
BRANCH   5  19
ATOM     19  C   LIG    1       27.262 -28.275  11.208  0.00  0.00    +0.337 C 
ATOM     20  O   LIG    1       27.010 -27.319  11.921  0.00  0.00    -0.245 OA
BRANCH  19  21
ATOM     21  O   LIG    1       28.422 -28.963  11.279  0.00  0.00    -0.477 OA
ATOM     22  H   LIG    1       28.462 -29.675  11.943  0.00  0.00    +0.295 HD
ENDBRANCH  19  21
ENDBRANCH   5  19
BRANCH   2  23
ATOM     23  O   LIG    1       23.883 -30.293   7.136  0.00  0.00    -0.452 OA
BRANCH  23  24
ATOM     24  C   LIG    1       24.422 -31.378   6.470  0.00  0.00    +0.129 A 
ATOM     25  C   LIG    1       25.794 -31.584   6.294  0.00  0.00    +0.046 A 
ATOM     26  C   LIG    1       26.248 -32.703   5.592  0.00  0.00    +0.004 A 
ATOM     27  C   LIG    1       25.336 -33.628   5.085  0.00  0.00    +0.000 A 
ATOM     28  C   LIG    1       23.969 -33.441   5.288  0.00  0.00    +0.004 A 
ATOM     29  C   LIG    1       23.513 -32.320   5.986  0.00  0.00    +0.046 A 
ENDBRANCH  23  24
ENDBRANCH   2  23
TORSDOF 10
ENDMDL
MODEL 7
REMARK VINA RESULT:      -6.3      2.241      4.511
REMARK  Name = *****
REMARK                            x       y       z     vdW  Elec       q    Type
REMARK                         _______ _______ _______ _____ _____    ______ ____
ROOT
ATOM      1  C   LIG    1       27.608 -20.941   7.321  0.00  0.00    +0.073 A 
ATOM      2  C   LIG    1       26.266 -21.077   6.874  0.00  0.00    +0.175 A 
ATOM      3  C   LIG    1       25.823 -20.370   5.752  0.00  0.00    +0.150 A 
ATOM      4  C   LIG    1       26.680 -19.471   5.107  0.00  0.00    +0.047 A 
ATOM      5  C   LIG    1       27.971 -19.255   5.595  0.00  0.00    +0.063 A 
ATOM      6  C   LIG    1       28.438 -20.003   6.682  0.00  0.00    +0.041 A 
ENDROOT
BRANCH   3   7
ATOM      7  S   LIG    1       24.239 -20.619   5.005  0.00  0.00    +0.059 S 
ATOM      8  O   LIG    1       23.181 -20.429   5.960  0.00  0.00    -0.153 OA
ATOM      9  O   LIG    1       24.309 -21.809   4.195  0.00  0.00    -0.153 OA
BRANCH   7  10
ATOM     10  N   LIG    1       24.112 -19.359   3.899  0.00  0.00    -0.203 NA
ATOM     11  H   LIG    1       23.834 -19.746   2.992  0.00  0.00    +0.144 HD
ATOM     12  H   LIG    1       25.009 -18.869   3.841  0.00  0.00    +0.144 HD
ENDBRANCH   7  10
ENDBRANCH   3   7
BRANCH   1  13
ATOM     13  N   LIG    1       28.148 -21.708   8.370  0.00  0.00    -0.341 N 
ATOM     14  H   LIG    1       27.892 -21.373   9.296  0.00  0.00    +0.146 HD
BRANCH  13  15
ATOM     15  C   LIG    1       29.573 -22.046   8.280  0.00  0.00    +0.101 C 
BRANCH  15  16
ATOM     16  C   LIG    1       30.373 -21.290   9.347  0.00  0.00    +0.018 C 
BRANCH  16  18
ATOM     17  C   LIG    1       30.979 -18.842   9.198  0.00  0.00    +0.004 C 
ATOM     18  C   LIG    1       31.301 -20.249   8.720  0.00  0.00    -0.002 C 
ENDBRANCH  16  18
ENDBRANCH  15  16
ENDBRANCH  13  15
ENDBRANCH   1  13
BRANCH   5  19
ATOM     19  C   LIG    1       28.866 -18.267   4.942  0.00  0.00    +0.337 C 
ATOM     20  O   LIG    1       30.064 -18.209   5.156  0.00  0.00    -0.245 OA
BRANCH  19  21
ATOM     21  O   LIG    1       28.222 -17.412   4.119  0.00  0.00    -0.477 OA
ATOM     22  H   LIG    1       28.029 -16.527   4.480  0.00  0.00    +0.295 HD
ENDBRANCH  19  21
ENDBRANCH   5  19
BRANCH   2  23
ATOM     23  O   LIG    1       25.381 -21.887   7.552  0.00  0.00    -0.452 OA
BRANCH  23  24
ATOM     24  C   LIG    1       25.191 -23.162   7.053  0.00  0.00    +0.129 A 
ATOM     25  C   LIG    1       26.234 -24.025   6.698  0.00  0.00    +0.046 A 
ATOM     26  C   LIG    1       25.949 -25.292   6.186  0.00  0.00    +0.004 A 
ATOM     27  C   LIG    1       24.625 -25.708   6.047  0.00  0.00    +0.000 A 
ATOM     28  C   LIG    1       23.585 -24.861   6.430  0.00  0.00    +0.004 A 
ATOM     29  C   LIG    1       23.868 -23.592   6.939  0.00  0.00    +0.046 A 
ENDBRANCH  23  24
ENDBRANCH   2  23
TORSDOF 10
ENDMDL
MODEL 8
REMARK VINA RESULT:      -6.3      7.402     10.240
REMARK  Name = *****
REMARK                            x       y       z     vdW  Elec       q    Type
REMARK                         _______ _______ _______ _____ _____    ______ ____
ROOT
ATOM      1  C   LIG    1       26.384 -28.922   9.481  0.00  0.00    +0.073 A 
ATOM      2  C   LIG    1       25.582 -30.038   9.120  0.00  0.00    +0.175 A 
ATOM      3  C   LIG    1       24.976 -30.092   7.861  0.00  0.00    +0.150 A 
ATOM      4  C   LIG    1       25.100 -29.014   6.977  0.00  0.00    +0.047 A 
ATOM      5  C   LIG    1       25.805 -27.869   7.357  0.00  0.00    +0.063 A 
ATOM      6  C   LIG    1       26.461 -27.834   8.593  0.00  0.00    +0.041 A 
ENDROOT
BRANCH   3   7
ATOM      7  S   LIG    1       24.126 -31.516   7.248  0.00  0.00    +0.059 S 
ATOM      8  O   LIG    1       23.007 -31.852   8.087  0.00  0.00    -0.153 OA
ATOM      9  O   LIG    1       25.111 -32.505   6.886  0.00  0.00    -0.153 OA
BRANCH   7  10
ATOM     10  N   LIG    1       23.481 -31.002   5.782  0.00  0.00    -0.203 NA
ATOM     11  H   LIG    1       24.181 -30.429   5.300  0.00  0.00    +0.144 HD
ATOM     12  H   LIG    1       22.621 -30.477   5.959  0.00  0.00    +0.144 HD
ENDBRANCH   7  10
ENDBRANCH   3   7
BRANCH   1  13
ATOM     13  N   LIG    1       27.112 -28.859  10.684  0.00  0.00    -0.341 N 
ATOM     14  H   LIG    1       27.051 -29.705  11.244  0.00  0.00    +0.146 HD
BRANCH  13  15
ATOM     15  C   LIG    1       26.949 -27.647  11.495  0.00  0.00    +0.101 C 
BRANCH  15  16
ATOM     16  C   LIG    1       26.020 -27.917  12.683  0.00  0.00    +0.018 C 
BRANCH  16  18
ATOM     17  C   LIG    1       24.003 -26.648  13.523  0.00  0.00    +0.004 C 
ATOM     18  C   LIG    1       25.507 -26.616  13.302  0.00  0.00    -0.002 C 
ENDBRANCH  16  18
ENDBRANCH  15  16
ENDBRANCH  13  15
ENDBRANCH   1  13
BRANCH   5  19
ATOM     19  C   LIG    1       25.898 -26.704   6.441  0.00  0.00    +0.337 C 
ATOM     20  O   LIG    1       25.002 -25.889   6.305  0.00  0.00    -0.245 OA
BRANCH  19  21
ATOM     21  O   LIG    1       27.053 -26.655   5.743  0.00  0.00    -0.477 OA
ATOM     22  H   LIG    1       27.508 -27.505   5.600  0.00  0.00    +0.295 HD
ENDBRANCH  19  21
ENDBRANCH   5  19
BRANCH   2  23
ATOM     23  O   LIG    1       25.372 -31.068  10.012  0.00  0.00    -0.452 OA
BRANCH  23  24
ATOM     24  C   LIG    1       24.546 -30.805  11.088  0.00  0.00    +0.129 A 
ATOM     25  C   LIG    1       23.387 -30.026  11.011  0.00  0.00    +0.046 A 
ATOM     26  C   LIG    1       22.620 -29.800  12.156  0.00  0.00    +0.004 A 
ATOM     27  C   LIG    1       22.995 -30.368  13.372  0.00  0.00    +0.000 A 
ATOM     28  C   LIG    1       24.132 -31.172  13.444  0.00  0.00    +0.004 A 
ATOM     29  C   LIG    1       24.903 -31.396  12.302  0.00  0.00    +0.046 A 
ENDBRANCH  23  24
ENDBRANCH   2  23
TORSDOF 10
ENDMDL
MODEL 9
REMARK VINA RESULT:      -6.1      7.527     10.401
REMARK  Name = *****
REMARK                            x       y       z     vdW  Elec       q    Type
REMARK                         _______ _______ _______ _____ _____    ______ ____
ROOT
ATOM      1  C   LIG    1       24.907 -29.616   6.858  0.00  0.00    +0.073 A 
ATOM      2  C   LIG    1       25.364 -30.243   8.048  0.00  0.00    +0.175 A 
ATOM      3  C   LIG    1       25.932 -31.521   7.998  0.00  0.00    +0.150 A 
ATOM      4  C   LIG    1       25.987 -32.215   6.784  0.00  0.00    +0.047 A 
ATOM      5  C   LIG    1       25.452 -31.650   5.624  0.00  0.00    +0.063 A 
ATOM      6  C   LIG    1       24.936 -30.349   5.658  0.00  0.00    +0.041 A 
ENDROOT
BRANCH   3   7
ATOM      7  S   LIG    1       26.705 -32.299   9.385  0.00  0.00    +0.059 S 
ATOM      8  O   LIG    1       27.744 -33.198   8.961  0.00  0.00    -0.153 OA
ATOM      9  O   LIG    1       25.670 -32.728  10.292  0.00  0.00    -0.153 OA
BRANCH   7  10
ATOM     10  N   LIG    1       27.471 -31.032  10.183  0.00  0.00    -0.203 NA
ATOM     11  H   LIG    1       28.379 -30.868   9.740  0.00  0.00    +0.144 HD
ATOM     12  H   LIG    1       27.572 -31.271  11.173  0.00  0.00    +0.144 HD
ENDBRANCH   7  10
ENDBRANCH   3   7
BRANCH   1  13
ATOM     13  N   LIG    1       24.432 -28.292   6.823  0.00  0.00    -0.341 N 
ATOM     14  H   LIG    1       23.448 -28.216   6.578  0.00  0.00    +0.146 HD
BRANCH  13  15
ATOM     15  C   LIG    1       25.256 -27.311   6.106  0.00  0.00    +0.101 C 
BRANCH  15  16
ATOM     16  C   LIG    1       24.370 -26.264   5.422  0.00  0.00    +0.018 C 
BRANCH  16  18
ATOM     17  C   LIG    1       25.361 -24.351   6.741  0.00  0.00    +0.004 C 
ATOM     18  C   LIG    1       24.086 -25.078   6.346  0.00  0.00    -0.002 C 
ENDBRANCH  16  18
ENDBRANCH  15  16
ENDBRANCH  13  15
ENDBRANCH   1  13
BRANCH   5  19
ATOM     19  C   LIG    1       25.466 -32.403   4.345  0.00  0.00    +0.337 C 
ATOM     20  O   LIG    1       26.446 -32.477   3.624  0.00  0.00    -0.245 OA
BRANCH  19  21
ATOM     21  O   LIG    1       24.278 -32.965   4.034  0.00  0.00    -0.477 OA
ATOM     22  H   LIG    1       24.270 -33.936   3.942  0.00  0.00    +0.295 HD
ENDBRANCH  19  21
ENDBRANCH   5  19
BRANCH   2  23
ATOM     23  O   LIG    1       25.234 -29.613   9.267  0.00  0.00    -0.452 OA
BRANCH  23  24
ATOM     24  C   LIG    1       24.110 -29.917  10.012  0.00  0.00    +0.129 A 
ATOM     25  C   LIG    1       22.983 -30.566   9.496  0.00  0.00    +0.046 A 
ATOM     26  C   LIG    1       21.885 -30.820  10.320  0.00  0.00    +0.004 A 
ATOM     27  C   LIG    1       21.918 -30.447  11.663  0.00  0.00    +0.000 A 
ATOM     28  C   LIG    1       23.053 -29.828  12.187  0.00  0.00    +0.004 A 
ATOM     29  C   LIG    1       24.151 -29.570  11.363  0.00  0.00    +0.046 A 
ENDBRANCH  23  24
ENDBRANCH   2  23
TORSDOF 10
ENDMDL
