MODEL 1
REMARK VINA RESULT:      -4.6      0.000      0.000
REMARK  Name = *****
REMARK                            x       y       z     vdW  Elec       q    Type
REMARK                         _______ _______ _______ _____ _____    ______ ____
ROOT
ATOM      1  N   LIG    1       26.633 -18.393   4.079  0.00  0.00    -0.284 N 
ATOM      2  H   LIG    1       27.622 -18.186   4.116  0.00  0.00    +0.155 HD
ATOM      3  C   LIG    1       25.791 -17.318   3.754  0.00  0.00    +0.231 C 
ATOM      4  O   LIG    1       24.608 -17.231   4.066  0.00  0.00    -0.274 OA
ENDROOT
BRANCH   1   6
ATOM      5  C   LIG    1       27.065 -19.959   5.941  0.00  0.00    -0.023 A 
ATOM      6  C   LIG    1       26.224 -19.491   4.887  0.00  0.00    +0.040 A 
ATOM      7  C   LIG    1       24.921 -20.048   4.717  0.00  0.00    -0.023 A 
ATOM      8  C   LIG    1       24.518 -21.092   5.585  0.00  0.00    +0.006 A 
ATOM      9  C   LIG    1       25.342 -21.572   6.590  0.00  0.00    +0.001 A 
ATOM     10  C   LIG    1       26.598 -20.998   6.772  0.00  0.00    +0.006 A 
BRANCH   5  12
ATOM     11  C   LIG    1       29.373 -20.328   6.930  0.00  0.00    +0.012 C 
ATOM     12  C   LIG    1       28.408 -19.313   6.302  0.00  0.00    +0.015 C 
ATOM     13  C   LIG    1       29.104 -18.624   5.115  0.00  0.00    +0.012 C 
ENDBRANCH   5  12
BRANCH   7  14
ATOM     14  C   LIG    1       23.877 -19.694   3.653  0.00  0.00    +0.015 C 
ATOM     15  C   LIG    1       22.494 -19.258   4.136  0.00  0.00    +0.012 C 
ATOM     16  C   LIG    1       23.752 -20.790   2.589  0.00  0.00    +0.012 C 
ENDBRANCH   7  14
ENDBRANCH   1   6
BRANCH   3  17
ATOM     17  C   LIG    1       26.530 -16.214   2.945  0.00  0.00    +0.181 C 
BRANCH  17  18
ATOM     18  N   LIG    1       26.488 -14.816   3.568  0.00  0.00    -0.274 NA
BRANCH  18  19
ATOM     19  C   LIG    1       25.757 -13.907   2.609  0.00  0.00    +0.206 C 
BRANCH  19  20
ATOM     20  C   LIG    1       24.534 -13.235   3.244  0.00  0.00    +0.319 C 
ATOM     21  O   LIG    1       24.502 -12.844   4.402  0.00  0.00    -0.250 OA
BRANCH  20  22
ATOM     22  O   LIG    1       23.460 -13.150   2.420  0.00  0.00    -0.480 OA
ATOM     23  H   LIG    1       22.804 -12.523   2.795  0.00  0.00    +0.295 HD
ENDBRANCH  20  22
ENDBRANCH  19  20
ENDBRANCH  18  19
BRANCH  18  24
ATOM     24  C   LIG    1       27.936 -14.368   3.678  0.00  0.00    +0.206 C 
BRANCH  24  25
ATOM     25  C   LIG    1       28.218 -13.129   4.535  0.00  0.00    +0.319 C 
ATOM     26  O   LIG    1       29.155 -12.375   4.333  0.00  0.00    -0.250 OA
BRANCH  25  27
ATOM     27  O   LIG    1       27.377 -12.959   5.574  0.00  0.00    -0.480 OA
ATOM     28  H   LIG    1       27.515 -12.091   5.999  0.00  0.00    +0.295 HD
ENDBRANCH  25  27
ENDBRANCH  24  25
ENDBRANCH  18  24
ENDBRANCH  17  18
ENDBRANCH   3  17
TORSDOF 11
ENDMDL
MODEL 2
REMARK VINA RESULT:      -4.4      0.633      2.425
REMARK  Name = *****
REMARK                            x       y       z     vdW  Elec       q    Type
REMARK                         _______ _______ _______ _____ _____    ______ ____
ROOT
ATOM      1  N   LIG    1       26.508 -18.635   3.822  0.00  0.00    -0.284 N 
ATOM      2  H   LIG    1       27.482 -18.483   3.599  0.00  0.00    +0.155 HD
ATOM      3  C   LIG    1       25.655 -17.536   3.633  0.00  0.00    +0.231 C 
ATOM      4  O   LIG    1       24.592 -17.361   4.218  0.00  0.00    -0.274 OA
ENDROOT
BRANCH   1   6
ATOM      5  C   LIG    1       27.310 -20.065   5.670  0.00  0.00    -0.023 A 
ATOM      6  C   LIG    1       26.269 -19.655   4.785  0.00  0.00    +0.040 A 
ATOM      7  C   LIG    1       24.953 -20.185   4.941  0.00  0.00    -0.023 A 
ATOM      8  C   LIG    1       24.732 -21.146   5.958  0.00  0.00    +0.006 A 
ATOM      9  C   LIG    1       25.747 -21.572   6.801  0.00  0.00    +0.001 A 
ATOM     10  C   LIG    1       27.020 -21.023   6.663  0.00  0.00    +0.006 A 
BRANCH   5  12
ATOM     11  C   LIG    1       28.665 -17.961   5.251  0.00  0.00    +0.012 C 
ATOM     12  C   LIG    1       28.707 -19.433   5.683  0.00  0.00    +0.015 C 
ATOM     13  C   LIG    1       29.426 -19.540   7.039  0.00  0.00    +0.012 C 
ENDBRANCH   5  12
BRANCH   7  14
ATOM     14  C   LIG    1       23.709 -19.883   4.099  0.00  0.00    +0.015 C 
ATOM     15  C   LIG    1       22.366 -19.801   4.823  0.00  0.00    +0.012 C 
ATOM     16  C   LIG    1       23.606 -20.810   2.882  0.00  0.00    +0.012 C 
ENDBRANCH   7  14
ENDBRANCH   1   6
BRANCH   3  17
ATOM     17  C   LIG    1       26.215 -16.529   2.588  0.00  0.00    +0.181 C 
BRANCH  17  18
ATOM     18  N   LIG    1       26.298 -15.077   3.065  0.00  0.00    -0.274 NA
BRANCH  18  19
ATOM     19  C   LIG    1       27.388 -14.997   4.108  0.00  0.00    +0.206 C 
BRANCH  19  20
ATOM     20  C   LIG    1       27.816 -13.557   4.410  0.00  0.00    +0.319 C 
ATOM     21  O   LIG    1       28.614 -12.931   3.726  0.00  0.00    -0.250 OA
BRANCH  20  22
ATOM     22  O   LIG    1       27.268 -13.042   5.539  0.00  0.00    -0.480 OA
ATOM     23  H   LIG    1       27.895 -13.144   6.288  0.00  0.00    +0.295 HD
ENDBRANCH  20  22
ENDBRANCH  19  20
ENDBRANCH  18  19
BRANCH  18  24
ATOM     24  C   LIG    1       24.958 -14.778   3.717  0.00  0.00    +0.206 C 
BRANCH  24  25
ATOM     25  C   LIG    1       24.406 -13.358   3.553  0.00  0.00    +0.319 C 
ATOM     26  O   LIG    1       24.365 -12.547   4.462  0.00  0.00    -0.250 OA
BRANCH  25  27
ATOM     27  O   LIG    1       23.912 -13.083   2.328  0.00  0.00    -0.480 OA
ATOM     28  H   LIG    1       23.525 -13.879   1.920  0.00  0.00    +0.295 HD
ENDBRANCH  25  27
ENDBRANCH  24  25
ENDBRANCH  18  24
ENDBRANCH  17  18
ENDBRANCH   3  17
TORSDOF 11
ENDMDL
MODEL 3
REMARK VINA RESULT:      -4.4      0.592      3.963
REMARK  Name = *****
REMARK                            x       y       z     vdW  Elec       q    Type
REMARK                         _______ _______ _______ _____ _____    ______ ____
ROOT
ATOM      1  N   LIG    1       26.525 -18.708   4.007  0.00  0.00    -0.284 N 
ATOM      2  H   LIG    1       27.520 -18.618   3.856  0.00  0.00    +0.155 HD
ATOM      3  C   LIG    1       25.744 -17.596   3.655  0.00  0.00    +0.231 C 
ATOM      4  O   LIG    1       24.647 -17.327   4.132  0.00  0.00    -0.274 OA
ENDROOT
BRANCH   1   6
ATOM      5  C   LIG    1       24.912 -20.320   4.962  0.00  0.00    -0.023 A 
ATOM      6  C   LIG    1       26.159 -19.628   5.030  0.00  0.00    +0.040 A 
ATOM      7  C   LIG    1       27.092 -19.944   6.063  0.00  0.00    -0.023 A 
ATOM      8  C   LIG    1       26.726 -20.917   7.024  0.00  0.00    +0.006 A 
ATOM      9  C   LIG    1       25.504 -21.570   6.981  0.00  0.00    +0.001 A 
ATOM     10  C   LIG    1       24.614 -21.281   5.949  0.00  0.00    +0.006 A 
BRANCH   5  12
ATOM     11  C   LIG    1       23.842 -21.441   2.953  0.00  0.00    +0.012 C 
ATOM     12  C   LIG    1       23.922 -20.165   3.802  0.00  0.00    +0.015 C 
ATOM     13  C   LIG    1       22.504 -19.764   4.244  0.00  0.00    +0.012 C 
ENDBRANCH   5  12
BRANCH   7  14
ATOM     14  C   LIG    1       28.468 -19.318   6.314  0.00  0.00    +0.015 C 
ATOM     15  C   LIG    1       29.088 -18.495   5.187  0.00  0.00    +0.012 C 
ATOM     16  C   LIG    1       29.474 -20.347   6.842  0.00  0.00    +0.012 C 
ENDBRANCH   7  14
ENDBRANCH   1   6
BRANCH   3  17
ATOM     17  C   LIG    1       26.434 -16.710   2.579  0.00  0.00    +0.181 C 
BRANCH  17  18
ATOM     18  N   LIG    1       26.573 -15.231   2.949  0.00  0.00    -0.274 NA
BRANCH  18  19
ATOM     19  C   LIG    1       27.576 -15.130   4.074  0.00  0.00    +0.206 C 
BRANCH  19  20
ATOM     20  C   LIG    1       27.900 -13.681   4.452  0.00  0.00    +0.319 C 
ATOM     21  O   LIG    1       28.707 -12.988   3.849  0.00  0.00    -0.250 OA
BRANCH  20  22
ATOM     22  O   LIG    1       27.245 -13.237   5.555  0.00  0.00    -0.480 OA
ATOM     23  H   LIG    1       27.849 -12.685   6.098  0.00  0.00    +0.295 HD
ENDBRANCH  20  22
ENDBRANCH  19  20
ENDBRANCH  18  19
BRANCH  18  24
ATOM     24  C   LIG    1       25.207 -14.800   3.454  0.00  0.00    +0.206 C 
BRANCH  24  25
ATOM     25  C   LIG    1       24.720 -13.406   3.043  0.00  0.00    +0.319 C 
ATOM     26  O   LIG    1       24.568 -13.066   1.882  0.00  0.00    -0.250 OA
BRANCH  25  27
ATOM     27  O   LIG    1       24.518 -12.554   4.069  0.00  0.00    -0.480 OA
ATOM     28  H   LIG    1       23.642 -12.129   4.003  0.00  0.00    +0.295 HD
ENDBRANCH  25  27
ENDBRANCH  24  25
ENDBRANCH  18  24
ENDBRANCH  17  18
ENDBRANCH   3  17
TORSDOF 11
ENDMDL
MODEL 4
REMARK VINA RESULT:      -4.3      1.331      3.003
REMARK  Name = *****
REMARK                            x       y       z     vdW  Elec       q    Type
REMARK                         _______ _______ _______ _____ _____    ______ ____
ROOT
ATOM      1  N   LIG    1       25.401 -18.155   4.547  0.00  0.00    -0.284 N 
ATOM      2  H   LIG    1       25.285 -17.404   5.213  0.00  0.00    +0.155 HD
ATOM      3  C   LIG    1       25.877 -17.786   3.279  0.00  0.00    +0.231 C 
ATOM      4  O   LIG    1       25.684 -18.416   2.244  0.00  0.00    -0.274 OA
ENDROOT
BRANCH   1   6
ATOM      5  C   LIG    1       25.114 -20.497   5.283  0.00  0.00    -0.023 A 
ATOM      6  C   LIG    1       24.563 -19.284   4.771  0.00  0.00    +0.040 A 
ATOM      7  C   LIG    1       23.153 -19.164   4.591  0.00  0.00    -0.023 A 
ATOM      8  C   LIG    1       22.340 -20.284   4.891  0.00  0.00    +0.006 A 
ATOM      9  C   LIG    1       22.872 -21.475   5.360  0.00  0.00    +0.001 A 
ATOM     10  C   LIG    1       24.246 -21.571   5.566  0.00  0.00    +0.006 A 
BRANCH   5  12
ATOM     11  C   LIG    1       27.351 -19.332   5.560  0.00  0.00    +0.012 C 
ATOM     12  C   LIG    1       26.592 -20.661   5.660  0.00  0.00    +0.015 C 
ATOM     13  C   LIG    1       26.812 -21.264   7.058  0.00  0.00    +0.012 C 
ENDBRANCH   5  12
BRANCH   7  14
ATOM     14  C   LIG    1       22.370 -17.962   4.052  0.00  0.00    +0.015 C 
ATOM     15  C   LIG    1       22.364 -16.686   4.891  0.00  0.00    +0.012 C 
ATOM     16  C   LIG    1       20.941 -18.347   3.650  0.00  0.00    +0.012 C 
ENDBRANCH   7  14
ENDBRANCH   1   6
BRANCH   3  17
ATOM     17  C   LIG    1       26.684 -16.457   3.317  0.00  0.00    +0.181 C 
BRANCH  17  18
ATOM     18  N   LIG    1       25.936 -15.229   2.790  0.00  0.00    -0.274 NA
BRANCH  18  19
ATOM     19  C   LIG    1       26.964 -14.176   2.450  0.00  0.00    +0.206 C 
BRANCH  19  20
ATOM     20  C   LIG    1       27.845 -13.797   3.645  0.00  0.00    +0.319 C 
ATOM     21  O   LIG    1       27.425 -13.696   4.789  0.00  0.00    -0.250 OA
BRANCH  20  22
ATOM     22  O   LIG    1       29.134 -13.532   3.320  0.00  0.00    -0.480 OA
ATOM     23  H   LIG    1       29.730 -14.146   3.802  0.00  0.00    +0.295 HD
ENDBRANCH  20  22
ENDBRANCH  19  20
ENDBRANCH  18  19
BRANCH  18  24
ATOM     24  C   LIG    1       25.079 -14.739   3.945  0.00  0.00    +0.206 C 
BRANCH  24  25
ATOM     25  C   LIG    1       24.290 -13.444   3.726  0.00  0.00    +0.319 C 
ATOM     26  O   LIG    1       24.234 -12.547   4.549  0.00  0.00    -0.250 OA
BRANCH  25  27
ATOM     27  O   LIG    1       23.608 -13.389   2.563  0.00  0.00    -0.480 OA
ATOM     28  H   LIG    1       22.938 -12.681   2.583  0.00  0.00    +0.295 HD
ENDBRANCH  25  27
ENDBRANCH  24  25
ENDBRANCH  18  24
ENDBRANCH  17  18
ENDBRANCH   3  17
TORSDOF 11
ENDMDL
MODEL 5
REMARK VINA RESULT:      -3.7      1.405      4.218
REMARK  Name = *****
REMARK                            x       y       z     vdW  Elec       q    Type
REMARK                         _______ _______ _______ _____ _____    ______ ____
ROOT
ATOM      1  N   LIG    1       25.180 -18.137   4.590  0.00  0.00    -0.284 N 
ATOM      2  H   LIG    1       25.107 -17.367   5.241  0.00  0.00    +0.155 HD
ATOM      3  C   LIG    1       25.636 -17.812   3.302  0.00  0.00    +0.231 C 
ATOM      4  O   LIG    1       25.396 -18.457   2.287  0.00  0.00    -0.274 OA
ENDROOT
BRANCH   1   6
ATOM      5  C   LIG    1       22.912 -19.118   4.594  0.00  0.00    -0.023 A 
ATOM      6  C   LIG    1       24.310 -19.231   4.859  0.00  0.00    +0.040 A 
ATOM      7  C   LIG    1       24.855 -20.479   5.285  0.00  0.00    -0.023 A 
ATOM      8  C   LIG    1       23.970 -21.568   5.475  0.00  0.00    +0.006 A 
ATOM      9  C   LIG    1       22.607 -21.457   5.249  0.00  0.00    +0.001 A 
ATOM     10  C   LIG    1       22.089 -20.244   4.799  0.00  0.00    +0.006 A 
BRANCH   5  12
ATOM     11  C   LIG    1       20.864 -18.172   3.433  0.00  0.00    +0.012 C 
ATOM     12  C   LIG    1       22.266 -17.871   3.980  0.00  0.00    +0.015 C 
ATOM     13  C   LIG    1       22.184 -16.675   4.944  0.00  0.00    +0.012 C 
ENDBRANCH   5  12
BRANCH   7  14
ATOM     14  C   LIG    1       26.313 -20.804   5.627  0.00  0.00    +0.015 C 
ATOM     15  C   LIG    1       26.625 -21.239   7.057  0.00  0.00    +0.012 C 
ATOM     16  C   LIG    1       27.264 -19.685   5.187  0.00  0.00    +0.012 C 
ENDBRANCH   7  14
ENDBRANCH   1   6
BRANCH   3  17
ATOM     17  C   LIG    1       26.489 -16.511   3.291  0.00  0.00    +0.181 C 
BRANCH  17  18
ATOM     18  N   LIG    1       25.766 -15.266   2.768  0.00  0.00    -0.274 NA
BRANCH  18  19
ATOM     19  C   LIG    1       26.817 -14.271   2.337  0.00  0.00    +0.206 C 
BRANCH  19  20
ATOM     20  C   LIG    1       27.743 -13.851   3.484  0.00  0.00    +0.319 C 
ATOM     21  O   LIG    1       27.951 -12.687   3.794  0.00  0.00    -0.250 OA
BRANCH  20  22
ATOM     22  O   LIG    1       28.360 -14.888   4.104  0.00  0.00    -0.480 OA
ATOM     23  H   LIG    1       28.052 -15.736   3.717  0.00  0.00    +0.295 HD
ENDBRANCH  20  22
ENDBRANCH  19  20
ENDBRANCH  18  19
BRANCH  18  24
ATOM     24  C   LIG    1       24.999 -14.704   3.953  0.00  0.00    +0.206 C 
BRANCH  24  25
ATOM     25  C   LIG    1       24.206 -13.413   3.721  0.00  0.00    +0.319 C 
ATOM     26  O   LIG    1       24.096 -12.535   4.559  0.00  0.00    -0.250 OA
BRANCH  25  27
ATOM     27  O   LIG    1       23.587 -13.340   2.525  0.00  0.00    -0.480 OA
ATOM     28  H   LIG    1       22.687 -13.712   2.574  0.00  0.00    +0.295 HD
ENDBRANCH  25  27
ENDBRANCH  24  25
ENDBRANCH  18  24
ENDBRANCH  17  18
ENDBRANCH   3  17
TORSDOF 11
ENDMDL
MODEL 6
REMARK VINA RESULT:      -2.9      1.189      3.631
REMARK  Name = *****
REMARK                            x       y       z     vdW  Elec       q    Type
REMARK                         _______ _______ _______ _____ _____    ______ ____
ROOT
ATOM      1  N   LIG    1       25.099 -18.361   3.797  0.00  0.00    -0.284 N 
ATOM      2  H   LIG    1       26.033 -18.647   3.537  0.00  0.00    +0.155 HD
ATOM      3  C   LIG    1       24.864 -16.977   3.821  0.00  0.00    +0.231 C 
ATOM      4  O   LIG    1       24.000 -16.421   4.492  0.00  0.00    -0.274 OA
ENDROOT
BRANCH   1   6
ATOM      5  C   LIG    1       22.972 -19.271   4.666  0.00  0.00    -0.023 A 
ATOM      6  C   LIG    1       24.398 -19.288   4.619  0.00  0.00    +0.040 A 
ATOM      7  C   LIG    1       25.120 -20.310   5.305  0.00  0.00    -0.023 A 
ATOM      8  C   LIG    1       24.386 -21.261   6.056  0.00  0.00    +0.006 A 
ATOM      9  C   LIG    1       23.003 -21.231   6.131  0.00  0.00    +0.001 A 
ATOM     10  C   LIG    1       22.305 -20.251   5.429  0.00  0.00    +0.006 A 
BRANCH   5  12
ATOM     11  C   LIG    1       20.830 -18.997   3.333  0.00  0.00    +0.012 C 
ATOM     12  C   LIG    1       22.110 -18.314   3.832  0.00  0.00    +0.015 C 
ATOM     13  C   LIG    1       21.735 -17.015   4.567  0.00  0.00    +0.012 C 
ENDBRANCH   5  12
BRANCH   7  14
ATOM     14  C   LIG    1       26.638 -20.501   5.386  0.00  0.00    +0.015 C 
ATOM     15  C   LIG    1       27.204 -21.152   6.646  0.00  0.00    +0.012 C 
ATOM     16  C   LIG    1       27.392 -19.205   5.067  0.00  0.00    +0.012 C 
ENDBRANCH   7  14
ENDBRANCH   1   6
BRANCH   3  17
ATOM     17  C   LIG    1       25.842 -16.198   2.896  0.00  0.00    +0.181 C 
BRANCH  17  18
ATOM     18  N   LIG    1       26.151 -14.765   3.339  0.00  0.00    -0.274 NA
BRANCH  18  19
ATOM     19  C   LIG    1       25.810 -13.845   2.191  0.00  0.00    +0.206 C 
BRANCH  19  20
ATOM     20  C   LIG    1       24.652 -12.895   2.515  0.00  0.00    +0.319 C 
ATOM     21  O   LIG    1       23.749 -13.169   3.293  0.00  0.00    -0.250 OA
BRANCH  20  22
ATOM     22  O   LIG    1       24.684 -11.728   1.825  0.00  0.00    -0.480 OA
ATOM     23  H   LIG    1       24.154 -11.049   2.296  0.00  0.00    +0.295 HD
ENDBRANCH  20  22
ENDBRANCH  19  20
ENDBRANCH  18  19
BRANCH  18  24
ATOM     24  C   LIG    1       27.649 -14.722   3.589  0.00  0.00    +0.206 C 
BRANCH  24  25
ATOM     25  C   LIG    1       28.223 -13.421   4.160  0.00  0.00    +0.319 C 
ATOM     26  O   LIG    1       27.772 -12.868   5.148  0.00  0.00    -0.250 OA
BRANCH  25  27
ATOM     27  O   LIG    1       29.243 -12.896   3.451  0.00  0.00    -0.480 OA
ATOM     28  H   LIG    1       30.068 -12.895   3.972  0.00  0.00    +0.295 HD
ENDBRANCH  25  27
ENDBRANCH  24  25
ENDBRANCH  18  24
ENDBRANCH  17  18
ENDBRANCH   3  17
TORSDOF 11
ENDMDL
MODEL 7
REMARK VINA RESULT:      -2.1      1.990      4.330
REMARK  Name = *****
REMARK                            x       y       z     vdW  Elec       q    Type
REMARK                         _______ _______ _______ _____ _____    ______ ____
ROOT
ATOM      1  N   LIG    1       23.308 -17.230   3.790  0.00  0.00    -0.284 N 
ATOM      2  H   LIG    1       24.105 -17.071   3.189  0.00  0.00    +0.155 HD
ATOM      3  C   LIG    1       22.877 -16.128   4.546  0.00  0.00    +0.231 C 
ATOM      4  O   LIG    1       22.257 -16.199   5.602  0.00  0.00    -0.274 OA
ENDROOT
BRANCH   1   6
ATOM      5  C   LIG    1       21.841 -19.178   4.193  0.00  0.00    -0.023 A 
ATOM      6  C   LIG    1       23.138 -18.580   4.207  0.00  0.00    +0.040 A 
ATOM      7  C   LIG    1       24.282 -19.371   4.529  0.00  0.00    -0.023 A 
ATOM      8  C   LIG    1       24.084 -20.731   4.871  0.00  0.00    +0.006 A 
ATOM      9  C   LIG    1       22.824 -21.309   4.889  0.00  0.00    +0.001 A 
ATOM     10  C   LIG    1       21.717 -20.539   4.539  0.00  0.00    +0.006 A 
BRANCH   5  12
ATOM     11  C   LIG    1       20.823 -17.741   2.367  0.00  0.00    +0.012 C 
ATOM     12  C   LIG    1       20.581 -18.453   3.705  0.00  0.00    +0.015 C 
ATOM     13  C   LIG    1       19.350 -19.366   3.575  0.00  0.00    +0.012 C 
ENDBRANCH   5  12
BRANCH   7  14
ATOM     14  C   LIG    1       25.745 -18.923   4.607  0.00  0.00    +0.015 C 
ATOM     15  C   LIG    1       26.335 -18.216   3.388  0.00  0.00    +0.012 C 
ATOM     16  C   LIG    1       26.665 -20.060   5.065  0.00  0.00    +0.012 C 
ENDBRANCH   7  14
ENDBRANCH   1   6
BRANCH   3  17
ATOM     17  C   LIG    1       23.284 -14.775   3.897  0.00  0.00    +0.181 C 
BRANCH  17  18
ATOM     18  N   LIG    1       24.447 -14.052   4.583  0.00  0.00    -0.274 NA
BRANCH  18  19
ATOM     19  C   LIG    1       24.282 -12.572   4.331  0.00  0.00    +0.206 C 
BRANCH  19  20
ATOM     20  C   LIG    1       24.381 -12.207   2.846  0.00  0.00    +0.319 C 
ATOM     21  O   LIG    1       25.322 -12.524   2.133  0.00  0.00    -0.250 OA
BRANCH  20  22
ATOM     22  O   LIG    1       23.348 -11.454   2.391  0.00  0.00    -0.480 OA
ATOM     23  H   LIG    1       22.497 -11.883   2.627  0.00  0.00    +0.295 HD
ENDBRANCH  20  22
ENDBRANCH  19  20
ENDBRANCH  18  19
BRANCH  18  24
ATOM     24  C   LIG    1       25.707 -14.541   3.888  0.00  0.00    +0.206 C 
BRANCH  24  25
ATOM     25  C   LIG    1       27.042 -14.249   4.580  0.00  0.00    +0.319 C 
ATOM     26  O   LIG    1       28.112 -14.672   4.176  0.00  0.00    -0.250 OA
BRANCH  25  27
ATOM     27  O   LIG    1       26.943 -13.525   5.713  0.00  0.00    -0.480 OA
ATOM     28  H   LIG    1       26.683 -12.605   5.519  0.00  0.00    +0.295 HD
ENDBRANCH  25  27
ENDBRANCH  24  25
ENDBRANCH  18  24
ENDBRANCH  17  18
ENDBRANCH   3  17
TORSDOF 11
ENDMDL
MODEL 8
REMARK VINA RESULT:      -1.9      2.657      6.870
REMARK  Name = *****
REMARK                            x       y       z     vdW  Elec       q    Type
REMARK                         _______ _______ _______ _____ _____    ______ ____
ROOT
ATOM      1  N   LIG    1       26.004 -16.365   4.367  0.00  0.00    -0.284 N 
ATOM      2  H   LIG    1       26.751 -16.132   5.006  0.00  0.00    +0.155 HD
ATOM      3  C   LIG    1       26.164 -17.556   3.641  0.00  0.00    +0.231 C 
ATOM      4  O   LIG    1       25.639 -17.797   2.559  0.00  0.00    -0.274 OA
ENDROOT
BRANCH   1   6
ATOM      5  C   LIG    1       23.843 -15.209   4.050  0.00  0.00    -0.023 A 
ATOM      6  C   LIG    1       25.260 -15.250   3.887  0.00  0.00    +0.040 A 
ATOM      7  C   LIG    1       25.947 -14.122   3.346  0.00  0.00    -0.023 A 
ATOM      8  C   LIG    1       25.183 -13.000   2.944  0.00  0.00    +0.006 A 
ATOM      9  C   LIG    1       23.803 -12.966   3.071  0.00  0.00    +0.001 A 
ATOM     10  C   LIG    1       23.145 -14.057   3.633  0.00  0.00    +0.006 A 
BRANCH   5  12
ATOM     11  C   LIG    1       21.965 -15.704   5.683  0.00  0.00    +0.012 C 
ATOM     12  C   LIG    1       23.042 -16.302   4.768  0.00  0.00    +0.015 C 
ATOM     13  C   LIG    1       22.388 -17.319   3.817  0.00  0.00    +0.012 C 
ENDBRANCH   5  12
BRANCH   7  14
ATOM     14  C   LIG    1       27.449 -13.970   3.084  0.00  0.00    +0.015 C 
ATOM     15  C   LIG    1       28.410 -14.625   4.074  0.00  0.00    +0.012 C 
ATOM     16  C   LIG    1       27.840 -12.507   2.844  0.00  0.00    +0.012 C 
ENDBRANCH   7  14
ENDBRANCH   1   6
BRANCH   3  17
ATOM     17  C   LIG    1       27.107 -18.562   4.362  0.00  0.00    +0.181 C 
BRANCH  17  18
ATOM     18  N   LIG    1       26.459 -19.893   4.751  0.00  0.00    -0.274 NA
BRANCH  18  19
ATOM     19  C   LIG    1       24.964 -19.685   4.789  0.00  0.00    +0.206 C 
BRANCH  19  20
ATOM     20  C   LIG    1       24.197 -20.740   3.985  0.00  0.00    +0.319 C 
ATOM     21  O   LIG    1       24.234 -20.820   2.765  0.00  0.00    -0.250 OA
BRANCH  20  22
ATOM     22  O   LIG    1       23.425 -21.558   4.742  0.00  0.00    -0.480 OA
ATOM     23  H   LIG    1       22.614 -21.804   4.244  0.00  0.00    +0.295 HD
ENDBRANCH  20  22
ENDBRANCH  19  20
ENDBRANCH  18  19
BRANCH  18  24
ATOM     24  C   LIG    1       26.958 -20.202   6.153  0.00  0.00    +0.206 C 
BRANCH  24  25
ATOM     25  C   LIG    1       28.472 -20.145   6.382  0.00  0.00    +0.319 C 
ATOM     26  O   LIG    1       29.080 -19.107   6.577  0.00  0.00    -0.250 OA
BRANCH  25  27
ATOM     27  O   LIG    1       29.100 -21.336   6.299  0.00  0.00    -0.480 OA
ATOM     28  H   LIG    1       29.784 -21.323   5.604  0.00  0.00    +0.295 HD
ENDBRANCH  25  27
ENDBRANCH  24  25
ENDBRANCH  18  24
ENDBRANCH  17  18
ENDBRANCH   3  17
TORSDOF 11
ENDMDL
MODEL 9
REMARK VINA RESULT:      -1.7      2.602      6.336
REMARK  Name = *****
REMARK                            x       y       z     vdW  Elec       q    Type
REMARK                         _______ _______ _______ _____ _____    ______ ____
ROOT
ATOM      1  N   LIG    1       26.113 -16.229   4.430  0.00  0.00    -0.284 N 
ATOM      2  H   LIG    1       26.874 -16.002   5.056  0.00  0.00    +0.155 HD
ATOM      3  C   LIG    1       26.261 -17.410   3.685  0.00  0.00    +0.231 C 
ATOM      4  O   LIG    1       25.714 -17.637   2.611  0.00  0.00    -0.274 OA
ENDROOT
BRANCH   1   6
ATOM      5  C   LIG    1       26.005 -14.014   3.339  0.00  0.00    -0.023 A 
ATOM      6  C   LIG    1       25.356 -15.111   3.982  0.00  0.00    +0.040 A 
ATOM      7  C   LIG    1       23.932 -15.139   4.074  0.00  0.00    -0.023 A 
ATOM      8  C   LIG    1       23.203 -14.042   3.553  0.00  0.00    +0.006 A 
ATOM      9  C   LIG    1       23.831 -12.960   2.955  0.00  0.00    +0.001 A 
ATOM     10  C   LIG    1       25.219 -12.957   2.839  0.00  0.00    +0.006 A 
BRANCH   5  12
ATOM     11  C   LIG    1       28.027 -12.534   2.939  0.00  0.00    +0.012 C 
ATOM     12  C   LIG    1       27.511 -13.975   3.051  0.00  0.00    +0.015 C 
ATOM     13  C   LIG    1       28.361 -14.736   4.083  0.00  0.00    +0.012 C 
ENDBRANCH   5  12
BRANCH   7  14
ATOM     14  C   LIG    1       23.050 -16.210   4.725  0.00  0.00    +0.015 C 
ATOM     15  C   LIG    1       22.421 -17.261   3.812  0.00  0.00    +0.012 C 
ATOM     16  C   LIG    1       21.989 -15.593   5.643  0.00  0.00    +0.012 C 
ENDBRANCH   7  14
ENDBRANCH   1   6
BRANCH   3  17
ATOM     17  C   LIG    1       27.224 -18.422   4.369  0.00  0.00    +0.181 C 
BRANCH  17  18
ATOM     18  N   LIG    1       26.590 -19.762   4.753  0.00  0.00    -0.274 NA
BRANCH  18  19
ATOM     19  C   LIG    1       25.092 -19.571   4.784  0.00  0.00    +0.206 C 
BRANCH  19  20
ATOM     20  C   LIG    1       24.338 -20.662   4.017  0.00  0.00    +0.319 C 
ATOM     21  O   LIG    1       24.255 -20.699   2.798  0.00  0.00    -0.250 OA
BRANCH  20  22
ATOM     22  O   LIG    1       23.721 -21.572   4.813  0.00  0.00    -0.480 OA
ATOM     23  H   LIG    1       23.020 -22.035   4.305  0.00  0.00    +0.295 HD
ENDBRANCH  20  22
ENDBRANCH  19  20
ENDBRANCH  18  19
BRANCH  18  24
ATOM     24  C   LIG    1       27.085 -20.069   6.156  0.00  0.00    +0.206 C 
BRANCH  24  25
ATOM     25  C   LIG    1       28.602 -20.157   6.355  0.00  0.00    +0.319 C 
ATOM     26  O   LIG    1       29.314 -19.180   6.512  0.00  0.00    -0.250 OA
BRANCH  25  27
ATOM     27  O   LIG    1       29.108 -21.405   6.291  0.00  0.00    -0.480 OA
ATOM     28  H   LIG    1       28.522 -22.044   6.739  0.00  0.00    +0.295 HD
ENDBRANCH  25  27
ENDBRANCH  24  25
ENDBRANCH  18  24
ENDBRANCH  17  18
ENDBRANCH   3  17
TORSDOF 11
ENDMDL
