MODEL 1
REMARK VINA RESULT:       1.3      0.000      0.000
REMARK  Name = *****
REMARK                            x       y       z     vdW  Elec       q    Type
REMARK                         _______ _______ _______ _____ _____    ______ ____
ROOT
ATOM      1  C   LIG    1       24.861 -19.060   3.617  0.00  0.00    +0.101 C 
ENDROOT
BRANCH   1   2
ATOM      2  N   LIG    1       25.809 -19.926   4.395  0.00  0.00    -0.277 NA
BRANCH   2   3
ATOM      3  C   LIG    1       25.221 -21.139   5.005  0.00  0.00    +0.206 C 
BRANCH   3   4
ATOM      4  C   LIG    1       23.728 -21.157   5.357  0.00  0.00    +0.319 C 
ATOM      5  O   LIG    1       23.327 -20.982   6.501  0.00  0.00    -0.250 OA
BRANCH   4   6
ATOM      6  O   LIG    1       22.855 -21.430   4.373  0.00  0.00    -0.480 OA
ATOM      7  H   LIG    1       22.359 -22.236   4.569  0.00  0.00    +0.295 HD
ENDBRANCH   4   6
ENDBRANCH   3   4
ENDBRANCH   2   3
BRANCH   2   8
ATOM      8  C   LIG    1       26.889 -19.205   5.188  0.00  0.00    +0.192 C 
BRANCH   8   9
ATOM      9  C   LIG    1       27.404 -20.058   6.338  0.00  0.00    +0.324 C 
ATOM     10  O   LIG    1       26.735 -20.788   7.053  0.00  0.00    -0.249 OA
BRANCH   9  11
ATOM     11  O   LIG    1       28.631 -19.687   6.753  0.00  0.00    -0.479 OA
ATOM     12  H   LIG    1       28.471 -19.147   7.559  0.00  0.00    +0.295 HD
ENDBRANCH   9  11
ENDBRANCH   8   9
BRANCH   8  13
ATOM     13  C   LIG    1       28.195 -18.695   4.477  0.00  0.00    +0.190 C 
BRANCH  13  14
ATOM     14  O   LIG    1       28.427 -17.275   4.661  0.00  0.00    -0.373 OA
BRANCH  14  15
ATOM     15  C   LIG    1       27.431 -16.432   4.091  0.00  0.00    +0.195 C 
BRANCH  15  16
ATOM     16  C   LIG    1       27.705 -14.969   4.353  0.00  0.00    -0.022 A 
ATOM     17  C   LIG    1       28.740 -14.298   3.679  0.00  0.00    +0.006 A 
ATOM     18  C   LIG    1       29.056 -12.973   3.996  0.00  0.00    +0.000 A 
ATOM     19  C   LIG    1       28.329 -12.297   4.974  0.00  0.00    +0.000 A 
ATOM     20  C   LIG    1       27.291 -12.946   5.640  0.00  0.00    +0.000 A 
ATOM     21  C   LIG    1       26.980 -14.273   5.329  0.00  0.00    +0.006 A 
ENDBRANCH  15  16
ENDBRANCH  14  15
ENDBRANCH  13  14
ENDBRANCH   8  13
ENDBRANCH   2   8
ENDBRANCH   1   2
BRANCH   1  22
ATOM     22  C   LIG    1       25.012 -17.479   3.612  0.00  0.00    +0.100 C 
BRANCH  22  23
ATOM     23  N   LIG    1       23.912 -16.799   4.349  0.00  0.00    -0.290 NA
BRANCH  23  24
ATOM     24  C   LIG    1       23.335 -15.591   3.690  0.00  0.00    +0.100 C 
BRANCH  24  25
ATOM     25  C   LIG    1       23.828 -14.132   4.104  0.00  0.00    +0.101 C 
BRANCH  25  26
ATOM     26  N   LIG    1       23.525 -12.863   3.320  0.00  0.00    -0.281 NA
BRANCH  26  27
ATOM     27  C   LIG    1       24.201 -12.863   1.961  0.00  0.00    +0.206 C 
BRANCH  27  28
ATOM     28  C   LIG    1       25.694 -13.173   1.884  0.00  0.00    +0.319 C 
ATOM     29  O   LIG    1       26.268 -14.293   1.854  0.00  0.00    -0.250 OA
BRANCH  28  30
ATOM     30  O   LIG    1       26.415 -12.104   1.958  0.00  0.00    -0.480 OA
ATOM     31  H   LIG    1       27.199 -12.356   1.414  0.00  0.00    +0.295 HD
ENDBRANCH  28  30
ENDBRANCH  27  28
ENDBRANCH  26  27
BRANCH  26  32
ATOM     32  C   LIG    1       24.135 -11.709   4.116  0.00  0.00    +0.206 C 
BRANCH  32  33
ATOM     33  C   LIG    1       23.727 -11.602   5.598  0.00  0.00    +0.319 C 
ATOM     34  O   LIG    1       22.565 -11.456   5.962  0.00  0.00    -0.250 OA
BRANCH  33  35
ATOM     35  O   LIG    1       24.740 -11.643   6.494  0.00  0.00    -0.480 OA
ATOM     36  H   LIG    1       25.561 -11.958   6.065  0.00  0.00    +0.295 HD
ENDBRANCH  33  35
ENDBRANCH  32  33
ENDBRANCH  26  32
ENDBRANCH  25  26
ENDBRANCH  24  25
ENDBRANCH  23  24
BRANCH  23  37
ATOM     37  C   LIG    1       22.837 -17.742   4.826  0.00  0.00    +0.205 C 
BRANCH  37  39
ATOM     38  O   LIG    1       20.552 -17.848   3.817  0.00  0.00    -0.250 OA
ATOM     39  C   LIG    1       21.762 -18.051   3.771  0.00  0.00    +0.319 C 
BRANCH  39  40
ATOM     40  O   LIG    1       22.234 -18.748   2.712  0.00  0.00    -0.480 OA
ATOM     41  H   LIG    1       21.804 -18.270   1.963  0.00  0.00    +0.295 HD
ENDBRANCH  39  40
ENDBRANCH  37  39
ENDBRANCH  23  37
ENDBRANCH  22  23
ENDBRANCH   1  22
TORSDOF 25
ENDMDL
MODEL 2
REMARK VINA RESULT:       2.4      1.541      4.653
REMARK  Name = *****
REMARK                            x       y       z     vdW  Elec       q    Type
REMARK                         _______ _______ _______ _____ _____    ______ ____
ROOT
ATOM      1  C   LIG    1       25.220 -18.161   3.714  0.00  0.00    +0.101 C 
ENDROOT
BRANCH   1   2
ATOM      2  N   LIG    1       26.240 -19.217   4.029  0.00  0.00    -0.277 NA
BRANCH   2   3
ATOM      3  C   LIG    1       25.824 -20.613   3.765  0.00  0.00    +0.206 C 
BRANCH   3   4
ATOM      4  C   LIG    1       24.478 -20.880   3.079  0.00  0.00    +0.319 C 
ATOM      5  O   LIG    1       24.217 -20.441   1.965  0.00  0.00    -0.250 OA
BRANCH   4   6
ATOM      6  O   LIG    1       23.552 -21.572   3.763  0.00  0.00    -0.480 OA
ATOM      7  H   LIG    1       23.085 -22.187   3.182  0.00  0.00    +0.295 HD
ENDBRANCH   4   6
ENDBRANCH   3   4
ENDBRANCH   2   3
BRANCH   2   8
ATOM      8  C   LIG    1       27.112 -18.972   5.250  0.00  0.00    +0.192 C 
BRANCH   8   9
ATOM      9  C   LIG    1       27.202 -20.210   6.132  0.00  0.00    +0.324 C 
ATOM     10  O   LIG    1       26.410 -20.537   7.002  0.00  0.00    -0.249 OA
BRANCH   9  11
ATOM     11  O   LIG    1       28.430 -20.765   6.128  0.00  0.00    -0.479 OA
ATOM     12  H   LIG    1       28.932 -20.268   6.812  0.00  0.00    +0.295 HD
ENDBRANCH   9  11
ENDBRANCH   8   9
BRANCH   8  13
ATOM     13  C   LIG    1       28.606 -18.514   5.085  0.00  0.00    +0.190 C 
BRANCH  13  14
ATOM     14  O   LIG    1       28.776 -17.076   5.179  0.00  0.00    -0.373 OA
BRANCH  14  15
ATOM     15  C   LIG    1       28.159 -16.337   4.131  0.00  0.00    +0.195 C 
BRANCH  15  16
ATOM     16  C   LIG    1       28.058 -14.863   4.456  0.00  0.00    -0.022 A 
ATOM     17  C   LIG    1       28.711 -13.905   3.662  0.00  0.00    +0.006 A 
ATOM     18  C   LIG    1       28.700 -12.553   4.022  0.00  0.00    +0.000 A 
ATOM     19  C   LIG    1       28.019 -12.142   5.167  0.00  0.00    +0.000 A 
ATOM     20  C   LIG    1       27.356 -13.081   5.955  0.00  0.00    +0.000 A 
ATOM     21  C   LIG    1       27.373 -14.432   5.600  0.00  0.00    +0.006 A 
ENDBRANCH  15  16
ENDBRANCH  14  15
ENDBRANCH  13  14
ENDBRANCH   8  13
ENDBRANCH   2   8
ENDBRANCH   1   2
BRANCH   1  22
ATOM     22  C   LIG    1       25.642 -16.795   3.023  0.00  0.00    +0.100 C 
BRANCH  22  23
ATOM     23  N   LIG    1       24.645 -15.713   3.242  0.00  0.00    -0.290 NA
BRANCH  23  24
ATOM     24  C   LIG    1       23.774 -15.863   4.444  0.00  0.00    +0.100 C 
BRANCH  24  25
ATOM     25  C   LIG    1       22.254 -16.325   4.289  0.00  0.00    +0.101 C 
BRANCH  25  26
ATOM     26  N   LIG    1       21.696 -17.643   4.806  0.00  0.00    -0.281 NA
BRANCH  26  27
ATOM     27  C   LIG    1       22.698 -18.381   5.675  0.00  0.00    +0.206 C 
BRANCH  27  28
ATOM     28  C   LIG    1       22.609 -19.902   5.768  0.00  0.00    +0.319 C 
ATOM     29  O   LIG    1       21.695 -20.667   5.364  0.00  0.00    -0.250 OA
BRANCH  28  30
ATOM     30  O   LIG    1       23.587 -20.403   6.447  0.00  0.00    -0.480 OA
ATOM     31  H   LIG    1       24.355 -20.214   5.856  0.00  0.00    +0.295 HD
ENDBRANCH  28  30
ENDBRANCH  27  28
ENDBRANCH  26  27
BRANCH  26  32
ATOM     32  C   LIG    1       21.450 -18.518   3.577  0.00  0.00    +0.206 C 
BRANCH  32  33
ATOM     33  C   LIG    1       19.992 -18.631   3.091  0.00  0.00    +0.319 C 
ATOM     34  O   LIG    1       19.422 -17.736   2.477  0.00  0.00    -0.250 OA
BRANCH  33  35
ATOM     35  O   LIG    1       19.350 -19.778   3.412  0.00  0.00    -0.480 OA
ATOM     36  H   LIG    1       18.611 -19.939   2.791  0.00  0.00    +0.295 HD
ENDBRANCH  33  35
ENDBRANCH  32  33
ENDBRANCH  26  32
ENDBRANCH  25  26
ENDBRANCH  24  25
ENDBRANCH  23  24
BRANCH  23  37
ATOM     37  C   LIG    1       25.231 -14.327   3.146  0.00  0.00    +0.205 C 
BRANCH  37  39
ATOM     38  O   LIG    1       23.740 -12.731   4.365  0.00  0.00    -0.250 OA
ATOM     39  C   LIG    1       24.201 -13.199   3.327  0.00  0.00    +0.319 C 
BRANCH  39  40
ATOM     40  O   LIG    1       23.665 -12.770   2.162  0.00  0.00    -0.480 OA
ATOM     41  H   LIG    1       23.107 -12.019   2.475  0.00  0.00    +0.295 HD
ENDBRANCH  39  40
ENDBRANCH  37  39
ENDBRANCH  23  37
ENDBRANCH  22  23
ENDBRANCH   1  22
TORSDOF 25
ENDMDL
MODEL 3
REMARK VINA RESULT:       2.8      1.878      6.693
REMARK  Name = *****
REMARK                            x       y       z     vdW  Elec       q    Type
REMARK                         _______ _______ _______ _____ _____    ______ ____
ROOT
ATOM      1  C   LIG    1       26.832 -13.990   5.636  0.00  0.00    +0.101 C 
ENDROOT
BRANCH   1   2
ATOM      2  N   LIG    1       27.779 -14.741   4.745  0.00  0.00    -0.277 NA
BRANCH   2   3
ATOM      3  C   LIG    1       28.058 -14.118   3.432  0.00  0.00    +0.206 C 
BRANCH   3   4
ATOM      4  C   LIG    1       28.415 -12.628   3.366  0.00  0.00    +0.319 C 
ATOM      5  O   LIG    1       29.365 -12.159   3.982  0.00  0.00    -0.250 OA
BRANCH   4   6
ATOM      6  O   LIG    1       27.614 -11.821   2.650  0.00  0.00    -0.480 OA
ATOM      7  H   LIG    1       27.028 -12.338   2.081  0.00  0.00    +0.295 HD
ENDBRANCH   4   6
ENDBRANCH   3   4
ENDBRANCH   2   3
BRANCH   2   8
ATOM      8  C   LIG    1       27.690 -16.259   4.789  0.00  0.00    +0.192 C 
BRANCH   8   9
ATOM      9  C   LIG    1       26.836 -16.803   3.652  0.00  0.00    +0.324 C 
ATOM     10  O   LIG    1       26.348 -16.155   2.740  0.00  0.00    -0.249 OA
BRANCH   9  11
ATOM     11  O   LIG    1       26.351 -18.033   3.909  0.00  0.00    -0.479 OA
ATOM     12  H   LIG    1       26.170 -18.035   4.876  0.00  0.00    +0.295 HD
ENDBRANCH   9  11
ENDBRANCH   8   9
BRANCH   8  13
ATOM     13  C   LIG    1       28.993 -17.136   4.740  0.00  0.00    +0.190 C 
BRANCH  13  14
ATOM     14  O   LIG    1       28.722 -18.555   4.618  0.00  0.00    -0.373 OA
BRANCH  14  15
ATOM     15  C   LIG    1       28.560 -19.237   5.858  0.00  0.00    +0.195 C 
BRANCH  15  16
ATOM     16  C   LIG    1       27.320 -20.101   5.875  0.00  0.00    -0.022 A 
ATOM     17  C   LIG    1       26.932 -20.827   4.736  0.00  0.00    +0.006 A 
ATOM     18  C   LIG    1       25.732 -21.545   4.723  0.00  0.00    +0.000 A 
ATOM     19  C   LIG    1       24.917 -21.563   5.853  0.00  0.00    +0.000 A 
ATOM     20  C   LIG    1       25.297 -20.859   6.994  0.00  0.00    +0.000 A 
ATOM     21  C   LIG    1       26.492 -20.135   7.005  0.00  0.00    +0.006 A 
ENDBRANCH  15  16
ENDBRANCH  14  15
ENDBRANCH  13  14
ENDBRANCH   8  13
ENDBRANCH   2   8
ENDBRANCH   1   2
BRANCH   1  22
ATOM     22  C   LIG    1       25.517 -13.317   5.052  0.00  0.00    +0.100 C 
BRANCH  22  23
ATOM     23  N   LIG    1       24.669 -14.282   4.302  0.00  0.00    -0.290 NA
BRANCH  23  24
ATOM     24  C   LIG    1       23.621 -14.985   5.098  0.00  0.00    +0.100 C 
BRANCH  24  25
ATOM     25  C   LIG    1       22.425 -15.746   4.367  0.00  0.00    +0.101 C 
BRANCH  25  26
ATOM     26  N   LIG    1       22.138 -17.234   4.501  0.00  0.00    -0.281 NA
BRANCH  26  27
ATOM     27  C   LIG    1       22.757 -18.035   3.371  0.00  0.00    +0.206 C 
BRANCH  27  28
ATOM     28  C   LIG    1       23.422 -19.371   3.697  0.00  0.00    +0.319 C 
ATOM     29  O   LIG    1       24.045 -20.152   2.930  0.00  0.00    -0.250 OA
BRANCH  28  30
ATOM     30  O   LIG    1       23.198 -19.739   4.915  0.00  0.00    -0.480 OA
ATOM     31  H   LIG    1       22.677 -20.567   4.778  0.00  0.00    +0.295 HD
ENDBRANCH  28  30
ENDBRANCH  27  28
ENDBRANCH  26  27
BRANCH  26  32
ATOM     32  C   LIG    1       20.622 -17.393   4.375  0.00  0.00    +0.206 C 
BRANCH  32  33
ATOM     33  C   LIG    1       20.115 -18.294   3.232  0.00  0.00    +0.319 C 
ATOM     34  O   LIG    1       19.971 -17.895   2.082  0.00  0.00    -0.250 OA
BRANCH  33  35
ATOM     35  O   LIG    1       19.799 -19.563   3.576  0.00  0.00    -0.480 OA
ATOM     36  H   LIG    1       18.848 -19.629   3.798  0.00  0.00    +0.295 HD
ENDBRANCH  33  35
ENDBRANCH  32  33
ENDBRANCH  26  32
ENDBRANCH  25  26
ENDBRANCH  24  25
ENDBRANCH  23  24
BRANCH  23  37
ATOM     37  C   LIG    1       24.112 -13.721   3.018  0.00  0.00    +0.205 C 
BRANCH  37  39
ATOM     38  O   LIG    1       23.463 -11.453   3.846  0.00  0.00    -0.250 OA
ATOM     39  C   LIG    1       23.982 -12.189   3.011  0.00  0.00    +0.319 C 
BRANCH  39  40
ATOM     40  O   LIG    1       24.401 -11.619   1.857  0.00  0.00    -0.480 OA
ATOM     41  H   LIG    1       24.466 -10.672   2.126  0.00  0.00    +0.295 HD
ENDBRANCH  39  40
ENDBRANCH  37  39
ENDBRANCH  23  37
ENDBRANCH  22  23
ENDBRANCH   1  22
TORSDOF 25
ENDMDL
MODEL 4
REMARK VINA RESULT:       3.5      1.828      4.962
REMARK  Name = *****
REMARK                            x       y       z     vdW  Elec       q    Type
REMARK                         _______ _______ _______ _____ _____    ______ ____
ROOT
ATOM      1  C   LIG    1       22.872 -16.901   4.544  0.00  0.00    +0.101 C 
ENDROOT
BRANCH   1   2
ATOM      2  N   LIG    1       23.054 -18.386   4.419  0.00  0.00    -0.277 NA
BRANCH   2   3
ATOM      3  C   LIG    1       22.294 -19.212   5.385  0.00  0.00    +0.206 C 
BRANCH   3   4
ATOM      4  C   LIG    1       22.386 -20.740   5.304  0.00  0.00    +0.319 C 
ATOM      5  O   LIG    1       21.532 -21.414   4.738  0.00  0.00    -0.250 OA
BRANCH   4   6
ATOM      6  O   LIG    1       23.412 -21.342   5.928  0.00  0.00    -0.480 OA
ATOM      7  H   LIG    1       23.130 -22.179   6.321  0.00  0.00    +0.295 HD
ENDBRANCH   4   6
ENDBRANCH   3   4
ENDBRANCH   2   3
BRANCH   2   8
ATOM      8  C   LIG    1       24.446 -18.868   4.040  0.00  0.00    +0.192 C 
BRANCH   8   9
ATOM      9  C   LIG    1       24.392 -19.967   2.987  0.00  0.00    +0.324 C 
ATOM     10  O   LIG    1       23.603 -20.040   2.058  0.00  0.00    -0.249 OA
BRANCH   9  11
ATOM     11  O   LIG    1       25.072 -21.071   3.352  0.00  0.00    -0.479 OA
ATOM     12  H   LIG    1       25.817 -20.738   3.901  0.00  0.00    +0.295 HD
ENDBRANCH   9  11
ENDBRANCH   8   9
BRANCH   8  13
ATOM     13  C   LIG    1       25.516 -17.860   3.483  0.00  0.00    +0.190 C 
BRANCH  13  14
ATOM     14  O   LIG    1       26.856 -18.412   3.447  0.00  0.00    -0.373 OA
BRANCH  14  15
ATOM     15  C   LIG    1       27.675 -18.054   4.556  0.00  0.00    +0.195 C 
BRANCH  15  16
ATOM     16  C   LIG    1       27.928 -19.224   5.479  0.00  0.00    -0.022 A 
ATOM     17  C   LIG    1       29.234 -19.557   5.878  0.00  0.00    +0.006 A 
ATOM     18  C   LIG    1       29.475 -20.699   6.649  0.00  0.00    +0.000 A 
ATOM     19  C   LIG    1       28.413 -21.508   7.049  0.00  0.00    +0.000 A 
ATOM     20  C   LIG    1       27.112 -21.180   6.672  0.00  0.00    +0.000 A 
ATOM     21  C   LIG    1       26.871 -20.045   5.895  0.00  0.00    +0.006 A 
ENDBRANCH  15  16
ENDBRANCH  14  15
ENDBRANCH  13  14
ENDBRANCH   8  13
ENDBRANCH   2   8
ENDBRANCH   1   2
BRANCH   1  22
ATOM     22  C   LIG    1       23.654 -15.898   3.593  0.00  0.00    +0.100 C 
BRANCH  22  23
ATOM     23  N   LIG    1       23.612 -14.495   4.086  0.00  0.00    -0.290 NA
BRANCH  23  24
ATOM     24  C   LIG    1       24.841 -14.010   4.778  0.00  0.00    +0.100 C 
BRANCH  24  25
ATOM     25  C   LIG    1       26.157 -14.911   4.814  0.00  0.00    +0.101 C 
BRANCH  25  26
ATOM     26  N   LIG    1       27.575 -14.364   4.888  0.00  0.00    -0.281 NA
BRANCH  26  27
ATOM     27  C   LIG    1       27.614 -12.964   5.472  0.00  0.00    +0.206 C 
BRANCH  27  28
ATOM     28  C   LIG    1       28.813 -12.072   5.163  0.00  0.00    +0.319 C 
ATOM     29  O   LIG    1       29.300 -11.761   4.044  0.00  0.00    -0.250 OA
BRANCH  28  30
ATOM     30  O   LIG    1       29.424 -11.693   6.236  0.00  0.00    -0.480 OA
ATOM     31  H   LIG    1       28.665 -11.451   6.820  0.00  0.00    +0.295 HD
ENDBRANCH  28  30
ENDBRANCH  27  28
ENDBRANCH  26  27
BRANCH  26  32
ATOM     32  C   LIG    1       28.069 -14.253   3.445  0.00  0.00    +0.206 C 
BRANCH  32  33
ATOM     33  C   LIG    1       27.036 -13.801   2.395  0.00  0.00    +0.319 C 
ATOM     34  O   LIG    1       26.259 -14.575   1.846  0.00  0.00    -0.250 OA
BRANCH  33  35
ATOM     35  O   LIG    1       27.053 -12.486   2.078  0.00  0.00    -0.480 OA
ATOM     36  H   LIG    1       26.487 -12.317   1.297  0.00  0.00    +0.295 HD
ENDBRANCH  33  35
ENDBRANCH  32  33
ENDBRANCH  26  32
ENDBRANCH  25  26
ENDBRANCH  24  25
ENDBRANCH  23  24
BRANCH  23  37
ATOM     37  C   LIG    1       23.126 -13.510   3.053  0.00  0.00    +0.205 C 
BRANCH  37  39
ATOM     38  O   LIG    1       24.583 -11.608   2.336  0.00  0.00    -0.250 OA
ATOM     39  C   LIG    1       23.809 -12.134   3.132  0.00  0.00    +0.319 C 
BRANCH  39  40
ATOM     40  O   LIG    1       23.599 -11.496   4.306  0.00  0.00    -0.480 OA
ATOM     41  H   LIG    1       22.875 -10.874   4.058  0.00  0.00    +0.295 HD
ENDBRANCH  39  40
ENDBRANCH  37  39
ENDBRANCH  23  37
ENDBRANCH  22  23
ENDBRANCH   1  22
TORSDOF 25
ENDMDL
MODEL 5
REMARK VINA RESULT:       3.5      1.998      6.037
REMARK  Name = *****
REMARK                            x       y       z     vdW  Elec       q    Type
REMARK                         _______ _______ _______ _____ _____    ______ ____
ROOT
ATOM      1  C   LIG    1       27.902 -16.932   3.841  0.00  0.00    +0.101 C 
ENDROOT
BRANCH   1   2
ATOM      2  N   LIG    1       27.878 -17.796   5.069  0.00  0.00    -0.277 NA
BRANCH   2   3
ATOM      3  C   LIG    1       29.190 -18.321   5.512  0.00  0.00    +0.206 C 
BRANCH   3   4
ATOM      4  C   LIG    1       29.316 -19.800   5.900  0.00  0.00    +0.319 C 
ATOM      5  O   LIG    1       29.474 -20.156   7.062  0.00  0.00    -0.250 OA
BRANCH   4   6
ATOM      6  O   LIG    1       29.306 -20.710   4.913  0.00  0.00    -0.480 OA
ATOM      7  H   LIG    1       28.761 -20.410   4.174  0.00  0.00    +0.295 HD
ENDBRANCH   4   6
ENDBRANCH   3   4
ENDBRANCH   2   3
BRANCH   2   8
ATOM      8  C   LIG    1       26.674 -18.711   5.230  0.00  0.00    +0.192 C 
BRANCH   8   9
ATOM      9  C   LIG    1       26.378 -19.479   3.949  0.00  0.00    +0.324 C 
ATOM     10  O   LIG    1       26.946 -20.489   3.564  0.00  0.00    -0.249 OA
BRANCH   9  11
ATOM     11  O   LIG    1       25.656 -18.761   3.067  0.00  0.00    -0.479 OA
ATOM     12  H   LIG    1       25.670 -17.843   3.420  0.00  0.00    +0.295 HD
ENDBRANCH   9  11
ENDBRANCH   8   9
BRANCH   8  13
ATOM     13  C   LIG    1       26.655 -19.815   6.349  0.00  0.00    +0.190 C 
BRANCH  13  14
ATOM     14  O   LIG    1       26.182 -21.101   5.874  0.00  0.00    -0.373 OA
BRANCH  14  15
ATOM     15  C   LIG    1       24.989 -21.562   6.499  0.00  0.00    +0.195 C 
BRANCH  15  16
ATOM     16  C   LIG    1       23.780 -21.405   5.605  0.00  0.00    -0.022 A 
ATOM     17  C   LIG    1       23.928 -21.194   4.223  0.00  0.00    +0.006 A 
ATOM     18  C   LIG    1       22.814 -20.948   3.415  0.00  0.00    +0.000 A 
ATOM     19  C   LIG    1       21.537 -20.931   3.974  0.00  0.00    +0.000 A 
ATOM     20  C   LIG    1       21.375 -21.153   5.341  0.00  0.00    +0.000 A 
ATOM     21  C   LIG    1       22.489 -21.391   6.150  0.00  0.00    +0.006 A 
ENDBRANCH  15  16
ENDBRANCH  14  15
ENDBRANCH  13  14
ENDBRANCH   8  13
ENDBRANCH   2   8
ENDBRANCH   1   2
BRANCH   1  22
ATOM     22  C   LIG    1       26.705 -15.941   3.514  0.00  0.00    +0.100 C 
BRANCH  22  23
ATOM     23  N   LIG    1       26.979 -14.549   3.963  0.00  0.00    -0.290 NA
BRANCH  23  24
ATOM     24  C   LIG    1       26.201 -14.080   5.146  0.00  0.00    +0.100 C 
BRANCH  24  25
ATOM     25  C   LIG    1       24.614 -14.241   5.185  0.00  0.00    +0.101 C 
BRANCH  25  26
ATOM     26  N   LIG    1       23.764 -14.696   4.008  0.00  0.00    -0.281 NA
BRANCH  26  27
ATOM     27  C   LIG    1       23.213 -13.521   3.220  0.00  0.00    +0.206 C 
BRANCH  27  28
ATOM     28  C   LIG    1       24.184 -12.651   2.425  0.00  0.00    +0.319 C 
ATOM     29  O   LIG    1       24.056 -11.452   2.063  0.00  0.00    -0.250 OA
BRANCH  28  30
ATOM     30  O   LIG    1       25.211 -13.320   2.018  0.00  0.00    -0.480 OA
ATOM     31  H   LIG    1       25.151 -13.198   1.040  0.00  0.00    +0.295 HD
ENDBRANCH  28  30
ENDBRANCH  27  28
ENDBRANCH  26  27
BRANCH  26  32
ATOM     32  C   LIG    1       22.561 -15.429   4.604  0.00  0.00    +0.206 C 
BRANCH  32  33
ATOM     33  C   LIG    1       22.494 -16.950   4.368  0.00  0.00    +0.319 C 
ATOM     34  O   LIG    1       21.449 -17.541   4.118  0.00  0.00    -0.250 OA
BRANCH  33  35
ATOM     35  O   LIG    1       23.664 -17.618   4.487  0.00  0.00    -0.480 OA
ATOM     36  H   LIG    1       24.225 -17.203   5.174  0.00  0.00    +0.295 HD
ENDBRANCH  33  35
ENDBRANCH  32  33
ENDBRANCH  26  32
ENDBRANCH  25  26
ENDBRANCH  24  25
ENDBRANCH  23  24
BRANCH  23  37
ATOM     37  C   LIG    1       28.449 -14.242   4.104  0.00  0.00    +0.205 C 
BRANCH  37  39
ATOM     38  O   LIG    1       28.812 -12.055   2.948  0.00  0.00    -0.250 OA
ATOM     39  C   LIG    1       28.792 -12.750   3.960  0.00  0.00    +0.319 C 
BRANCH  39  40
ATOM     40  O   LIG    1       29.244 -12.190   5.106  0.00  0.00    -0.480 OA
ATOM     41  H   LIG    1       29.620 -11.343   4.767  0.00  0.00    +0.295 HD
ENDBRANCH  39  40
ENDBRANCH  37  39
ENDBRANCH  23  37
ENDBRANCH  22  23
ENDBRANCH   1  22
TORSDOF 25
ENDMDL
MODEL 6
REMARK VINA RESULT:       3.7      1.047      2.266
REMARK  Name = *****
REMARK                            x       y       z     vdW  Elec       q    Type
REMARK                         _______ _______ _______ _____ _____    ______ ____
ROOT
ATOM      1  C   LIG    1       25.253 -18.980   3.689  0.00  0.00    +0.101 C 
ENDROOT
BRANCH   1   2
ATOM      2  N   LIG    1       26.128 -19.847   4.547  0.00  0.00    -0.277 NA
BRANCH   2   3
ATOM      3  C   LIG    1       25.477 -21.042   5.131  0.00  0.00    +0.206 C 
BRANCH   3   4
ATOM      4  C   LIG    1       23.956 -21.049   5.327  0.00  0.00    +0.319 C 
ATOM      5  O   LIG    1       23.186 -21.394   4.437  0.00  0.00    -0.250 OA
BRANCH   4   6
ATOM      6  O   LIG    1       23.471 -20.605   6.499  0.00  0.00    -0.480 OA
ATOM      7  H   LIG    1       22.858 -21.247   6.881  0.00  0.00    +0.295 HD
ENDBRANCH   4   6
ENDBRANCH   3   4
ENDBRANCH   2   3
BRANCH   2   8
ATOM      8  C   LIG    1       27.158 -19.130   5.407  0.00  0.00    +0.192 C 
BRANCH   8   9
ATOM      9  C   LIG    1       28.203 -20.094   5.951  0.00  0.00    +0.324 C 
ATOM     10  O   LIG    1       27.985 -21.164   6.497  0.00  0.00    -0.249 OA
BRANCH   9  11
ATOM     11  O   LIG    1       29.412 -19.519   6.107  0.00  0.00    -0.479 OA
ATOM     12  H   LIG    1       29.369 -18.696   5.569  0.00  0.00    +0.295 HD
ENDBRANCH   9  11
ENDBRANCH   8   9
BRANCH   8  13
ATOM     13  C   LIG    1       28.005 -17.945   4.815  0.00  0.00    +0.190 C 
BRANCH  13  14
ATOM     14  O   LIG    1       27.193 -16.927   4.176  0.00  0.00    -0.373 OA
BRANCH  14  15
ATOM     15  C   LIG    1       27.928 -15.975   3.414  0.00  0.00    +0.195 C 
BRANCH  15  16
ATOM     16  C   LIG    1       27.998 -14.629   4.100  0.00  0.00    -0.022 A 
ATOM     17  C   LIG    1       28.706 -13.562   3.520  0.00  0.00    +0.006 A 
ATOM     18  C   LIG    1       28.854 -12.350   4.202  0.00  0.00    +0.000 A 
ATOM     19  C   LIG    1       28.280 -12.183   5.461  0.00  0.00    +0.000 A 
ATOM     20  C   LIG    1       27.563 -13.229   6.041  0.00  0.00    +0.000 A 
ATOM     21  C   LIG    1       27.422 -14.443   5.363  0.00  0.00    +0.006 A 
ENDBRANCH  15  16
ENDBRANCH  14  15
ENDBRANCH  13  14
ENDBRANCH   8  13
ENDBRANCH   2   8
ENDBRANCH   1   2
BRANCH   1  22
ATOM     22  C   LIG    1       23.676 -19.164   3.679  0.00  0.00    +0.100 C 
BRANCH  22  23
ATOM     23  N   LIG    1       22.978 -18.148   4.513  0.00  0.00    -0.290 NA
BRANCH  23  24
ATOM     24  C   LIG    1       23.059 -16.740   4.027  0.00  0.00    +0.100 C 
BRANCH  24  25
ATOM     25  C   LIG    1       24.474 -16.026   3.848  0.00  0.00    +0.101 C 
BRANCH  25  26
ATOM     26  N   LIG    1       24.686 -14.519   3.839  0.00  0.00    -0.281 NA
BRANCH  26  27
ATOM     27  C   LIG    1       23.618 -13.792   4.636  0.00  0.00    +0.206 C 
BRANCH  27  28
ATOM     28  C   LIG    1       23.894 -12.363   5.100  0.00  0.00    +0.319 C 
ATOM     29  O   LIG    1       24.863 -11.923   5.771  0.00  0.00    -0.250 OA
BRANCH  28  30
ATOM     30  O   LIG    1       22.917 -11.567   4.817  0.00  0.00    -0.480 OA
ATOM     31  H   LIG    1       22.141 -12.174   4.881  0.00  0.00    +0.295 HD
ENDBRANCH  28  30
ENDBRANCH  27  28
ENDBRANCH  26  27
BRANCH  26  32
ATOM     32  C   LIG    1       24.532 -14.072   2.385  0.00  0.00    +0.206 C 
BRANCH  32  33
ATOM     33  C   LIG    1       25.090 -12.681   2.027  0.00  0.00    +0.319 C 
ATOM     34  O   LIG    1       24.381 -11.687   1.910  0.00  0.00    -0.250 OA
BRANCH  33  35
ATOM     35  O   LIG    1       26.424 -12.617   1.812  0.00  0.00    -0.480 OA
ATOM     36  H   LIG    1       26.611 -12.538   0.854  0.00  0.00    +0.295 HD
ENDBRANCH  33  35
ENDBRANCH  32  33
ENDBRANCH  26  32
ENDBRANCH  25  26
ENDBRANCH  24  25
ENDBRANCH  23  24
BRANCH  23  37
ATOM     37  C   LIG    1       21.567 -18.535   4.874  0.00  0.00    +0.205 C 
BRANCH  37  39
ATOM     38  O   LIG    1       19.828 -19.389   3.294  0.00  0.00    -0.250 OA
ATOM     39  C   LIG    1       20.588 -18.509   3.688  0.00  0.00    +0.319 C 
BRANCH  39  40
ATOM     40  O   LIG    1       20.694 -17.395   2.928  0.00  0.00    -0.480 OA
ATOM     41  H   LIG    1       19.805 -17.371   2.502  0.00  0.00    +0.295 HD
ENDBRANCH  39  40
ENDBRANCH  37  39
ENDBRANCH  23  37
ENDBRANCH  22  23
ENDBRANCH   1  22
TORSDOF 25
ENDMDL
