MODEL 1
REMARK VINA RESULT:      -5.2      0.000      0.000
REMARK  Name = *****
REMARK                            x       y       z     vdW  Elec       q    Type
REMARK                         _______ _______ _______ _____ _____    ______ ____
ROOT
ATOM      1  C   LIG    1       27.158 -18.292   4.276  0.00  0.00    +0.161 A 
ATOM      2  C   LIG    1       26.241 -17.544   3.523  0.00  0.00    +0.170 A 
ATOM      3  C   LIG    1       24.944 -18.036   3.341  0.00  0.00    +0.051 A 
ATOM      4  C   LIG    1       24.582 -19.281   3.862  0.00  0.00    +0.024 A 
ATOM      5  C   LIG    1       25.515 -20.030   4.573  0.00  0.00    +0.045 A 
ATOM      6 CL   LIG    1       25.073 -21.569   5.204  0.00  0.00    -0.083 Cl
ATOM      7  C   LIG    1       26.803 -19.541   4.788  0.00  0.00    +0.069 A 
ENDROOT
BRANCH   1   8
ATOM      8  O   LIG    1       28.411 -17.808   4.538  0.00  0.00    -0.503 OA
ATOM      9  H   LIG    1       28.777 -17.389   3.745  0.00  0.00    +0.292 HD
ENDBRANCH   1   8
BRANCH   2  10
ATOM     10  O   LIG    1       26.463 -16.298   2.971  0.00  0.00    -0.451 OA
BRANCH  10  11
ATOM     11  C   LIG    1       25.835 -15.206   3.524  0.00  0.00    +0.147 A 
ATOM     12  C   LIG    1       26.611 -14.104   3.903  0.00  0.00    +0.085 A 
ATOM     13 CL   LIG    1       28.329 -14.109   3.724  0.00  0.00    -0.080 Cl
ATOM     14  C   LIG    1       26.001 -12.965   4.429  0.00  0.00    +0.043 A 
ATOM     15  C   LIG    1       24.617 -12.939   4.587  0.00  0.00    +0.043 A 
ATOM     16 CL   LIG    1       23.854 -11.518   5.187  0.00  0.00    -0.084 Cl
ATOM     17  C   LIG    1       23.841 -14.052   4.263  0.00  0.00    +0.023 A 
ATOM     18  C   LIG    1       24.453 -15.196   3.749  0.00  0.00    +0.049 A 
ENDBRANCH  10  11
ENDBRANCH   2  10
TORSDOF 3
ENDMDL
MODEL 2
REMARK VINA RESULT:      -4.9      1.222      5.623
REMARK  Name = *****
REMARK                            x       y       z     vdW  Elec       q    Type
REMARK                         _______ _______ _______ _____ _____    ______ ____
ROOT
ATOM      1  C   LIG    1       26.967 -14.340   4.060  0.00  0.00    +0.161 A 
ATOM      2  C   LIG    1       26.176 -15.387   3.564  0.00  0.00    +0.170 A 
ATOM      3  C   LIG    1       24.784 -15.238   3.537  0.00  0.00    +0.051 A 
ATOM      4  C   LIG    1       24.188 -14.080   4.042  0.00  0.00    +0.024 A 
ATOM      5  C   LIG    1       24.985 -13.066   4.567  0.00  0.00    +0.045 A 
ATOM      6 CL   LIG    1       24.250 -11.645   5.202  0.00  0.00    -0.083 Cl
ATOM      7  C   LIG    1       26.374 -13.186   4.576  0.00  0.00    +0.069 A 
ENDROOT
BRANCH   1   8
ATOM      8  O   LIG    1       28.333 -14.419   4.033  0.00  0.00    -0.503 OA
ATOM      9  H   LIG    1       28.699 -14.106   4.874  0.00  0.00    +0.292 HD
ENDBRANCH   1   8
BRANCH   2  10
ATOM     10  O   LIG    1       26.636 -16.570   3.022  0.00  0.00    -0.451 OA
BRANCH  10  11
ATOM     11  C   LIG    1       26.208 -17.759   3.567  0.00  0.00    +0.147 A 
ATOM     12  C   LIG    1       27.069 -18.455   4.424  0.00  0.00    +0.085 A 
ATOM     13 CL   LIG    1       28.657 -17.870   4.772  0.00  0.00    -0.080 Cl
ATOM     14  C   LIG    1       26.651 -19.642   5.026  0.00  0.00    +0.043 A 
ATOM     15  C   LIG    1       25.377 -20.136   4.757  0.00  0.00    +0.043 A 
ATOM     16 CL   LIG    1       24.837 -21.572   5.536  0.00  0.00    -0.084 Cl
ATOM     17  C   LIG    1       24.531 -19.478   3.863  0.00  0.00    +0.023 A 
ATOM     18  C   LIG    1       24.955 -18.298   3.251  0.00  0.00    +0.049 A 
ENDBRANCH  10  11
ENDBRANCH   2  10
TORSDOF 3
ENDMDL
MODEL 3
REMARK VINA RESULT:      -4.9      1.750      5.928
REMARK  Name = *****
REMARK                            x       y       z     vdW  Elec       q    Type
REMARK                         _______ _______ _______ _____ _____    ______ ____
ROOT
ATOM      1  C   LIG    1       26.899 -14.521   3.885  0.00  0.00    +0.161 A 
ATOM      2  C   LIG    1       26.165 -15.670   3.558  0.00  0.00    +0.170 A 
ATOM      3  C   LIG    1       24.768 -15.638   3.646  0.00  0.00    +0.051 A 
ATOM      4  C   LIG    1       24.117 -14.489   4.101  0.00  0.00    +0.024 A 
ATOM      5  C   LIG    1       24.861 -13.369   4.461  0.00  0.00    +0.045 A 
ATOM      6 CL   LIG    1       24.060 -11.958   5.035  0.00  0.00    -0.083 Cl
ATOM      7  C   LIG    1       26.252 -13.375   4.352  0.00  0.00    +0.069 A 
ENDROOT
BRANCH   1   8
ATOM      8  O   LIG    1       28.260 -14.492   3.740  0.00  0.00    -0.503 OA
ATOM      9  H   LIG    1       28.600 -13.617   3.981  0.00  0.00    +0.292 HD
ENDBRANCH   1   8
BRANCH   2  10
ATOM     10  O   LIG    1       26.681 -16.859   3.080  0.00  0.00    -0.451 OA
BRANCH  10  11
ATOM     11  C   LIG    1       27.104 -17.807   3.983  0.00  0.00    +0.147 A 
ATOM     12  C   LIG    1       26.269 -18.899   4.252  0.00  0.00    +0.085 A 
ATOM     13 CL   LIG    1       24.719 -19.052   3.505  0.00  0.00    -0.080 Cl
ATOM     14  C   LIG    1       26.685 -19.900   5.130  0.00  0.00    +0.043 A 
ATOM     15  C   LIG    1       27.930 -19.797   5.747  0.00  0.00    +0.043 A 
ATOM     16 CL   LIG    1       28.470 -21.053   6.792  0.00  0.00    -0.084 Cl
ATOM     17  C   LIG    1       28.745 -18.686   5.528  0.00  0.00    +0.023 A 
ATOM     18  C   LIG    1       28.323 -17.679   4.659  0.00  0.00    +0.049 A 
ENDBRANCH  10  11
ENDBRANCH   2  10
TORSDOF 3
ENDMDL
MODEL 4
REMARK VINA RESULT:      -4.8      1.867      2.735
REMARK  Name = *****
REMARK                            x       y       z     vdW  Elec       q    Type
REMARK                         _______ _______ _______ _____ _____    ______ ____
ROOT
ATOM      1  C   LIG    1       25.354 -19.361   4.416  0.00  0.00    +0.161 A 
ATOM      2  C   LIG    1       24.466 -18.421   3.872  0.00  0.00    +0.170 A 
ATOM      3  C   LIG    1       23.124 -18.440   4.269  0.00  0.00    +0.051 A 
ATOM      4  C   LIG    1       22.665 -19.413   5.160  0.00  0.00    +0.024 A 
ATOM      5  C   LIG    1       23.550 -20.364   5.660  0.00  0.00    +0.045 A 
ATOM      6 CL   LIG    1       22.981 -21.572   6.747  0.00  0.00    -0.083 Cl
ATOM      7  C   LIG    1       24.896 -20.343   5.297  0.00  0.00    +0.069 A 
ENDROOT
BRANCH   1   8
ATOM      8  O   LIG    1       26.688 -19.326   4.109  0.00  0.00    -0.503 OA
ATOM      9  H   LIG    1       27.200 -19.061   4.888  0.00  0.00    +0.292 HD
ENDBRANCH   1   8
BRANCH   2  10
ATOM     10  O   LIG    1       24.791 -17.401   3.001  0.00  0.00    -0.451 OA
BRANCH  10  11
ATOM     11  C   LIG    1       25.511 -16.328   3.476  0.00  0.00    +0.147 A 
ATOM     12  C   LIG    1       24.815 -15.226   3.989  0.00  0.00    +0.085 A 
ATOM     13 CL   LIG    1       23.089 -15.178   4.000  0.00  0.00    -0.080 Cl
ATOM     14  C   LIG    1       25.514 -14.140   4.517  0.00  0.00    +0.043 A 
ATOM     15  C   LIG    1       26.907 -14.155   4.515  0.00  0.00    +0.043 A 
ATOM     16 CL   LIG    1       27.774 -12.841   5.210  0.00  0.00    -0.084 Cl
ATOM     17  C   LIG    1       27.609 -15.223   3.957  0.00  0.00    +0.023 A 
ATOM     18  C   LIG    1       26.909 -16.304   3.418  0.00  0.00    +0.049 A 
ENDBRANCH  10  11
ENDBRANCH   2  10
TORSDOF 3
ENDMDL
MODEL 5
REMARK VINA RESULT:      -4.6      1.781      2.308
REMARK  Name = *****
REMARK                            x       y       z     vdW  Elec       q    Type
REMARK                         _______ _______ _______ _____ _____    ______ ____
ROOT
ATOM      1  C   LIG    1       25.815 -19.881   4.510  0.00  0.00    +0.161 A 
ATOM      2  C   LIG    1       25.347 -18.836   3.699  0.00  0.00    +0.170 A 
ATOM      3  C   LIG    1       23.974 -18.566   3.658  0.00  0.00    +0.051 A 
ATOM      4  C   LIG    1       23.077 -19.358   4.378  0.00  0.00    +0.024 A 
ATOM      5  C   LIG    1       23.553 -20.417   5.147  0.00  0.00    +0.045 A 
ATOM      6 CL   LIG    1       22.446 -21.402   6.023  0.00  0.00    -0.083 Cl
ATOM      7  C   LIG    1       24.920 -20.683   5.221  0.00  0.00    +0.069 A 
ENDROOT
BRANCH   1   8
ATOM      8  O   LIG    1       27.156 -20.127   4.633  0.00  0.00    -0.503 OA
ATOM      9  H   LIG    1       27.591 -19.380   5.070  0.00  0.00    +0.292 HD
ENDBRANCH   1   8
BRANCH   2  10
ATOM     10  O   LIG    1       26.123 -17.971   2.955  0.00  0.00    -0.451 OA
BRANCH  10  11
ATOM     11  C   LIG    1       26.324 -16.692   3.423  0.00  0.00    +0.147 A 
ATOM     12  C   LIG    1       27.485 -16.419   4.156  0.00  0.00    +0.085 A 
ATOM     13 CL   LIG    1       28.637 -17.656   4.510  0.00  0.00    -0.080 Cl
ATOM     14  C   LIG    1       27.739 -15.124   4.609  0.00  0.00    +0.043 A 
ATOM     15  C   LIG    1       26.822 -14.110   4.339  0.00  0.00    +0.043 A 
ATOM     16 CL   LIG    1       27.155 -12.502   4.851  0.00  0.00    -0.084 Cl
ATOM     17  C   LIG    1       25.637 -14.384   3.656  0.00  0.00    +0.023 A 
ATOM     18  C   LIG    1       25.377 -15.682   3.215  0.00  0.00    +0.049 A 
ENDBRANCH  10  11
ENDBRANCH   2  10
TORSDOF 3
ENDMDL
MODEL 6
REMARK VINA RESULT:      -4.3      1.291      1.938
REMARK  Name = *****
REMARK                            x       y       z     vdW  Elec       q    Type
REMARK                         _______ _______ _______ _____ _____    ______ ____
ROOT
ATOM      1  C   LIG    1       26.013 -18.651   3.966  0.00  0.00    +0.161 A 
ATOM      2  C   LIG    1       26.822 -17.518   3.800  0.00  0.00    +0.170 A 
ATOM      3  C   LIG    1       28.062 -17.462   4.448  0.00  0.00    +0.051 A 
ATOM      4  C   LIG    1       28.467 -18.503   5.287  0.00  0.00    +0.024 A 
ATOM      5  C   LIG    1       27.636 -19.604   5.473  0.00  0.00    +0.045 A 
ATOM      6 CL   LIG    1       28.129 -20.880   6.517  0.00  0.00    -0.083 Cl
ATOM      7  C   LIG    1       26.409 -19.688   4.814  0.00  0.00    +0.069 A 
ENDROOT
BRANCH   1   8
ATOM      8  O   LIG    1       24.829 -18.773   3.291  0.00  0.00    -0.503 OA
ATOM      9  H   LIG    1       24.680 -19.700   3.047  0.00  0.00    +0.292 HD
ENDBRANCH   1   8
BRANCH   2  10
ATOM     10  O   LIG    1       26.550 -16.433   2.990  0.00  0.00    -0.451 OA
BRANCH  10  11
ATOM     11  C   LIG    1       25.876 -15.360   3.524  0.00  0.00    +0.147 A 
ATOM     12  C   LIG    1       26.594 -14.197   3.829  0.00  0.00    +0.085 A 
ATOM     13 CL   LIG    1       28.301 -14.105   3.582  0.00  0.00    -0.080 Cl
ATOM     14  C   LIG    1       25.934 -13.076   4.333  0.00  0.00    +0.043 A 
ATOM     15  C   LIG    1       24.558 -13.129   4.544  0.00  0.00    +0.043 A 
ATOM     16 CL   LIG    1       23.730 -11.734   5.117  0.00  0.00    -0.084 Cl
ATOM     17  C   LIG    1       23.842 -14.300   4.296  0.00  0.00    +0.023 A 
ATOM     18  C   LIG    1       24.505 -15.425   3.804  0.00  0.00    +0.049 A 
ENDBRANCH  10  11
ENDBRANCH   2  10
TORSDOF 3
ENDMDL
MODEL 7
REMARK VINA RESULT:      -4.2      1.878      5.794
REMARK  Name = *****
REMARK                            x       y       z     vdW  Elec       q    Type
REMARK                         _______ _______ _______ _____ _____    ______ ____
ROOT
ATOM      1  C   LIG    1       24.854 -15.512   3.904  0.00  0.00    +0.161 A 
ATOM      2  C   LIG    1       25.677 -16.555   3.453  0.00  0.00    +0.170 A 
ATOM      3  C   LIG    1       27.068 -16.410   3.528  0.00  0.00    +0.051 A 
ATOM      4  C   LIG    1       27.628 -15.222   4.002  0.00  0.00    +0.024 A 
ATOM      5  C   LIG    1       26.799 -14.180   4.409  0.00  0.00    +0.045 A 
ATOM      6 CL   LIG    1       27.490 -12.711   4.980  0.00  0.00    -0.083 Cl
ATOM      7  C   LIG    1       25.412 -14.318   4.367  0.00  0.00    +0.069 A 
ENDROOT
BRANCH   1   8
ATOM      8  O   LIG    1       23.493 -15.647   3.914  0.00  0.00    -0.503 OA
ATOM      9  H   LIG    1       23.113 -15.240   3.121  0.00  0.00    +0.292 HD
ENDBRANCH   1   8
BRANCH   2  10
ATOM     10  O   LIG    1       25.254 -17.781   2.981  0.00  0.00    -0.451 OA
BRANCH  10  11
ATOM     11  C   LIG    1       24.686 -18.671   3.863  0.00  0.00    +0.147 A 
ATOM     12  C   LIG    1       25.527 -19.483   4.634  0.00  0.00    +0.085 A 
ATOM     13 CL   LIG    1       27.245 -19.413   4.468  0.00  0.00    -0.080 Cl
ATOM     14  C   LIG    1       24.985 -20.367   5.568  0.00  0.00    +0.043 A 
ATOM     15  C   LIG    1       23.602 -20.444   5.717  0.00  0.00    +0.043 A 
ATOM     16 CL   LIG    1       22.930 -21.494   6.902  0.00  0.00    -0.084 Cl
ATOM     17  C   LIG    1       22.755 -19.678   4.916  0.00  0.00    +0.023 A 
ATOM     18  C   LIG    1       23.297 -18.804   3.972  0.00  0.00    +0.049 A 
ENDBRANCH  10  11
ENDBRANCH   2  10
TORSDOF 3
ENDMDL
MODEL 8
REMARK VINA RESULT:      -4.1      2.126      3.315
REMARK  Name = *****
REMARK                            x       y       z     vdW  Elec       q    Type
REMARK                         _______ _______ _______ _____ _____    ______ ____
ROOT
ATOM      1  C   LIG    1       22.970 -18.602   4.423  0.00  0.00    +0.161 A 
ATOM      2  C   LIG    1       24.280 -18.329   4.004  0.00  0.00    +0.170 A 
ATOM      3  C   LIG    1       25.333 -19.106   4.502  0.00  0.00    +0.051 A 
ATOM      4  C   LIG    1       25.086 -20.109   5.442  0.00  0.00    +0.024 A 
ATOM      5  C   LIG    1       23.785 -20.342   5.879  0.00  0.00    +0.045 A 
ATOM      6 CL   LIG    1       23.483 -21.569   7.047  0.00  0.00    -0.083 Cl
ATOM      7  C   LIG    1       22.721 -19.596   5.372  0.00  0.00    +0.069 A 
ENDROOT
BRANCH   1   8
ATOM      8  O   LIG    1       21.908 -17.913   3.902  0.00  0.00    -0.503 OA
ATOM      9  H   LIG    1       21.904 -17.992   2.936  0.00  0.00    +0.292 HD
ENDBRANCH   1   8
BRANCH   2  10
ATOM     10  O   LIG    1       24.658 -17.383   3.072  0.00  0.00    -0.451 OA
BRANCH  10  11
ATOM     11  C   LIG    1       25.428 -16.319   3.482  0.00  0.00    +0.147 A 
ATOM     12  C   LIG    1       24.786 -15.175   3.972  0.00  0.00    +0.085 A 
ATOM     13 CL   LIG    1       23.064 -15.066   4.032  0.00  0.00    -0.080 Cl
ATOM     14  C   LIG    1       25.537 -14.094   4.435  0.00  0.00    +0.043 A 
ATOM     15  C   LIG    1       26.929 -14.157   4.392  0.00  0.00    +0.043 A 
ATOM     16 CL   LIG    1       27.861 -12.849   5.008  0.00  0.00    -0.084 Cl
ATOM     17  C   LIG    1       27.576 -15.271   3.856  0.00  0.00    +0.023 A 
ATOM     18  C   LIG    1       26.824 -16.346   3.381  0.00  0.00    +0.049 A 
ENDBRANCH  10  11
ENDBRANCH   2  10
TORSDOF 3
ENDMDL
MODEL 9
REMARK VINA RESULT:      -3.9      1.722      6.087
REMARK  Name = *****
REMARK                            x       y       z     vdW  Elec       q    Type
REMARK                         _______ _______ _______ _____ _____    ______ ____
ROOT
ATOM      1  C   LIG    1       24.189 -15.906   3.957  0.00  0.00    +0.161 A 
ATOM      2  C   LIG    1       25.463 -16.110   3.407  0.00  0.00    +0.170 A 
ATOM      3  C   LIG    1       26.351 -15.031   3.320  0.00  0.00    +0.051 A 
ATOM      4  C   LIG    1       25.955 -13.756   3.731  0.00  0.00    +0.024 A 
ATOM      5  C   LIG    1       24.672 -13.561   4.237  0.00  0.00    +0.045 A 
ATOM      6 CL   LIG    1       24.180 -11.988   4.731  0.00  0.00    -0.083 Cl
ATOM      7  C   LIG    1       23.785 -14.630   4.357  0.00  0.00    +0.069 A 
ENDROOT
BRANCH   1   8
ATOM      8  O   LIG    1       23.322 -16.951   4.126  0.00  0.00    -0.503 OA
ATOM      9  H   LIG    1       22.667 -16.957   3.412  0.00  0.00    +0.292 HD
ENDBRANCH   1   8
BRANCH   2  10
ATOM     10  O   LIG    1       25.984 -17.315   2.982  0.00  0.00    -0.451 OA
BRANCH  10  11
ATOM     11  C   LIG    1       26.646 -18.109   3.890  0.00  0.00    +0.147 A 
ATOM     12  C   LIG    1       26.045 -19.305   4.301  0.00  0.00    +0.085 A 
ATOM     13 CL   LIG    1       24.488 -19.775   3.721  0.00  0.00    -0.080 Cl
ATOM     14  C   LIG    1       26.707 -20.153   5.190  0.00  0.00    +0.043 A 
ATOM     15  C   LIG    1       27.962 -19.793   5.675  0.00  0.00    +0.043 A 
ATOM     16 CL   LIG    1       28.805 -20.858   6.731  0.00  0.00    -0.084 Cl
ATOM     17  C   LIG    1       28.545 -18.578   5.314  0.00  0.00    +0.023 A 
ATOM     18  C   LIG    1       27.877 -17.724   4.435  0.00  0.00    +0.049 A 
ENDBRANCH  10  11
ENDBRANCH   2  10
TORSDOF 3
ENDMDL
