MODEL 1
REMARK VINA RESULT:      -8.8      0.000      0.000
REMARK  Name = *****
REMARK                            x       y       z     vdW  Elec       q    Type
REMARK                         _______ _______ _______ _____ _____    ______ ____
ROOT
ATOM      1  C   LIG    1       25.325 -19.219   3.796  0.00  0.00    +0.036 C 
ATOM      2  C   LIG    1       24.673 -20.430   4.393  0.00  0.00    -0.021 C 
ATOM      3  C   LIG    1       25.068 -21.136   5.476  0.00  0.00    -0.015 C 
ENDROOT
BRANCH   3   4
ATOM      4  C   LIG    1       26.249 -20.677   6.241  0.00  0.00    -0.017 A 
ATOM      5  C   LIG    1       26.201 -20.608   7.641  0.00  0.00    +0.012 A 
ATOM      6  C   LIG    1       27.329 -20.214   8.363  0.00  0.00    +0.046 A 
ATOM      7  C   LIG    1       28.499 -19.882   7.688  0.00  0.00    +0.117 A 
ATOM      8  C   LIG    1       28.561 -19.931   6.300  0.00  0.00    +0.046 A 
ATOM      9  C   LIG    1       27.434 -20.330   5.576  0.00  0.00    +0.012 A 
BRANCH   7  10
ATOM     10  O   LIG    1       29.578 -19.512   8.435  0.00  0.00    -0.507 OA
ATOM     11  H   LIG    1       29.857 -20.272   8.972  0.00  0.00    +0.292 HD
ENDBRANCH   7  10
ENDBRANCH   3   4
BRANCH   3  12
ATOM     12  C   LIG    1       24.304 -22.332   5.891  0.00  0.00    -0.015 C 
ATOM     13  C   LIG    1       23.048 -22.191   6.357  0.00  0.00    -0.021 C 
ATOM     14  C   LIG    1       22.123 -23.277   6.814  0.00  0.00    +0.036 C 
BRANCH  12  15
ATOM     15  C   LIG    1       24.913 -23.683   5.825  0.00  0.00    -0.017 A 
ATOM     16  C   LIG    1       24.791 -24.446   4.656  0.00  0.00    +0.012 A 
ATOM     17  C   LIG    1       25.337 -25.729   4.590  0.00  0.00    +0.046 A 
ATOM     18  C   LIG    1       26.003 -26.250   5.694  0.00  0.00    +0.117 A 
ATOM     19  C   LIG    1       26.135 -25.509   6.863  0.00  0.00    +0.046 A 
ATOM     20  C   LIG    1       25.590 -24.223   6.928  0.00  0.00    +0.012 A 
BRANCH  18  21
ATOM     21  O   LIG    1       26.512 -27.513   5.587  0.00  0.00    -0.507 OA
ATOM     22  H   LIG    1       25.773 -28.139   5.522  0.00  0.00    +0.292 HD
ENDBRANCH  18  21
ENDBRANCH  12  15
ENDBRANCH   3  12
TORSDOF 5
ENDMDL
MODEL 2
REMARK VINA RESULT:      -8.8      0.077      5.655
REMARK  Name = *****
REMARK                            x       y       z     vdW  Elec       q    Type
REMARK                         _______ _______ _______ _____ _____    ______ ____
ROOT
ATOM      1  C   LIG    1       22.159 -23.318   6.857  0.00  0.00    +0.036 C 
ATOM      2  C   LIG    1       23.077 -22.243   6.359  0.00  0.00    -0.021 C 
ATOM      3  C   LIG    1       24.342 -22.379   5.901  0.00  0.00    -0.015 C 
ENDROOT
BRANCH   3   4
ATOM      4  C   LIG    1       24.930 -23.733   5.807  0.00  0.00    -0.017 A 
ATOM      5  C   LIG    1       25.603 -24.289   6.904  0.00  0.00    +0.012 A 
ATOM      6  C   LIG    1       26.123 -25.582   6.828  0.00  0.00    +0.046 A 
ATOM      7  C   LIG    1       25.976 -26.316   5.656  0.00  0.00    +0.117 A 
ATOM      8  C   LIG    1       25.323 -25.777   4.552  0.00  0.00    +0.046 A 
ATOM      9  C   LIG    1       24.799 -24.483   4.630  0.00  0.00    +0.012 A 
BRANCH   7  10
ATOM     10  O   LIG    1       26.490 -27.579   5.630  0.00  0.00    -0.507 OA
ATOM     11  H   LIG    1       27.136 -27.635   4.906  0.00  0.00    +0.292 HD
ENDBRANCH   7  10
ENDBRANCH   3   4
BRANCH   3  12
ATOM     12  C   LIG    1       25.102 -21.182   5.484  0.00  0.00    -0.015 C 
ATOM     13  C   LIG    1       24.733 -20.512   4.375  0.00  0.00    -0.021 C 
ATOM     14  C   LIG    1       25.371 -19.283   3.802  0.00  0.00    +0.036 C 
BRANCH  12  15
ATOM     15  C   LIG    1       26.284 -20.725   6.255  0.00  0.00    -0.017 A 
ATOM     16  C   LIG    1       26.229 -20.682   7.655  0.00  0.00    +0.012 A 
ATOM     17  C   LIG    1       27.324 -20.230   8.392  0.00  0.00    +0.046 A 
ATOM     18  C   LIG    1       28.475 -19.818   7.729  0.00  0.00    +0.117 A 
ATOM     19  C   LIG    1       28.551 -19.852   6.341  0.00  0.00    +0.046 A 
ATOM     20  C   LIG    1       27.453 -20.307   5.603  0.00  0.00    +0.012 A 
BRANCH  18  21
ATOM     21  O   LIG    1       29.518 -19.374   8.490  0.00  0.00    -0.507 OA
ATOM     22  H   LIG    1       29.763 -18.483   8.189  0.00  0.00    +0.292 HD
ENDBRANCH  18  21
ENDBRANCH  12  15
ENDBRANCH   3  12
TORSDOF 5
ENDMDL
MODEL 3
REMARK VINA RESULT:      -8.2      3.365      7.662
REMARK  Name = *****
REMARK                            x       y       z     vdW  Elec       q    Type
REMARK                         _______ _______ _______ _____ _____    ______ ____
ROOT
ATOM      1  C   LIG    1       28.553 -18.139   4.882  0.00  0.00    +0.036 C 
ATOM      2  C   LIG    1       29.415 -18.627   6.007  0.00  0.00    -0.021 C 
ATOM      3  C   LIG    1       29.068 -19.450   7.021  0.00  0.00    -0.015 C 
ENDROOT
BRANCH   3   4
ATOM      4  C   LIG    1       27.700 -20.014   7.052  0.00  0.00    -0.017 A 
ATOM      5  C   LIG    1       27.050 -20.221   8.277  0.00  0.00    +0.012 A 
ATOM      6  C   LIG    1       25.744 -20.715   8.304  0.00  0.00    +0.046 A 
ATOM      7  C   LIG    1       25.093 -21.008   7.110  0.00  0.00    +0.117 A 
ATOM      8  C   LIG    1       25.728 -20.822   5.886  0.00  0.00    +0.046 A 
ATOM      9  C   LIG    1       27.033 -20.323   5.859  0.00  0.00    +0.012 A 
BRANCH   7  10
ATOM     10  O   LIG    1       23.816 -21.479   7.184  0.00  0.00    -0.507 OA
ATOM     11  H   LIG    1       23.388 -21.092   7.965  0.00  0.00    +0.292 HD
ENDBRANCH   7  10
ENDBRANCH   3   4
BRANCH   3  12
ATOM     12  C   LIG    1       30.061 -19.790   8.062  0.00  0.00    -0.015 C 
ATOM     13  C   LIG    1       30.411 -21.076   8.255  0.00  0.00    -0.021 C 
ATOM     14  C   LIG    1       31.396 -21.611   9.248  0.00  0.00    +0.036 C 
BRANCH  12  15
ATOM     15  C   LIG    1       30.659 -18.734   8.916  0.00  0.00    -0.017 A 
ATOM     16  C   LIG    1       29.981 -18.301  10.065  0.00  0.00    +0.012 A 
ATOM     17  C   LIG    1       30.519 -17.290  10.863  0.00  0.00    +0.046 A 
ATOM     18  C   LIG    1       31.734 -16.711  10.513  0.00  0.00    +0.117 A 
ATOM     19  C   LIG    1       32.422 -17.127   9.379  0.00  0.00    +0.046 A 
ATOM     20  C   LIG    1       31.883 -18.141   8.579  0.00  0.00    +0.012 A 
BRANCH  18  21
ATOM     21  O   LIG    1       32.216 -15.720  11.318  0.00  0.00    -0.507 OA
ATOM     22  H   LIG    1       31.684 -15.694  12.129  0.00  0.00    +0.292 HD
ENDBRANCH  18  21
ENDBRANCH  12  15
ENDBRANCH   3  12
TORSDOF 5
ENDMDL
MODEL 4
REMARK VINA RESULT:      -8.2      3.321      6.113
REMARK  Name = *****
REMARK                            x       y       z     vdW  Elec       q    Type
REMARK                         _______ _______ _______ _____ _____    ______ ____
ROOT
ATOM      1  C   LIG    1       31.395 -21.594   9.273  0.00  0.00    +0.036 C 
ATOM      2  C   LIG    1       30.431 -21.064   8.255  0.00  0.00    -0.021 C 
ATOM      3  C   LIG    1       30.042 -19.783   8.070  0.00  0.00    -0.015 C 
ENDROOT
BRANCH   3   4
ATOM      4  C   LIG    1       30.644 -18.721   8.908  0.00  0.00    -0.017 A 
ATOM      5  C   LIG    1       31.876 -18.154   8.551  0.00  0.00    +0.012 A 
ATOM      6  C   LIG    1       32.424 -17.125   9.319  0.00  0.00    +0.046 A 
ATOM      7  C   LIG    1       31.745 -16.668  10.444  0.00  0.00    +0.117 A 
ATOM      8  C   LIG    1       30.528 -17.228  10.820  0.00  0.00    +0.046 A 
ATOM      9  C   LIG    1       29.978 -18.256  10.050  0.00  0.00    +0.012 A 
BRANCH   7  10
ATOM     10  O   LIG    1       32.312 -15.655  11.158  0.00  0.00    -0.507 OA
ATOM     11  H   LIG    1       32.786 -15.071  10.543  0.00  0.00    +0.292 HD
ENDBRANCH   7  10
ENDBRANCH   3   4
BRANCH   3  12
ATOM     12  C   LIG    1       29.046 -19.463   7.025  0.00  0.00    -0.015 C 
ATOM     13  C   LIG    1       29.380 -18.631   6.019  0.00  0.00    -0.021 C 
ATOM     14  C   LIG    1       28.516 -18.198   4.875  0.00  0.00    +0.036 C 
BRANCH  12  15
ATOM     15  C   LIG    1       27.674 -20.024   7.085  0.00  0.00    -0.017 A 
ATOM     16  C   LIG    1       27.056 -20.221   8.329  0.00  0.00    +0.012 A 
ATOM     17  C   LIG    1       25.776 -20.773   8.401  0.00  0.00    +0.046 A 
ATOM     18  C   LIG    1       25.114 -21.128   7.231  0.00  0.00    +0.117 A 
ATOM     19  C   LIG    1       25.709 -20.940   5.989  0.00  0.00    +0.046 A 
ATOM     20  C   LIG    1       26.991 -20.387   5.916  0.00  0.00    +0.012 A 
BRANCH  18  21
ATOM     21  O   LIG    1       23.868 -21.673   7.351  0.00  0.00    -0.507 OA
ATOM     22  H   LIG    1       23.347 -21.122   7.958  0.00  0.00    +0.292 HD
ENDBRANCH  18  21
ENDBRANCH  12  15
ENDBRANCH   3  12
TORSDOF 5
ENDMDL
MODEL 5
REMARK VINA RESULT:      -7.5      1.498      2.750
REMARK  Name = *****
REMARK                            x       y       z     vdW  Elec       q    Type
REMARK                         _______ _______ _______ _____ _____    ______ ____
ROOT
ATOM      1  C   LIG    1       25.980 -20.047   9.546  0.00  0.00    +0.036 C 
ATOM      2  C   LIG    1       25.431 -20.709   8.318  0.00  0.00    -0.021 C 
ATOM      3  C   LIG    1       26.081 -20.991   7.167  0.00  0.00    -0.015 C 
ENDROOT
BRANCH   3   4
ATOM      4  C   LIG    1       27.524 -20.681   7.063  0.00  0.00    -0.017 A 
ATOM      5  C   LIG    1       27.968 -19.667   6.201  0.00  0.00    +0.012 A 
ATOM      6  C   LIG    1       29.325 -19.347   6.134  0.00  0.00    +0.046 A 
ATOM      7  C   LIG    1       30.238 -20.044   6.919  0.00  0.00    +0.117 A 
ATOM      8  C   LIG    1       29.818 -21.062   7.768  0.00  0.00    +0.046 A 
ATOM      9  C   LIG    1       28.458 -21.380   7.840  0.00  0.00    +0.012 A 
BRANCH   7  10
ATOM     10  O   LIG    1       31.552 -19.691   6.827  0.00  0.00    -0.507 OA
ATOM     11  H   LIG    1       32.035 -20.108   7.560  0.00  0.00    +0.292 HD
ENDBRANCH   7  10
ENDBRANCH   3   4
BRANCH   3  12
ATOM     12  C   LIG    1       25.350 -21.623   6.048  0.00  0.00    -0.015 C 
ATOM     13  C   LIG    1       25.025 -20.889   4.966  0.00  0.00    -0.021 C 
ATOM     14  C   LIG    1       24.297 -21.351   3.741  0.00  0.00    +0.036 C 
BRANCH  12  15
ATOM     15  C   LIG    1       24.944 -23.048   6.114  0.00  0.00    -0.017 A 
ATOM     16  C   LIG    1       25.863 -24.051   5.774  0.00  0.00    +0.012 A 
ATOM     17  C   LIG    1       25.487 -25.395   5.807  0.00  0.00    +0.046 A 
ATOM     18  C   LIG    1       24.191 -25.736   6.177  0.00  0.00    +0.117 A 
ATOM     19  C   LIG    1       23.265 -24.757   6.518  0.00  0.00    +0.046 A 
ATOM     20  C   LIG    1       23.642 -23.411   6.487  0.00  0.00    +0.012 A 
BRANCH  18  21
ATOM     21  O   LIG    1       23.865 -27.062   6.185  0.00  0.00    -0.507 OA
ATOM     22  H   LIG    1       22.898 -27.142   6.216  0.00  0.00    +0.292 HD
ENDBRANCH  18  21
ENDBRANCH  12  15
ENDBRANCH   3  12
TORSDOF 5
ENDMDL
MODEL 6
REMARK VINA RESULT:      -7.5      1.499      5.715
REMARK  Name = *****
REMARK                            x       y       z     vdW  Elec       q    Type
REMARK                         _______ _______ _______ _____ _____    ______ ____
ROOT
ATOM      1  C   LIG    1       24.308 -21.408   3.747  0.00  0.00    +0.036 C 
ATOM      2  C   LIG    1       25.054 -20.947   4.962  0.00  0.00    -0.021 C 
ATOM      3  C   LIG    1       25.358 -21.661   6.069  0.00  0.00    -0.015 C 
ENDROOT
BRANCH   3   4
ATOM      4  C   LIG    1       24.981 -23.090   6.128  0.00  0.00    -0.017 A 
ATOM      5  C   LIG    1       23.679 -23.463   6.493  0.00  0.00    +0.012 A 
ATOM      6  C   LIG    1       23.313 -24.810   6.509  0.00  0.00    +0.046 A 
ATOM      7  C   LIG    1       24.247 -25.782   6.168  0.00  0.00    +0.117 A 
ATOM      8  C   LIG    1       25.546 -25.432   5.815  0.00  0.00    +0.046 A 
ATOM      9  C   LIG    1       25.913 -24.084   5.795  0.00  0.00    +0.012 A 
BRANCH   7  10
ATOM     10  O   LIG    1       23.842 -27.084   6.187  0.00  0.00    -0.507 OA
ATOM     11  H   LIG    1       24.630 -27.653   6.182  0.00  0.00    +0.292 HD
ENDBRANCH   7  10
ENDBRANCH   3   4
BRANCH   3  12
ATOM     12  C   LIG    1       26.078 -21.011   7.185  0.00  0.00    -0.015 C 
ATOM     13  C   LIG    1       25.413 -20.699   8.315  0.00  0.00    -0.021 C 
ATOM     14  C   LIG    1       25.969 -20.050   9.545  0.00  0.00    +0.036 C 
BRANCH  12  15
ATOM     15  C   LIG    1       27.517 -20.672   7.066  0.00  0.00    -0.017 A 
ATOM     16  C   LIG    1       28.460 -21.348   7.853  0.00  0.00    +0.012 A 
ATOM     17  C   LIG    1       29.814 -21.021   7.770  0.00  0.00    +0.046 A 
ATOM     18  C   LIG    1       30.226 -20.017   6.902  0.00  0.00    +0.117 A 
ATOM     19  C   LIG    1       29.308 -19.334   6.113  0.00  0.00    +0.046 A 
ATOM     20  C   LIG    1       27.951 -19.663   6.195  0.00  0.00    +0.012 A 
BRANCH  18  21
ATOM     21  O   LIG    1       31.559 -19.725   6.861  0.00  0.00    -0.507 OA
ATOM     22  H   LIG    1       31.813 -19.320   7.708  0.00  0.00    +0.292 HD
ENDBRANCH  18  21
ENDBRANCH  12  15
ENDBRANCH   3  12
TORSDOF 5
ENDMDL
MODEL 7
REMARK VINA RESULT:      -7.2      1.759      2.873
REMARK  Name = *****
REMARK                            x       y       z     vdW  Elec       q    Type
REMARK                         _______ _______ _______ _____ _____    ______ ____
ROOT
ATOM      1  C   LIG    1       27.798 -20.888   7.996  0.00  0.00    +0.036 C 
ATOM      2  C   LIG    1       26.728 -21.899   7.715  0.00  0.00    -0.021 C 
ATOM      3  C   LIG    1       25.836 -21.901   6.699  0.00  0.00    -0.015 C 
ENDROOT
BRANCH   3   4
ATOM      4  C   LIG    1       25.906 -20.832   5.679  0.00  0.00    -0.017 A 
ATOM      5  C   LIG    1       24.798 -20.560   4.864  0.00  0.00    +0.012 A 
ATOM      6  C   LIG    1       24.851 -19.524   3.930  0.00  0.00    +0.046 A 
ATOM      7  C   LIG    1       26.011 -18.767   3.805  0.00  0.00    +0.117 A 
ATOM      8  C   LIG    1       27.124 -19.030   4.596  0.00  0.00    +0.046 A 
ATOM      9  C   LIG    1       27.070 -20.065   5.534  0.00  0.00    +0.012 A 
BRANCH   7  10
ATOM     10  O   LIG    1       26.014 -17.759   2.887  0.00  0.00    -0.507 OA
ATOM     11  H   LIG    1       25.948 -16.912   3.358  0.00  0.00    +0.292 HD
ENDBRANCH   7  10
ENDBRANCH   3   4
BRANCH   3  12
ATOM     12  C   LIG    1       24.828 -22.979   6.612  0.00  0.00    -0.015 C 
ATOM     13  C   LIG    1       23.537 -22.706   6.884  0.00  0.00    -0.021 C 
ATOM     14  C   LIG    1       22.380 -23.658   6.844  0.00  0.00    +0.036 C 
BRANCH  12  15
ATOM     15  C   LIG    1       25.223 -24.364   6.257  0.00  0.00    -0.017 A 
ATOM     16  C   LIG    1       25.078 -24.813   4.936  0.00  0.00    +0.012 A 
ATOM     17  C   LIG    1       25.422 -26.121   4.594  0.00  0.00    +0.046 A 
ATOM     18  C   LIG    1       25.910 -26.982   5.571  0.00  0.00    +0.117 A 
ATOM     19  C   LIG    1       26.062 -26.556   6.885  0.00  0.00    +0.046 A 
ATOM     20  C   LIG    1       25.719 -25.245   7.229  0.00  0.00    +0.012 A 
BRANCH  18  21
ATOM     21  O   LIG    1       26.224 -28.255   5.191  0.00  0.00    -0.507 OA
ATOM     22  H   LIG    1       26.973 -28.562   5.729  0.00  0.00    +0.292 HD
ENDBRANCH  18  21
ENDBRANCH  12  15
ENDBRANCH   3  12
TORSDOF 5
ENDMDL
MODEL 8
REMARK VINA RESULT:      -7.2      1.253      5.437
REMARK  Name = *****
REMARK                            x       y       z     vdW  Elec       q    Type
REMARK                         _______ _______ _______ _____ _____    ______ ____
ROOT
ATOM      1  C   LIG    1       21.323 -21.132   4.791  0.00  0.00    +0.036 C 
ATOM      2  C   LIG    1       22.649 -20.440   4.703  0.00  0.00    -0.021 C 
ATOM      3  C   LIG    1       23.870 -20.948   4.985  0.00  0.00    -0.015 C 
ENDROOT
BRANCH   3   4
ATOM      4  C   LIG    1       23.982 -22.369   5.384  0.00  0.00    -0.017 A 
ATOM      5  C   LIG    1       24.852 -23.228   4.698  0.00  0.00    +0.012 A 
ATOM      6  C   LIG    1       24.988 -24.558   5.101  0.00  0.00    +0.046 A 
ATOM      7  C   LIG    1       24.249 -25.030   6.181  0.00  0.00    +0.117 A 
ATOM      8  C   LIG    1       23.371 -24.195   6.865  0.00  0.00    +0.046 A 
ATOM      9  C   LIG    1       23.238 -22.862   6.465  0.00  0.00    +0.012 A 
BRANCH   7  10
ATOM     10  O   LIG    1       24.420 -26.332   6.546  0.00  0.00    -0.507 OA
ATOM     11  H   LIG    1       24.860 -26.802   5.818  0.00  0.00    +0.292 HD
ENDBRANCH   7  10
ENDBRANCH   3   4
BRANCH   3  12
ATOM     12  C   LIG    1       25.067 -20.088   4.868  0.00  0.00    -0.015 C 
ATOM     13  C   LIG    1       25.152 -19.199   3.859  0.00  0.00    -0.021 C 
ATOM     14  C   LIG    1       26.273 -18.245   3.582  0.00  0.00    +0.036 C 
BRANCH  12  15
ATOM     15  C   LIG    1       26.189 -20.211   5.831  0.00  0.00    -0.017 A 
ATOM     16  C   LIG    1       27.512 -20.142   5.371  0.00  0.00    +0.012 A 
ATOM     17  C   LIG    1       28.577 -20.282   6.263  0.00  0.00    +0.046 A 
ATOM     18  C   LIG    1       28.319 -20.493   7.613  0.00  0.00    +0.117 A 
ATOM     19  C   LIG    1       27.015 -20.563   8.088  0.00  0.00    +0.046 A 
ATOM     20  C   LIG    1       25.948 -20.422   7.195  0.00  0.00    +0.012 A 
BRANCH  18  21
ATOM     21  O   LIG    1       29.392 -20.634   8.446  0.00  0.00    -0.507 OA
ATOM     22  H   LIG    1       29.877 -21.436   8.191  0.00  0.00    +0.292 HD
ENDBRANCH  18  21
ENDBRANCH  12  15
ENDBRANCH   3  12
TORSDOF 5
ENDMDL
MODEL 9
REMARK VINA RESULT:      -7.1      1.610      6.160
REMARK  Name = *****
REMARK                            x       y       z     vdW  Elec       q    Type
REMARK                         _______ _______ _______ _____ _____    ______ ____
ROOT
ATOM      1  C   LIG    1       25.193 -21.821   9.723  0.00  0.00    +0.036 C 
ATOM      2  C   LIG    1       25.764 -21.087   8.547  0.00  0.00    -0.021 C 
ATOM      3  C   LIG    1       25.863 -21.517   7.270  0.00  0.00    -0.015 C 
ENDROOT
BRANCH   3   4
ATOM      4  C   LIG    1       25.313 -22.843   6.913  0.00  0.00    -0.017 A 
ATOM      5  C   LIG    1       26.171 -23.939   6.737  0.00  0.00    +0.012 A 
ATOM      6  C   LIG    1       25.648 -25.199   6.441  0.00  0.00    +0.046 A 
ATOM      7  C   LIG    1       24.273 -25.363   6.314  0.00  0.00    +0.117 A 
ATOM      8  C   LIG    1       23.408 -24.285   6.472  0.00  0.00    +0.046 A 
ATOM      9  C   LIG    1       23.930 -23.024   6.772  0.00  0.00    +0.012 A 
BRANCH   7  10
ATOM     10  O   LIG    1       23.806 -26.613   6.034  0.00  0.00    -0.507 OA
ATOM     11  H   LIG    1       23.004 -26.529   5.492  0.00  0.00    +0.292 HD
ENDBRANCH   7  10
ENDBRANCH   3   4
BRANCH   3  12
ATOM     12  C   LIG    1       26.494 -20.649   6.252  0.00  0.00    -0.015 C 
ATOM     13  C   LIG    1       25.781 -20.254   5.179  0.00  0.00    -0.021 C 
ATOM     14  C   LIG    1       26.242 -19.377   4.056  0.00  0.00    +0.036 C 
BRANCH  12  15
ATOM     15  C   LIG    1       27.911 -20.231   6.382  0.00  0.00    -0.017 A 
ATOM     16  C   LIG    1       28.772 -20.942   7.232  0.00  0.00    +0.012 A 
ATOM     17  C   LIG    1       30.101 -20.544   7.383  0.00  0.00    +0.046 A 
ATOM     18  C   LIG    1       30.570 -19.435   6.688  0.00  0.00    +0.117 A 
ATOM     19  C   LIG    1       29.733 -18.717   5.841  0.00  0.00    +0.046 A 
ATOM     20  C   LIG    1       28.402 -19.117   5.688  0.00  0.00    +0.012 A 
BRANCH  18  21
ATOM     21  O   LIG    1       31.874 -19.077   6.875  0.00  0.00    -0.507 OA
ATOM     22  H   LIG    1       32.441 -19.739   6.446  0.00  0.00    +0.292 HD
ENDBRANCH  18  21
ENDBRANCH  12  15
ENDBRANCH   3  12
TORSDOF 5
ENDMDL
