MODEL 1
REMARK VINA RESULT:      -2.4      0.000      0.000
REMARK  Name = *****
REMARK                            x       y       z     vdW  Elec       q    Type
REMARK                         _______ _______ _______ _____ _____    ______ ____
ROOT
ATOM      1  C   LIG    1       27.014 -19.721   5.183  0.00  0.00    +0.126 A 
ATOM      2  C   LIG    1       27.689 -18.547   4.892  0.00  0.00    +0.081 A 
ATOM      3  S   LIG    1       29.249 -18.565   5.621  0.00  0.00    -0.092 S 
ATOM      4  C   LIG    1       28.964 -20.044   6.415  0.00  0.00    +0.048 A 
ATOM      5  C   LIG    1       27.728 -20.561   6.102  0.00  0.00    +0.037 A 
ENDROOT
BRANCH   1   6
ATOM      6  S   LIG    1       25.461 -20.179   4.550  0.00  0.00    +0.076 S 
ATOM      7  O   LIG    1       25.485 -19.734   3.171  0.00  0.00    -0.150 OA
ATOM      8  O   LIG    1       25.361 -21.572   4.885  0.00  0.00    -0.150 OA
BRANCH   6   9
ATOM      9  N   LIG    1       24.283 -19.289   5.402  0.00  0.00    -0.182 N 
ATOM     10  H   LIG    1       24.625 -18.322   5.362  0.00  0.00    +0.177 HD
BRANCH   9  15
ATOM     11  C   LIG    1       19.750 -18.503   3.428  0.00  0.00    +0.071 C 
ATOM     12  C   LIG    1       21.013 -19.106   3.916  0.00  0.00    +0.101 A 
ATOM     13  C   LIG    1       22.217 -18.454   4.264  0.00  0.00    +0.126 A 
ATOM     14 CL   LIG    1       22.553 -16.797   4.116  0.00  0.00    -0.076 Cl
ATOM     15  C   LIG    1       23.013 -19.454   4.775  0.00  0.00    +0.255 A 
ATOM     16  O   LIG    1       22.373 -20.645   4.633  0.00  0.00    -0.336 OA
ATOM     17  N   LIG    1       21.104 -20.430   4.113  0.00  0.00    -0.080 NA
ENDBRANCH   9  15
ENDBRANCH   6   9
ENDBRANCH   1   6
BRANCH   2  18
ATOM     18  C   LIG    1       27.221 -17.395   4.107  0.00  0.00    +0.176 C 
ATOM     19  O   LIG    1       26.279 -17.501   3.316  0.00  0.00    -0.291 OA
BRANCH  18  20
ATOM     20  C   LIG    1       27.887 -16.038   4.353  0.00  0.00    +0.115 C 
BRANCH  20  21
ATOM     21  C   LIG    1       27.131 -14.843   3.797  0.00  0.00    -0.033 A 
ATOM     22  C   LIG    1       27.770 -13.625   3.422  0.00  0.00    -0.043 A 
ATOM     23  C   LIG    1       29.237 -13.358   3.633  0.00  0.00    +0.044 C 
ATOM     24  C   LIG    1       27.001 -12.563   2.903  0.00  0.00    +0.053 A 
ATOM     25  C   LIG    1       25.640 -12.727   2.782  0.00  0.00    +0.167 A 
ATOM     26  O   LIG    1       24.766 -11.797   2.312  0.00  0.00    -0.453 OA
ATOM     27  C   LIG    1       23.515 -12.494   2.488  0.00  0.00    +0.466 C 
ATOM     28  O   LIG    1       23.673 -13.841   2.981  0.00  0.00    -0.453 OA
ATOM     29  C   LIG    1       25.020 -13.890   3.159  0.00  0.00    +0.167 A 
ATOM     30  C   LIG    1       25.730 -14.958   3.664  0.00  0.00    +0.053 A 
ENDBRANCH  20  21
ENDBRANCH  18  20
ENDBRANCH   2  18
TORSDOF 6
ENDMDL
MODEL 2
REMARK VINA RESULT:      -1.3      1.530      2.413
REMARK  Name = *****
REMARK                            x       y       z     vdW  Elec       q    Type
REMARK                         _______ _______ _______ _____ _____    ______ ____
ROOT
ATOM      1  C   LIG    1       26.485 -19.768   5.365  0.00  0.00    +0.126 A 
ATOM      2  C   LIG    1       26.854 -18.820   4.425  0.00  0.00    +0.081 A 
ATOM      3  S   LIG    1       28.487 -18.335   4.680  0.00  0.00    -0.092 S 
ATOM      4  C   LIG    1       28.641 -19.270   6.095  0.00  0.00    +0.048 A 
ATOM      5  C   LIG    1       27.497 -19.990   6.358  0.00  0.00    +0.037 A 
ENDROOT
BRANCH   1   6
ATOM      6  S   LIG    1       24.972 -20.621   5.404  0.00  0.00    +0.076 S 
ATOM      7  O   LIG    1       24.759 -21.048   4.034  0.00  0.00    -0.150 OA
ATOM      8  O   LIG    1       25.150 -21.571   6.465  0.00  0.00    -0.150 OA
BRANCH   6   9
ATOM      9  N   LIG    1       23.765 -19.494   5.828  0.00  0.00    -0.182 N 
ATOM     10  H   LIG    1       24.199 -18.582   5.640  0.00  0.00    +0.177 HD
BRANCH   9  15
ATOM     11  C   LIG    1       19.463 -18.955   3.325  0.00  0.00    +0.071 C 
ATOM     12  C   LIG    1       20.698 -19.485   3.950  0.00  0.00    +0.101 A 
ATOM     13  C   LIG    1       21.798 -18.764   4.465  0.00  0.00    +0.126 A 
ATOM     14 CL   LIG    1       22.023 -17.082   4.411  0.00  0.00    -0.076 Cl
ATOM     15  C   LIG    1       22.597 -19.723   5.042  0.00  0.00    +0.255 A 
ATOM     16  O   LIG    1       22.071 -20.951   4.785  0.00  0.00    -0.336 OA
ATOM     17  N   LIG    1       20.864 -20.806   4.116  0.00  0.00    -0.080 NA
ENDBRANCH   9  15
ENDBRANCH   6   9
ENDBRANCH   1   6
BRANCH   2  18
ATOM     18  C   LIG    1       26.040 -18.239   3.346  0.00  0.00    +0.176 C 
ATOM     19  O   LIG    1       26.087 -18.689   2.197  0.00  0.00    -0.291 OA
BRANCH  18  20
ATOM     20  C   LIG    1       25.073 -17.107   3.704  0.00  0.00    +0.115 C 
BRANCH  20  21
ATOM     21  C   LIG    1       25.716 -15.739   3.856  0.00  0.00    -0.033 A 
ATOM     22  C   LIG    1       24.977 -14.564   4.185  0.00  0.00    -0.043 A 
ATOM     23  C   LIG    1       23.477 -14.538   4.315  0.00  0.00    +0.044 C 
ATOM     24  C   LIG    1       25.647 -13.332   4.320  0.00  0.00    +0.053 A 
ATOM     25  C   LIG    1       27.008 -13.290   4.115  0.00  0.00    +0.167 A 
ATOM     26  O   LIG    1       27.791 -12.181   4.196  0.00  0.00    -0.453 OA
ATOM     27  C   LIG    1       29.070 -12.730   3.819  0.00  0.00    +0.466 C 
ATOM     28  O   LIG    1       29.041 -14.156   3.600  0.00  0.00    -0.453 OA
ATOM     29  C   LIG    1       27.718 -14.413   3.779  0.00  0.00    +0.167 A 
ATOM     30  C   LIG    1       27.109 -15.642   3.644  0.00  0.00    +0.053 A 
ENDBRANCH  20  21
ENDBRANCH  18  20
ENDBRANCH   2  18
TORSDOF 6
ENDMDL
MODEL 3
REMARK VINA RESULT:      -0.7      2.275      5.105
REMARK  Name = *****
REMARK                            x       y       z     vdW  Elec       q    Type
REMARK                         _______ _______ _______ _____ _____    ______ ____
ROOT
ATOM      1  C   LIG    1       21.925 -19.284   4.408  0.00  0.00    +0.126 A 
ATOM      2  C   LIG    1       22.180 -18.008   3.932  0.00  0.00    +0.081 A 
ATOM      3  S   LIG    1       20.788 -17.387   3.128  0.00  0.00    -0.092 S 
ATOM      4  C   LIG    1       19.925 -18.846   3.297  0.00  0.00    +0.048 A 
ATOM      5  C   LIG    1       20.645 -19.786   3.998  0.00  0.00    +0.037 A 
ENDROOT
BRANCH   1   6
ATOM      6  S   LIG    1       23.004 -20.233   5.386  0.00  0.00    +0.076 S 
ATOM      7  O   LIG    1       23.224 -19.427   6.571  0.00  0.00    -0.150 OA
ATOM      8  O   LIG    1       22.352 -21.510   5.460  0.00  0.00    -0.150 OA
BRANCH   6   9
ATOM      9  N   LIG    1       24.472 -20.376   4.531  0.00  0.00    -0.182 N 
ATOM     10  H   LIG    1       24.554 -19.485   4.028  0.00  0.00    +0.177 HD
BRANCH   9  15
ATOM     11  C   LIG    1       28.941 -20.461   6.783  0.00  0.00    +0.071 C 
ATOM     12  C   LIG    1       27.513 -20.640   6.432  0.00  0.00    +0.101 A 
ATOM     13  C   LIG    1       26.760 -19.957   5.451  0.00  0.00    +0.126 A 
ATOM     14 CL   LIG    1       27.292 -18.673   4.477  0.00  0.00    -0.076 Cl
ATOM     15  C   LIG    1       25.541 -20.595   5.448  0.00  0.00    +0.255 A 
ATOM     16  O   LIG    1       25.524 -21.520   6.444  0.00  0.00    -0.336 OA
ATOM     17  N   LIG    1       26.770 -21.569   7.054  0.00  0.00    -0.080 NA
ENDBRANCH   9  15
ENDBRANCH   6   9
ENDBRANCH   1   6
BRANCH   2  18
ATOM     18  C   LIG    1       23.421 -17.227   4.032  0.00  0.00    +0.176 C 
ATOM     19  O   LIG    1       24.509 -17.712   3.707  0.00  0.00    -0.291 OA
BRANCH  18  20
ATOM     20  C   LIG    1       23.318 -15.765   4.478  0.00  0.00    +0.115 C 
BRANCH  20  21
ATOM     21  C   LIG    1       24.452 -14.870   4.005  0.00  0.00    -0.033 A 
ATOM     22  C   LIG    1       24.261 -13.793   3.089  0.00  0.00    -0.043 A 
ATOM     23  C   LIG    1       22.945 -13.498   2.418  0.00  0.00    +0.044 C 
ATOM     24  C   LIG    1       25.360 -12.999   2.705  0.00  0.00    +0.053 A 
ATOM     25  C   LIG    1       26.603 -13.293   3.219  0.00  0.00    +0.167 A 
ATOM     26  O   LIG    1       27.757 -12.631   2.938  0.00  0.00    -0.453 OA
ATOM     27  C   LIG    1       28.705 -13.417   3.689  0.00  0.00    +0.466 C 
ATOM     28  O   LIG    1       28.093 -14.474   4.458  0.00  0.00    -0.453 OA
ATOM     29  C   LIG    1       26.793 -14.339   4.085  0.00  0.00    +0.167 A 
ATOM     30  C   LIG    1       25.747 -15.138   4.496  0.00  0.00    +0.053 A 
ENDBRANCH  20  21
ENDBRANCH  18  20
ENDBRANCH   2  18
TORSDOF 6
ENDMDL
MODEL 4
REMARK VINA RESULT:      -0.2      3.346      7.875
REMARK  Name = *****
REMARK                            x       y       z     vdW  Elec       q    Type
REMARK                         _______ _______ _______ _____ _____    ______ ____
ROOT
ATOM      1  C   LIG    1       23.979 -14.781   3.956  0.00  0.00    +0.126 A 
ATOM      2  C   LIG    1       24.106 -16.159   3.921  0.00  0.00    +0.081 A 
ATOM      3  S   LIG    1       22.815 -16.896   4.792  0.00  0.00    -0.092 S 
ATOM      4  C   LIG    1       22.190 -15.399   5.313  0.00  0.00    +0.048 A 
ATOM      5  C   LIG    1       22.905 -14.342   4.800  0.00  0.00    +0.037 A 
ENDROOT
BRANCH   1   6
ATOM      6  S   LIG    1       24.988 -13.649   3.107  0.00  0.00    +0.076 S 
ATOM      7  O   LIG    1       24.303 -13.424   1.848  0.00  0.00    -0.150 OA
ATOM      8  O   LIG    1       25.176 -12.589   4.056  0.00  0.00    -0.150 OA
BRANCH   6   9
ATOM      9  N   LIG    1       26.475 -14.426   2.799  0.00  0.00    -0.182 N 
ATOM     10  H   LIG    1       26.517 -14.485   1.775  0.00  0.00    +0.177 HD
BRANCH   9  15
ATOM     11  C   LIG    1       29.363 -11.691   5.838  0.00  0.00    +0.071 C 
ATOM     12  C   LIG    1       28.804 -12.444   4.691  0.00  0.00    +0.101 A 
ATOM     13  C   LIG    1       27.724 -13.354   4.683  0.00  0.00    +0.126 A 
ATOM     14 CL   LIG    1       26.840 -13.890   6.030  0.00  0.00    -0.076 Cl
ATOM     15  C   LIG    1       27.540 -13.658   3.354  0.00  0.00    +0.255 A 
ATOM     16  O   LIG    1       28.521 -13.063   2.624  0.00  0.00    -0.336 OA
ATOM     17  N   LIG    1       29.308 -12.280   3.457  0.00  0.00    -0.080 NA
ENDBRANCH   9  15
ENDBRANCH   6   9
ENDBRANCH   1   6
BRANCH   2  18
ATOM     18  C   LIG    1       25.157 -16.964   3.281  0.00  0.00    +0.176 C 
ATOM     19  O   LIG    1       26.235 -16.460   2.950  0.00  0.00    -0.291 OA
BRANCH  18  20
ATOM     20  C   LIG    1       24.909 -18.465   3.106  0.00  0.00    +0.115 C 
BRANCH  20  21
ATOM     21  C   LIG    1       25.513 -19.345   4.187  0.00  0.00    -0.033 A 
ATOM     22  C   LIG    1       24.761 -20.323   4.903  0.00  0.00    -0.043 A 
ATOM     23  C   LIG    1       23.276 -20.513   4.737  0.00  0.00    +0.044 C 
ATOM     24  C   LIG    1       25.395 -21.110   5.885  0.00  0.00    +0.053 A 
ATOM     25  C   LIG    1       26.732 -20.904   6.140  0.00  0.00    +0.167 A 
ATOM     26  O   LIG    1       27.478 -21.572   7.060  0.00  0.00    -0.453 OA
ATOM     27  C   LIG    1       28.742 -20.890   6.924  0.00  0.00    +0.466 C 
ATOM     28  O   LIG    1       28.747 -19.893   5.880  0.00  0.00    -0.453 OA
ATOM     29  C   LIG    1       27.453 -19.953   5.467  0.00  0.00    +0.167 A 
ATOM     30  C   LIG    1       26.879 -19.164   4.492  0.00  0.00    +0.053 A 
ENDBRANCH  20  21
ENDBRANCH  18  20
ENDBRANCH   2  18
TORSDOF 6
ENDMDL
