MODEL 1
REMARK VINA RESULT:      33.1      0.000      0.000
REMARK  Name = *****
REMARK                            x       y       z     vdW  Elec       q    Type
REMARK                         _______ _______ _______ _____ _____    ______ ____
ROOT
ATOM      1  O   LIG    1       27.666 -18.166   2.783  0.00  0.00    -0.340 OA
ENDROOT
BRANCH   1   5
ATOM      2  C   LIG    1       24.281 -19.121   2.403  0.00  0.00    +0.283 C 
ATOM      3  C   LIG    1       24.713 -17.798   3.071  0.00  0.00    +0.201 C 
ATOM      4  C   LIG    1       25.710 -17.950   4.226  0.00  0.00    +0.180 C 
ATOM      5  C   LIG    1       26.864 -18.901   3.785  0.00  0.00    +0.192 C 
ATOM      6  C   LIG    1       26.276 -20.204   3.192  0.00  0.00    +0.261 C 
ATOM      7  O   LIG    1       25.409 -19.934   2.080  0.00  0.00    -0.332 OA
BRANCH   6   8
ATOM      8  C   LIG    1       25.724 -21.181   4.263  0.00  0.00    +0.337 C 
ATOM      9  O   LIG    1       26.264 -21.547   5.245  0.00  0.00    -0.248 OA
BRANCH   8  10
ATOM     10  O   LIG    1       24.447 -21.553   3.998  0.00  0.00    -0.479 OA
ATOM     11  H   LIG    1       24.204 -21.679   3.052  0.00  0.00    +0.295 HD
ENDBRANCH   8  10
ENDBRANCH   6   8
BRANCH   4  12
ATOM     12  O   LIG    1       25.101 -18.352   5.441  0.00  0.00    -0.386 OA
ATOM     13  H   LIG    1       24.790 -17.572   5.933  0.00  0.00    +0.210 HD
ENDBRANCH   4  12
BRANCH   3  14
ATOM     14  O   LIG    1       25.412 -17.046   2.046  0.00  0.00    -0.384 OA
ATOM     15  H   LIG    1       25.340 -17.588   1.228  0.00  0.00    +0.210 HD
ENDBRANCH   3  14
BRANCH   2  16
ATOM     16  O   LIG    1       23.259 -19.885   3.033  0.00  0.00    -0.341 OA
BRANCH  16  18
ATOM     17  C   LIG    1       21.146 -19.535   4.218  0.00  0.00    +0.160 C 
ATOM     18  C   LIG    1       22.644 -19.184   4.148  0.00  0.00    +0.177 C 
ATOM     19  C   LIG    1       23.236 -19.577   5.528  0.00  0.00    +0.176 C 
ATOM     20  C   LIG    1       23.014 -21.087   5.749  0.00  0.00    +0.178 C 
ATOM     21  O   LIG    1       21.609 -21.361   5.774  0.00  0.00    -0.341 OA
ATOM     22  C   LIG    1       20.982 -21.041   4.533  0.00  0.00    +0.270 C 
BRANCH  17  25
ATOM     23  C   LIG    1       20.698 -16.735   3.670  0.00  0.00    +0.109 C 
ATOM     24  C   LIG    1       20.085 -17.785   2.774  0.00  0.00    +0.210 C 
ATOM     25  N   LIG    1       20.387 -19.093   3.056  0.00  0.00    -0.305 N 
ATOM     26  H   LIG    1       19.846 -19.779   2.522  0.00  0.00    +0.149 HD
ATOM     27  O   LIG    1       19.387 -17.479   1.813  0.00  0.00    -0.276 OA
ENDBRANCH  17  25
BRANCH  22  28
ATOM     28  O   LIG    1       19.623 -21.411   4.684  0.00  0.00    -0.365 OA
ATOM     29  H   LIG    1       19.127 -20.718   4.223  0.00  0.00    +0.212 HD
ENDBRANCH  22  28
BRANCH  19  30
ATOM     30  O   LIG    1       24.605 -19.208   5.686  0.00  0.00    -0.387 OA
ATOM     31  H   LIG    1       25.142 -19.752   5.079  0.00  0.00    +0.210 HD
ENDBRANCH  19  30
BRANCH  20  32
ATOM     32  C   LIG    1       23.646 -21.571   7.059  0.00  0.00    +0.190 C 
BRANCH  32  33
ATOM     33  O   LIG    1       25.068 -21.568   7.000  0.00  0.00    -0.392 OA
ATOM     34  H   LIG    1       25.322 -20.933   6.295  0.00  0.00    +0.209 HD
ENDBRANCH  32  33
ENDBRANCH  20  32
ENDBRANCH  16  18
ENDBRANCH   2  16
ENDBRANCH   1   5
BRANCH   1  35
ATOM     35  C   LIG    1       28.481 -17.083   3.291  0.00  0.00    +0.274 C 
ATOM     36  C   LIG    1       27.635 -15.758   3.397  0.00  0.00    +0.160 C 
ATOM     37  C   LIG    1       26.781 -15.861   4.676  0.00  0.00    +0.177 C 
ATOM     38  C   LIG    1       27.747 -16.050   5.878  0.00  0.00    +0.176 C 
ATOM     39  C   LIG    1       28.614 -17.307   5.764  0.00  0.00    +0.178 C 
ATOM     40  O   LIG    1       29.173 -17.523   4.458  0.00  0.00    -0.341 OA
BRANCH  36  41
ATOM     41  N   LIG    1       28.409 -14.495   3.412  0.00  0.00    -0.305 N 
ATOM     42  H   LIG    1       29.234 -14.501   4.000  0.00  0.00    +0.149 HD
ATOM     43  C   LIG    1       28.168 -13.359   2.692  0.00  0.00    +0.210 C 
ATOM     44  O   LIG    1       27.211 -13.229   1.939  0.00  0.00    -0.276 OA
ATOM     45  C   LIG    1       29.211 -12.276   2.894  0.00  0.00    +0.109 C 
ENDBRANCH  36  41
BRANCH  38  46
ATOM     46  O   LIG    1       28.631 -14.918   5.983  0.00  0.00    -0.387 OA
ATOM     47  H   LIG    1       28.712 -14.757   6.939  0.00  0.00    +0.210 HD
ENDBRANCH  38  46
BRANCH  39  48
ATOM     48  C   LIG    1       27.852 -18.522   6.343  0.00  0.00    +0.190 C 
BRANCH  48  49
ATOM     49  O   LIG    1       28.593 -19.746   6.264  0.00  0.00    -0.392 OA
ATOM     50  H   LIG    1       28.089 -20.342   5.678  0.00  0.00    +0.209 HD
ENDBRANCH  48  49
ENDBRANCH  39  48
BRANCH  37  51
ATOM     51  O   LIG    1       25.962 -14.686   4.945  0.00  0.00    -0.341 OA
BRANCH  51  52
ATOM     52  C   LIG    1       25.777 -13.741   3.870  0.00  0.00    +0.283 C 
ATOM     53  C   LIG    1       24.545 -13.937   2.969  0.00  0.00    +0.201 C 
ATOM     54  C   LIG    1       23.280 -13.722   3.821  0.00  0.00    +0.179 C 
ATOM     55  C   LIG    1       23.199 -12.245   4.175  0.00  0.00    +0.185 C 
ATOM     56  C   LIG    1       24.565 -11.719   4.710  0.00  0.00    +0.260 C 
ATOM     57  O   LIG    1       25.790 -12.389   4.365  0.00  0.00    -0.332 OA
BRANCH  56  58
ATOM     58  C   LIG    1       24.479 -11.507   6.221  0.00  0.00    +0.337 C 
ATOM     59  O   LIG    1       25.415 -11.479   7.007  0.00  0.00    -0.248 OA
BRANCH  58  60
ATOM     60  O   LIG    1       23.214 -11.447   6.686  0.00  0.00    -0.479 OA
ATOM     61  H   LIG    1       22.689 -11.987   6.061  0.00  0.00    +0.295 HD
ENDBRANCH  58  60
ENDBRANCH  56  58
BRANCH  55  62
ATOM     62  O   LIG    1       22.767 -11.550   2.981  0.00  0.00    -0.386 OA
ATOM     63  H   LIG    1       21.904 -11.135   3.170  0.00  0.00    +0.210 HD
ENDBRANCH  55  62
BRANCH  54  64
ATOM     64  O   LIG    1       23.240 -14.510   5.009  0.00  0.00    -0.386 OA
ATOM     65  H   LIG    1       22.699 -14.033   5.666  0.00  0.00    +0.210 HD
ENDBRANCH  54  64
BRANCH  53  66
ATOM     66  O   LIG    1       24.615 -13.024   1.852  0.00  0.00    -0.384 OA
ATOM     67  H   LIG    1       24.097 -13.398   1.105  0.00  0.00    +0.210 HD
ENDBRANCH  53  66
ENDBRANCH  51  52
ENDBRANCH  37  51
ENDBRANCH   1  35
TORSDOF 24
ENDMDL
