MODEL 1
REMARK VINA RESULT:      -7.7      0.000      0.000
REMARK  Name = *****
REMARK                            x       y       z     vdW  Elec       q    Type
REMARK                         _______ _______ _______ _____ _____    ______ ____
ROOT
ATOM      1  C   LIG    1       30.202 -19.728   7.699  0.00  0.00    +0.152 C 
ENDROOT
BRANCH   1   2
ATOM      2  C   LIG    1       29.278 -19.601   6.451  0.00  0.00    +0.034 C 
BRANCH   2   3
ATOM      3  C   LIG    1       28.196 -20.680   6.249  0.00  0.00    +0.006 C 
BRANCH   3   4
ATOM      4  C   LIG    1       26.748 -20.226   6.610  0.00  0.00    -0.011 C 
BRANCH   4   5
ATOM      5  C   LIG    1       26.385 -20.475   8.100  0.00  0.00    -0.000 C 
ATOM      6  C   LIG    1       25.784 -21.830   8.428  0.00  0.00    +0.004 C 
ENDBRANCH   4   5
BRANCH   4   7
ATOM      7  C   LIG    1       25.600 -20.873   5.783  0.00  0.00    +0.003 C 
BRANCH   7   8
ATOM      8  C   LIG    1       25.069 -20.139   4.544  0.00  0.00    -0.000 C 
BRANCH   8  10
ATOM      9  C   LIG    1       22.917 -20.190   5.933  0.00  0.00    +0.004 C 
ATOM     10  C   LIG    1       23.527 -20.157   4.538  0.00  0.00    -0.003 C 
ENDBRANCH   8  10
ENDBRANCH   7   8
ENDBRANCH   4   7
ENDBRANCH   3   4
ENDBRANCH   2   3
ENDBRANCH   1   2
BRANCH   1  11
ATOM     11  O   LIG    1       30.266 -21.100   8.117  0.00  0.00    -0.212 OA
BRANCH  11  12
ATOM     12  S   LIG    1       31.344 -21.634   9.211  0.00  0.00    +0.208 S 
ATOM     13  O   LIG    1       30.649 -22.275  10.294  0.00  0.00    -0.118 OA
ATOM     14  O   LIG    1       32.354 -20.614   9.438  0.00  0.00    -0.118 OA
BRANCH  12  15
ATOM     15  O   LIG    1       32.067 -22.833   8.414  0.00  0.00    -0.231 OA
ATOM     16  H   LIG    1       31.488 -23.074   7.663  0.00  0.00    +0.247 HD
ENDBRANCH  12  15
ENDBRANCH  11  12
ENDBRANCH   1  11
BRANCH   1  17
ATOM     17  C   LIG    1       29.657 -18.932   8.925  0.00  0.00    +0.037 C 
BRANCH  17  18
ATOM     18  C   LIG    1       30.354 -17.573   9.222  0.00  0.00    -0.015 C 
ATOM     19  C   LIG    1       31.794 -17.541   8.673  0.00  0.00    +0.007 C 
ATOM     20  C   LIG    1       30.399 -17.242  10.715  0.00  0.00    +0.007 C 
ENDBRANCH  17  18
ENDBRANCH   1  17
TORSDOF 12
ENDMDL
MODEL 2
REMARK VINA RESULT:      -7.6      0.935      2.173
REMARK  Name = *****
REMARK                            x       y       z     vdW  Elec       q    Type
REMARK                         _______ _______ _______ _____ _____    ______ ____
ROOT
ATOM      1  C   LIG    1       30.030 -20.163   7.587  0.00  0.00    +0.152 C 
ENDROOT
BRANCH   1   2
ATOM      2  C   LIG    1       29.292 -20.358   6.229  0.00  0.00    +0.034 C 
BRANCH   2   3
ATOM      3  C   LIG    1       27.933 -19.655   6.045  0.00  0.00    +0.006 C 
BRANCH   3   4
ATOM      4  C   LIG    1       26.694 -20.597   6.147  0.00  0.00    -0.011 C 
BRANCH   4   5
ATOM      5  C   LIG    1       25.618 -20.308   5.063  0.00  0.00    -0.000 C 
ATOM      6  C   LIG    1       24.173 -20.332   5.527  0.00  0.00    +0.004 C 
ENDBRANCH   4   5
BRANCH   4   7
ATOM      7  C   LIG    1       25.936 -20.590   7.505  0.00  0.00    +0.003 C 
BRANCH   7   8
ATOM      8  C   LIG    1       25.850 -21.889   8.317  0.00  0.00    -0.000 C 
BRANCH   8  10
ATOM      9  C   LIG    1       24.892 -23.764   6.858  0.00  0.00    +0.004 C 
ATOM     10  C   LIG    1       26.146 -23.102   7.411  0.00  0.00    -0.003 C 
ENDBRANCH   8  10
ENDBRANCH   7   8
ENDBRANCH   4   7
ENDBRANCH   3   4
ENDBRANCH   2   3
ENDBRANCH   1   2
BRANCH   1  11
ATOM     11  O   LIG    1       29.983 -21.383   8.343  0.00  0.00    -0.212 OA
BRANCH  11  12
ATOM     12  S   LIG    1       31.188 -21.847   9.331  0.00  0.00    +0.208 S 
ATOM     13  O   LIG    1       30.633 -22.369  10.550  0.00  0.00    -0.118 OA
ATOM     14  O   LIG    1       32.236 -20.840   9.329  0.00  0.00    -0.118 OA
BRANCH  12  15
ATOM     15  O   LIG    1       31.779 -23.133   8.560  0.00  0.00    -0.231 OA
ATOM     16  H   LIG    1       31.157 -23.350   7.838  0.00  0.00    +0.247 HD
ENDBRANCH  12  15
ENDBRANCH  11  12
ENDBRANCH   1  11
BRANCH   1  17
ATOM     17  C   LIG    1       29.351 -19.079   8.481  0.00  0.00    +0.037 C 
BRANCH  17  18
ATOM     18  C   LIG    1       30.223 -17.839   8.832  0.00  0.00    -0.015 C 
ATOM     19  C   LIG    1       31.639 -17.954   8.236  0.00  0.00    +0.007 C 
ATOM     20  C   LIG    1       30.350 -17.610  10.340  0.00  0.00    +0.007 C 
ENDBRANCH  17  18
ENDBRANCH   1  17
TORSDOF 12
ENDMDL
MODEL 3
REMARK VINA RESULT:      -7.5      2.154      3.093
REMARK  Name = *****
REMARK                            x       y       z     vdW  Elec       q    Type
REMARK                         _______ _______ _______ _____ _____    ______ ____
ROOT
ATOM      1  C   LIG    1       28.746 -21.332   7.630  0.00  0.00    +0.152 C 
ENDROOT
BRANCH   1   2
ATOM      2  C   LIG    1       27.415 -22.067   7.971  0.00  0.00    +0.034 C 
BRANCH   2   3
ATOM      3  C   LIG    1       26.180 -21.202   8.287  0.00  0.00    +0.006 C 
BRANCH   3   4
ATOM      4  C   LIG    1       24.842 -21.734   7.689  0.00  0.00    -0.011 C 
BRANCH   4   5
ATOM      5  C   LIG    1       25.053 -22.715   6.502  0.00  0.00    -0.000 C 
ATOM      6  C   LIG    1       24.558 -24.136   6.709  0.00  0.00    +0.004 C 
ENDBRANCH   4   5
BRANCH   4   7
ATOM      7  C   LIG    1       23.845 -20.657   7.173  0.00  0.00    +0.003 C 
BRANCH   7   8
ATOM      8  C   LIG    1       23.184 -20.850   5.801  0.00  0.00    -0.000 C 
BRANCH   8  10
ATOM      9  C   LIG    1       23.229 -19.016   4.013  0.00  0.00    +0.004 C 
ATOM     10  C   LIG    1       22.593 -19.514   5.304  0.00  0.00    -0.003 C 
ENDBRANCH   8  10
ENDBRANCH   7   8
ENDBRANCH   4   7
ENDBRANCH   3   4
ENDBRANCH   2   3
ENDBRANCH   1   2
BRANCH   1  11
ATOM     11  O   LIG    1       29.575 -21.265   8.800  0.00  0.00    -0.212 OA
BRANCH  11  12
ATOM     12  S   LIG    1       31.010 -20.500   8.814  0.00  0.00    +0.208 S 
ATOM     13  O   LIG    1       30.981 -19.447   9.792  0.00  0.00    -0.118 OA
ATOM     14  O   LIG    1       31.456 -20.274   7.449  0.00  0.00    -0.118 OA
BRANCH  12  15
ATOM     15  O   LIG    1       31.983 -21.621   9.440  0.00  0.00    -0.231 OA
ATOM     16  H   LIG    1       31.753 -21.710  10.387  0.00  0.00    +0.247 HD
ENDBRANCH  12  15
ENDBRANCH  11  12
ENDBRANCH   1  11
BRANCH   1  17
ATOM     17  C   LIG    1       28.511 -19.855   7.186  0.00  0.00    +0.037 C 
BRANCH  17  18
ATOM     18  C   LIG    1       28.423 -19.608   5.653  0.00  0.00    -0.015 C 
ATOM     19  C   LIG    1       29.023 -18.244   5.261  0.00  0.00    +0.007 C 
ATOM     20  C   LIG    1       26.989 -19.676   5.122  0.00  0.00    +0.007 C 
ENDBRANCH  17  18
ENDBRANCH   1  17
TORSDOF 12
ENDMDL
MODEL 4
REMARK VINA RESULT:      -7.3      3.871      6.927
REMARK  Name = *****
REMARK                            x       y       z     vdW  Elec       q    Type
REMARK                         _______ _______ _______ _____ _____    ______ ____
ROOT
ATOM      1  C   LIG    1       24.997 -22.132   7.281  0.00  0.00    +0.152 C 
ENDROOT
BRANCH   1   2
ATOM      2  C   LIG    1       26.468 -21.906   7.741  0.00  0.00    +0.034 C 
BRANCH   2   3
ATOM      3  C   LIG    1       26.902 -20.463   8.066  0.00  0.00    +0.006 C 
BRANCH   3   4
ATOM      4  C   LIG    1       28.329 -20.084   7.564  0.00  0.00    -0.011 C 
BRANCH   4   5
ATOM      5  C   LIG    1       28.395 -19.865   6.026  0.00  0.00    -0.000 C 
ATOM      6  C   LIG    1       29.156 -18.638   5.555  0.00  0.00    +0.004 C 
ENDBRANCH   4   5
BRANCH   4   7
ATOM      7  C   LIG    1       29.464 -21.095   7.895  0.00  0.00    +0.003 C 
BRANCH   7   8
ATOM      8  C   LIG    1       30.844 -20.558   8.299  0.00  0.00    -0.000 C 
BRANCH   8  10
ATOM      9  C   LIG    1       31.781 -18.180   8.472  0.00  0.00    +0.004 C 
ATOM     10  C   LIG    1       30.705 -19.156   8.928  0.00  0.00    -0.003 C 
ENDBRANCH   8  10
ENDBRANCH   7   8
ENDBRANCH   4   7
ENDBRANCH   3   4
ENDBRANCH   2   3
ENDBRANCH   1   2
BRANCH   1  11
ATOM     11  O   LIG    1       24.978 -22.971   6.116  0.00  0.00    -0.212 OA
BRANCH  11  12
ATOM     12  S   LIG    1       24.650 -24.563   6.187  0.00  0.00    +0.208 S 
ATOM     13  O   LIG    1       23.287 -24.753   6.598  0.00  0.00    -0.118 OA
ATOM     14  O   LIG    1       25.754 -25.259   6.826  0.00  0.00    -0.118 OA
BRANCH  12  15
ATOM     15  O   LIG    1       24.677 -24.982   4.631  0.00  0.00    -0.231 OA
ATOM     16  H   LIG    1       23.967 -25.641   4.496  0.00  0.00    +0.247 HD
ENDBRANCH  12  15
ENDBRANCH  11  12
ENDBRANCH   1  11
BRANCH   1  17
ATOM     17  C   LIG    1       24.294 -20.804   6.863  0.00  0.00    +0.037 C 
BRANCH  17  18
ATOM     18  C   LIG    1       23.894 -20.685   5.364  0.00  0.00    -0.015 C 
ATOM     19  C   LIG    1       24.998 -20.002   4.534  0.00  0.00    +0.007 C 
ATOM     20  C   LIG    1       22.587 -19.916   5.156  0.00  0.00    +0.007 C 
ENDBRANCH  17  18
ENDBRANCH   1  17
TORSDOF 12
ENDMDL
MODEL 5
REMARK VINA RESULT:      -7.3      3.755      5.996
REMARK  Name = *****
REMARK                            x       y       z     vdW  Elec       q    Type
REMARK                         _______ _______ _______ _____ _____    ______ ____
ROOT
ATOM      1  C   LIG    1       26.049 -21.429   7.057  0.00  0.00    +0.152 C 
ENDROOT
BRANCH   1   2
ATOM      2  C   LIG    1       25.908 -22.815   7.754  0.00  0.00    +0.034 C 
BRANCH   2   3
ATOM      3  C   LIG    1       26.076 -24.074   6.882  0.00  0.00    +0.006 C 
BRANCH   3   4
ATOM      4  C   LIG    1       24.916 -24.325   5.869  0.00  0.00    -0.011 C 
BRANCH   4   5
ATOM      5  C   LIG    1       23.568 -24.672   6.561  0.00  0.00    -0.000 C 
ATOM      6  C   LIG    1       22.573 -23.534   6.701  0.00  0.00    +0.004 C 
ENDBRANCH   4   5
BRANCH   4   7
ATOM      7  C   LIG    1       25.153 -25.449   4.820  0.00  0.00    +0.003 C 
BRANCH   7   8
ATOM      8  C   LIG    1       25.943 -26.699   5.232  0.00  0.00    -0.000 C 
BRANCH   8  10
ATOM      9  C   LIG    1       24.534 -28.381   6.553  0.00  0.00    +0.004 C 
ATOM     10  C   LIG    1       25.031 -27.943   5.183  0.00  0.00    -0.003 C 
ENDBRANCH   8  10
ENDBRANCH   7   8
ENDBRANCH   4   7
ENDBRANCH   3   4
ENDBRANCH   2   3
ENDBRANCH   1   2
BRANCH   1  11
ATOM     11  O   LIG    1       26.933 -20.592   7.819  0.00  0.00    -0.212 OA
BRANCH  11  12
ATOM     12  S   LIG    1       28.389 -20.123   7.267  0.00  0.00    +0.208 S 
ATOM     13  O   LIG    1       29.089 -19.417   8.304  0.00  0.00    -0.118 OA
ATOM     14  O   LIG    1       28.251 -19.585   5.924  0.00  0.00    -0.118 OA
BRANCH  12  15
ATOM     15  O   LIG    1       29.163 -21.529   7.126  0.00  0.00    -0.231 OA
ATOM     16  H   LIG    1       29.057 -21.827   6.200  0.00  0.00    +0.247 HD
ENDBRANCH  12  15
ENDBRANCH  11  12
ENDBRANCH   1  11
BRANCH   1  17
ATOM     17  C   LIG    1       24.693 -20.661   6.982  0.00  0.00    +0.037 C 
BRANCH  17  18
ATOM     18  C   LIG    1       24.242 -20.209   5.563  0.00  0.00    -0.015 C 
ATOM     19  C   LIG    1       22.713 -20.035   5.481  0.00  0.00    +0.007 C 
ATOM     20  C   LIG    1       24.677 -21.181   4.463  0.00  0.00    +0.007 C 
ENDBRANCH  17  18
ENDBRANCH   1  17
TORSDOF 12
ENDMDL
MODEL 6
REMARK VINA RESULT:      -6.9      2.320      3.920
REMARK  Name = *****
REMARK                            x       y       z     vdW  Elec       q    Type
REMARK                         _______ _______ _______ _____ _____    ______ ____
ROOT
ATOM      1  C   LIG    1       28.897 -21.199   7.877  0.00  0.00    +0.152 C 
ENDROOT
BRANCH   1   2
ATOM      2  C   LIG    1       27.420 -21.163   8.371  0.00  0.00    +0.034 C 
BRANCH   2   3
ATOM      3  C   LIG    1       26.557 -22.418   8.138  0.00  0.00    +0.006 C 
BRANCH   3   4
ATOM      4  C   LIG    1       25.417 -22.239   7.089  0.00  0.00    -0.011 C 
BRANCH   4   5
ATOM      5  C   LIG    1       24.394 -21.137   7.483  0.00  0.00    -0.000 C 
ATOM      6  C   LIG    1       23.543 -20.577   6.356  0.00  0.00    +0.004 C 
ENDBRANCH   4   5
BRANCH   4   7
ATOM      7  C   LIG    1       24.571 -23.505   6.771  0.00  0.00    +0.003 C 
BRANCH   7   8
ATOM      8  C   LIG    1       24.928 -24.351   5.542  0.00  0.00    -0.000 C 
BRANCH   8  10
ATOM      9  C   LIG    1       25.813 -26.412   6.778  0.00  0.00    +0.004 C 
ATOM     10  C   LIG    1       24.740 -25.850   5.856  0.00  0.00    -0.003 C 
ENDBRANCH   8  10
ENDBRANCH   7   8
ENDBRANCH   4   7
ENDBRANCH   3   4
ENDBRANCH   2   3
ENDBRANCH   1   2
BRANCH   1  11
ATOM     11  O   LIG    1       29.685 -20.274   8.641  0.00  0.00    -0.212 OA
BRANCH  11  12
ATOM     12  S   LIG    1       31.311 -20.277   8.613  0.00  0.00    +0.208 S 
ATOM     13  O   LIG    1       31.769 -19.789   7.341  0.00  0.00    -0.118 OA
ATOM     14  O   LIG    1       31.807 -21.516   9.188  0.00  0.00    -0.118 OA
BRANCH  12  15
ATOM     15  O   LIG    1       31.668 -19.106   9.661  0.00  0.00    -0.231 OA
ATOM     16  H   LIG    1       31.347 -19.394  10.539  0.00  0.00    +0.247 HD
ENDBRANCH  12  15
ENDBRANCH  11  12
ENDBRANCH   1  11
BRANCH   1  17
ATOM     17  C   LIG    1       29.036 -20.752   6.388  0.00  0.00    +0.037 C 
BRANCH  17  18
ATOM     18  C   LIG    1       28.285 -19.448   5.994  0.00  0.00    -0.015 C 
ATOM     19  C   LIG    1       27.122 -19.733   5.024  0.00  0.00    +0.007 C 
ATOM     20  C   LIG    1       29.203 -18.404   5.354  0.00  0.00    +0.007 C 
ENDBRANCH  17  18
ENDBRANCH   1  17
TORSDOF 12
ENDMDL
MODEL 7
REMARK VINA RESULT:      -6.8      4.187      7.368
REMARK  Name = *****
REMARK                            x       y       z     vdW  Elec       q    Type
REMARK                         _______ _______ _______ _____ _____    ______ ____
ROOT
ATOM      1  C   LIG    1       25.734 -21.410   6.589  0.00  0.00    +0.152 C 
ENDROOT
BRANCH   1   2
ATOM      2  C   LIG    1       26.421 -20.407   7.562  0.00  0.00    +0.034 C 
BRANCH   2   3
ATOM      3  C   LIG    1       27.819 -20.774   8.099  0.00  0.00    +0.006 C 
BRANCH   3   4
ATOM      4  C   LIG    1       28.967 -19.832   7.622  0.00  0.00    -0.011 C 
BRANCH   4   5
ATOM      5  C   LIG    1       29.084 -19.749   6.075  0.00  0.00    -0.000 C 
ATOM      6  C   LIG    1       29.233 -18.357   5.486  0.00  0.00    +0.004 C 
ENDBRANCH   4   5
BRANCH   4   7
ATOM      7  C   LIG    1       30.395 -20.177   8.135  0.00  0.00    +0.003 C 
BRANCH   7   8
ATOM      8  C   LIG    1       31.183 -19.116   8.914  0.00  0.00    -0.000 C 
BRANCH   8  10
ATOM      9  C   LIG    1       30.321 -17.436  10.645  0.00  0.00    +0.004 C 
ATOM     10  C   LIG    1       30.290 -17.890   9.192  0.00  0.00    -0.003 C 
ENDBRANCH   8  10
ENDBRANCH   7   8
ENDBRANCH   4   7
ENDBRANCH   3   4
ENDBRANCH   2   3
ENDBRANCH   1   2
BRANCH   1  11
ATOM     11  O   LIG    1       24.592 -20.788   5.980  0.00  0.00    -0.212 OA
BRANCH  11  12
ATOM     12  S   LIG    1       24.520 -20.456   4.389  0.00  0.00    +0.208 S 
ATOM     13  O   LIG    1       23.865 -19.192   4.193  0.00  0.00    -0.118 OA
ATOM     14  O   LIG    1       24.129 -21.650   3.659  0.00  0.00    -0.118 OA
BRANCH  12  15
ATOM     15  O   LIG    1       26.068 -20.182   4.032  0.00  0.00    -0.231 OA
ATOM     16  H   LIG    1       26.088 -19.696   3.184  0.00  0.00    +0.247 HD
ENDBRANCH  12  15
ENDBRANCH  11  12
ENDBRANCH   1  11
BRANCH   1  17
ATOM     17  C   LIG    1       25.189 -22.674   7.325  0.00  0.00    +0.037 C 
BRANCH  17  18
ATOM     18  C   LIG    1       24.884 -23.908   6.428  0.00  0.00    -0.015 C 
ATOM     19  C   LIG    1       23.428 -24.384   6.593  0.00  0.00    +0.007 C 
ATOM     20  C   LIG    1       25.814 -25.091   6.708  0.00  0.00    +0.007 C 
ENDBRANCH  17  18
ENDBRANCH   1  17
TORSDOF 12
ENDMDL
MODEL 8
REMARK VINA RESULT:      -6.8      2.336      3.871
REMARK  Name = *****
REMARK                            x       y       z     vdW  Elec       q    Type
REMARK                         _______ _______ _______ _____ _____    ______ ____
ROOT
ATOM      1  C   LIG    1       28.357 -20.376   7.125  0.00  0.00    +0.152 C 
ENDROOT
BRANCH   1   2
ATOM      2  C   LIG    1       27.909 -19.976   5.688  0.00  0.00    +0.034 C 
BRANCH   2   3
ATOM      3  C   LIG    1       26.437 -19.568   5.484  0.00  0.00    +0.006 C 
BRANCH   3   4
ATOM      4  C   LIG    1       25.688 -20.367   4.374  0.00  0.00    -0.011 C 
BRANCH   4   5
ATOM      5  C   LIG    1       25.309 -19.493   3.146  0.00  0.00    -0.000 C 
ATOM      6  C   LIG    1       25.607 -18.008   3.260  0.00  0.00    +0.004 C 
ENDBRANCH   4   5
BRANCH   4   7
ATOM      7  C   LIG    1       24.373 -21.077   4.807  0.00  0.00    +0.003 C 
BRANCH   7   8
ATOM      8  C   LIG    1       23.382 -20.326   5.707  0.00  0.00    -0.000 C 
BRANCH   8  10
ATOM      9  C   LIG    1       22.192 -18.340   4.611  0.00  0.00    +0.004 C 
ATOM     10  C   LIG    1       22.176 -19.839   4.877  0.00  0.00    -0.003 C 
ENDBRANCH   8  10
ENDBRANCH   7   8
ENDBRANCH   4   7
ENDBRANCH   3   4
ENDBRANCH   2   3
ENDBRANCH   1   2
BRANCH   1  11
ATOM     11  O   LIG    1       29.791 -20.352   7.209  0.00  0.00    -0.212 OA
BRANCH  11  12
ATOM     12  S   LIG    1       30.583 -19.757   8.498  0.00  0.00    +0.208 S 
ATOM     13  O   LIG    1       31.050 -20.842   9.316  0.00  0.00    -0.118 OA
ATOM     14  O   LIG    1       29.842 -18.636   9.051  0.00  0.00    -0.118 OA
BRANCH  12  15
ATOM     15  O   LIG    1       31.912 -19.145   7.822  0.00  0.00    -0.231 OA
ATOM     16  H   LIG    1       32.595 -19.092   8.521  0.00  0.00    +0.247 HD
ENDBRANCH  12  15
ENDBRANCH  11  12
ENDBRANCH   1  11
BRANCH   1  17
ATOM     17  C   LIG    1       27.931 -21.830   7.497  0.00  0.00    +0.037 C 
BRANCH  17  18
ATOM     18  C   LIG    1       26.635 -21.964   8.348  0.00  0.00    -0.015 C 
ATOM     19  C   LIG    1       25.604 -22.888   7.670  0.00  0.00    +0.007 C 
ATOM     20  C   LIG    1       25.966 -20.617   8.629  0.00  0.00    +0.007 C 
ENDBRANCH  17  18
ENDBRANCH   1  17
TORSDOF 12
ENDMDL
MODEL 9
REMARK VINA RESULT:      -6.8      3.871      5.425
REMARK  Name = *****
REMARK                            x       y       z     vdW  Elec       q    Type
REMARK                         _______ _______ _______ _____ _____    ______ ____
ROOT
ATOM      1  C   LIG    1       25.841 -22.100   6.839  0.00  0.00    +0.152 C 
ENDROOT
BRANCH   1   2
ATOM      2  C   LIG    1       24.795 -21.102   7.418  0.00  0.00    +0.034 C 
BRANCH   2   3
ATOM      3  C   LIG    1       23.438 -20.989   6.696  0.00  0.00    +0.006 C 
BRANCH   3   4
ATOM      4  C   LIG    1       23.446 -20.075   5.433  0.00  0.00    -0.011 C 
BRANCH   4   5
ATOM      5  C   LIG    1       22.116 -19.295   5.235  0.00  0.00    -0.000 C 
ATOM      6  C   LIG    1       22.164 -18.116   4.279  0.00  0.00    +0.004 C 
ENDBRANCH   4   5
BRANCH   4   7
ATOM      7  C   LIG    1       23.725 -20.783   4.075  0.00  0.00    +0.003 C 
BRANCH   7   8
ATOM      8  C   LIG    1       24.816 -20.223   3.153  0.00  0.00    -0.000 C 
BRANCH   8  10
ATOM      9  C   LIG    1       25.771 -17.849   3.277  0.00  0.00    +0.004 C 
ATOM     10  C   LIG    1       25.703 -19.224   3.926  0.00  0.00    -0.003 C 
ENDBRANCH   8  10
ENDBRANCH   7   8
ENDBRANCH   4   7
ENDBRANCH   3   4
ENDBRANCH   2   3
ENDBRANCH   1   2
BRANCH   1  11
ATOM     11  O   LIG    1       25.520 -23.435   7.259  0.00  0.00    -0.212 OA
BRANCH  11  12
ATOM     12  S   LIG    1       25.151 -24.619   6.207  0.00  0.00    +0.208 S 
ATOM     13  O   LIG    1       23.852 -25.149   6.520  0.00  0.00    -0.118 OA
ATOM     14  O   LIG    1       26.308 -25.477   6.012  0.00  0.00    -0.118 OA
BRANCH  12  15
ATOM     15  O   LIG    1       24.945 -23.799   4.835  0.00  0.00    -0.231 OA
ATOM     16  H   LIG    1       25.426 -24.282   4.134  0.00  0.00    +0.247 HD
ENDBRANCH  12  15
ENDBRANCH  11  12
ENDBRANCH   1  11
BRANCH   1  17
ATOM     17  C   LIG    1       27.283 -21.821   7.365  0.00  0.00    +0.037 C 
BRANCH  17  18
ATOM     18  C   LIG    1       27.772 -20.347   7.269  0.00  0.00    -0.015 C 
ATOM     19  C   LIG    1       28.169 -19.973   5.827  0.00  0.00    +0.007 C 
ATOM     20  C   LIG    1       28.960 -20.054   8.188  0.00  0.00    +0.007 C 
ENDBRANCH  17  18
ENDBRANCH   1  17
TORSDOF 12
ENDMDL
