MODEL 1
REMARK VINA RESULT:      -7.6      0.000      0.000
REMARK  Name = *****
REMARK                            x       y       z     vdW  Elec       q    Type
REMARK                         _______ _______ _______ _____ _____    ______ ____
ROOT
ATOM      1  O   LIG    1       27.454 -20.263   7.813  0.00  0.00    -0.461 OA
ENDROOT
BRANCH   1   9
ATOM      2  C   LIG    1       22.584 -22.250   6.447  0.00  0.00    +0.193 C 
ATOM      3  N   LIG    1       23.995 -21.753   6.806  0.00  0.00    +0.247 N 
ATOM      4  C   LIG    1       24.675 -22.729   7.804  0.00  0.00    +0.102 C 
ATOM      5  C   LIG    1       25.007 -23.962   6.979  0.00  0.00    +0.201 C 
ATOM      6  C   LIG    1       25.192 -23.473   5.564  0.00  0.00    +0.201 C 
ATOM      7  O   LIG    1       26.267 -24.033   6.316  0.00  0.00    -0.357 OA
ATOM      8  C   LIG    1       25.943 -22.061   8.355  0.00  0.00    +0.102 C 
ATOM      9  C   LIG    1       26.900 -21.494   7.281  0.00  0.00    +0.187 C 
ATOM     10  C   LIG    1       26.267 -21.207   5.893  0.00  0.00    +0.102 C 
ATOM     11  C   LIG    1       24.963 -21.970   5.611  0.00  0.00    +0.102 C 
ATOM     12  C   LIG    1       23.822 -20.318   7.279  0.00  0.00    +0.193 C 
ENDBRANCH   1   9
BRANCH   1  13
ATOM     13  C   LIG    1       28.804 -20.233   8.005  0.00  0.00    +0.317 C 
ATOM     14  O   LIG    1       29.469 -21.187   8.403  0.00  0.00    -0.250 OA
BRANCH  13  15
ATOM     15  C   LIG    1       29.379 -18.881   7.556  0.00  0.00    +0.153 C 
BRANCH  15  16
ATOM     16  C   LIG    1       30.253 -18.221   8.620  0.00  0.00    -0.032 A 
ATOM     17  C   LIG    1       29.700 -17.856   9.861  0.00  0.00    +0.004 A 
ATOM     18  C   LIG    1       30.476 -17.222  10.836  0.00  0.00    +0.000 A 
ATOM     19  C   LIG    1       31.818 -16.947  10.587  0.00  0.00    +0.000 A 
ATOM     20  C   LIG    1       32.381 -17.302   9.364  0.00  0.00    +0.000 A 
ATOM     21  C   LIG    1       31.605 -17.932   8.385  0.00  0.00    +0.004 A 
ENDBRANCH  15  16
BRANCH  15  22
ATOM     22  C   LIG    1       30.109 -19.123   6.234  0.00  0.00    +0.175 C 
BRANCH  22  23
ATOM     23  O   LIG    1       29.839 -18.079   5.303  0.00  0.00    -0.394 OA
ATOM     24  H   LIG    1       28.948 -17.740   5.501  0.00  0.00    +0.209 HD
ENDBRANCH  22  23
ENDBRANCH  15  22
ENDBRANCH  13  15
ENDBRANCH   1  13
TORSDOF 6
ENDMDL
MODEL 2
REMARK VINA RESULT:      -7.6      1.397      2.720
REMARK  Name = *****
REMARK                            x       y       z     vdW  Elec       q    Type
REMARK                         _______ _______ _______ _____ _____    ______ ____
ROOT
ATOM      1  O   LIG    1       27.854 -20.706   7.406  0.00  0.00    -0.461 OA
ENDROOT
BRANCH   1   9
ATOM      2  C   LIG    1       23.537 -23.919   6.649  0.00  0.00    +0.193 C 
ATOM      3  N   LIG    1       24.715 -22.948   6.847  0.00  0.00    +0.247 N 
ATOM      4  C   LIG    1       24.977 -22.142   5.546  0.00  0.00    +0.102 C 
ATOM      5  C   LIG    1       23.814 -21.167   5.450  0.00  0.00    +0.201 C 
ATOM      6  C   LIG    1       23.367 -20.919   6.870  0.00  0.00    +0.201 C 
ATOM      7  O   LIG    1       23.931 -19.887   6.065  0.00  0.00    -0.357 OA
ATOM      8  C   LIG    1       26.318 -21.408   5.688  0.00  0.00    +0.102 C 
ATOM      9  C   LIG    1       26.473 -20.578   6.982  0.00  0.00    +0.187 C 
ATOM     10  C   LIG    1       25.542 -20.975   8.159  0.00  0.00    +0.102 C 
ATOM     11  C   LIG    1       24.284 -21.757   7.747  0.00  0.00    +0.102 C 
ATOM     12  C   LIG    1       25.869 -23.795   7.360  0.00  0.00    +0.193 C 
ENDBRANCH   1   9
BRANCH   1  13
ATOM     13  C   LIG    1       28.761 -19.894   6.792  0.00  0.00    +0.317 C 
ATOM     14  O   LIG    1       28.482 -19.088   5.906  0.00  0.00    -0.250 OA
BRANCH  13  15
ATOM     15  C   LIG    1       30.148 -20.055   7.434  0.00  0.00    +0.153 C 
BRANCH  15  16
ATOM     16  C   LIG    1       30.549 -18.860   8.295  0.00  0.00    -0.032 A 
ATOM     17  C   LIG    1       31.824 -18.284   8.153  0.00  0.00    +0.004 A 
ATOM     18  C   LIG    1       32.221 -17.209   8.955  0.00  0.00    +0.000 A 
ATOM     19  C   LIG    1       31.349 -16.692   9.908  0.00  0.00    +0.000 A 
ATOM     20  C   LIG    1       30.082 -17.251  10.062  0.00  0.00    +0.000 A 
ATOM     21  C   LIG    1       29.685 -18.330   9.264  0.00  0.00    +0.004 A 
ENDBRANCH  15  16
BRANCH  15  22
ATOM     22  C   LIG    1       30.134 -21.380   8.199  0.00  0.00    +0.175 C 
BRANCH  22  23
ATOM     23  O   LIG    1       31.459 -21.828   8.468  0.00  0.00    -0.394 OA
ATOM     24  H   LIG    1       31.385 -22.664   8.962  0.00  0.00    +0.209 HD
ENDBRANCH  22  23
ENDBRANCH  15  22
ENDBRANCH  13  15
ENDBRANCH   1  13
TORSDOF 6
ENDMDL
MODEL 3
REMARK VINA RESULT:      -7.5      1.147      2.113
REMARK  Name = *****
REMARK                            x       y       z     vdW  Elec       q    Type
REMARK                         _______ _______ _______ _____ _____    ______ ____
ROOT
ATOM      1  O   LIG    1       28.029 -21.152   6.706  0.00  0.00    -0.461 OA
ENDROOT
BRANCH   1   9
ATOM      2  C   LIG    1       23.535 -24.206   6.617  0.00  0.00    +0.193 C 
ATOM      3  N   LIG    1       24.765 -23.282   6.669  0.00  0.00    +0.247 N 
ATOM      4  C   LIG    1       24.547 -22.039   5.764  0.00  0.00    +0.102 C 
ATOM      5  C   LIG    1       23.521 -21.194   6.503  0.00  0.00    +0.201 C 
ATOM      6  C   LIG    1       23.699 -21.518   7.966  0.00  0.00    +0.201 C 
ATOM      7  O   LIG    1       23.973 -20.221   7.441  0.00  0.00    -0.357 OA
ATOM      8  C   LIG    1       25.885 -21.302   5.617  0.00  0.00    +0.102 C 
ATOM      9  C   LIG    1       26.608 -20.990   6.947  0.00  0.00    +0.187 C 
ATOM     10  C   LIG    1       26.197 -21.864   8.163  0.00  0.00    +0.102 C 
ATOM     11  C   LIG    1       24.822 -22.540   8.032  0.00  0.00    +0.102 C 
ATOM     12  C   LIG    1       25.959 -24.161   6.331  0.00  0.00    +0.193 C 
ENDBRANCH   1   9
BRANCH   1  13
ATOM     13  C   LIG    1       28.871 -20.632   7.644  0.00  0.00    +0.317 C 
ATOM     14  O   LIG    1       29.409 -21.287   8.534  0.00  0.00    -0.250 OA
BRANCH  13  15
ATOM     15  C   LIG    1       29.131 -19.143   7.364  0.00  0.00    +0.153 C 
BRANCH  15  16
ATOM     16  C   LIG    1       30.088 -18.505   8.367  0.00  0.00    -0.032 A 
ATOM     17  C   LIG    1       29.604 -18.024   9.597  0.00  0.00    +0.004 A 
ATOM     18  C   LIG    1       30.460 -17.408  10.516  0.00  0.00    +0.000 A 
ATOM     19  C   LIG    1       31.812 -17.267  10.221  0.00  0.00    +0.000 A 
ATOM     20  C   LIG    1       32.308 -17.737   9.007  0.00  0.00    +0.000 A 
ATOM     21  C   LIG    1       31.453 -18.349   8.084  0.00  0.00    +0.004 A 
ENDBRANCH  15  16
BRANCH  15  22
ATOM     22  C   LIG    1       29.609 -19.037   5.915  0.00  0.00    +0.175 C 
BRANCH  22  23
ATOM     23  O   LIG    1       28.516 -18.801   5.032  0.00  0.00    -0.394 OA
ATOM     24  H   LIG    1       27.738 -19.247   5.412  0.00  0.00    +0.209 HD
ENDBRANCH  22  23
ENDBRANCH  15  22
ENDBRANCH  13  15
ENDBRANCH   1  13
TORSDOF 6
ENDMDL
MODEL 4
REMARK VINA RESULT:      -7.2      5.996      9.399
REMARK  Name = *****
REMARK                            x       y       z     vdW  Elec       q    Type
REMARK                         _______ _______ _______ _____ _____    ______ ____
ROOT
ATOM      1  O   LIG    1       25.399 -28.785   6.598  0.00  0.00    -0.461 OA
ENDROOT
BRANCH   1   9
ATOM      2  C   LIG    1       25.535 -33.805   8.674  0.00  0.00    +0.193 C 
ATOM      3  N   LIG    1       25.438 -32.367   8.135  0.00  0.00    +0.247 N 
ATOM      4  C   LIG    1       24.027 -32.106   7.542  0.00  0.00    +0.102 C 
ATOM      5  C   LIG    1       23.106 -32.022   8.749  0.00  0.00    +0.201 C 
ATOM      6  C   LIG    1       23.967 -31.539   9.890  0.00  0.00    +0.201 C 
ATOM      7  O   LIG    1       22.893 -30.758   9.371  0.00  0.00    -0.357 OA
ATOM      8  C   LIG    1       24.060 -30.782   6.766  0.00  0.00    +0.102 C 
ATOM      9  C   LIG    1       24.645 -29.583   7.546  0.00  0.00    +0.187 C 
ATOM     10  C   LIG    1       25.559 -29.938   8.750  0.00  0.00    +0.102 C 
ATOM     11  C   LIG    1       25.360 -31.356   9.311  0.00  0.00    +0.102 C 
ATOM     12  C   LIG    1       26.611 -32.202   7.181  0.00  0.00    +0.193 C 
ENDBRANCH   1   9
BRANCH   1  13
ATOM     13  C   LIG    1       25.615 -27.481   6.932  0.00  0.00    +0.317 C 
ATOM     14  O   LIG    1       26.275 -27.113   7.901  0.00  0.00    -0.250 OA
BRANCH  13  15
ATOM     15  C   LIG    1       25.008 -26.549   5.871  0.00  0.00    +0.153 C 
BRANCH  15  16
ATOM     16  C   LIG    1       24.812 -25.121   6.374  0.00  0.00    -0.032 A 
ATOM     17  C   LIG    1       23.520 -24.569   6.447  0.00  0.00    +0.004 A 
ATOM     18  C   LIG    1       23.323 -23.252   6.875  0.00  0.00    +0.000 A 
ATOM     19  C   LIG    1       24.414 -22.468   7.239  0.00  0.00    +0.000 A 
ATOM     20  C   LIG    1       25.700 -22.999   7.171  0.00  0.00    +0.000 A 
ATOM     21  C   LIG    1       25.900 -24.314   6.739  0.00  0.00    +0.004 A 
ENDBRANCH  15  16
BRANCH  15  22
ATOM     22  C   LIG    1       25.900 -26.641   4.632  0.00  0.00    +0.175 C 
BRANCH  22  23
ATOM     23  O   LIG    1       27.210 -27.079   4.977  0.00  0.00    -0.394 OA
ATOM     24  H   LIG    1       27.681 -26.312   5.350  0.00  0.00    +0.209 HD
ENDBRANCH  22  23
ENDBRANCH  15  22
ENDBRANCH  13  15
ENDBRANCH   1  13
TORSDOF 6
ENDMDL
MODEL 5
REMARK VINA RESULT:      -7.1      6.126      9.425
REMARK  Name = *****
REMARK                            x       y       z     vdW  Elec       q    Type
REMARK                         _______ _______ _______ _____ _____    ______ ____
ROOT
ATOM      1  O   LIG    1       24.481 -28.666   7.056  0.00  0.00    -0.461 OA
ENDROOT
BRANCH   1   9
ATOM      2  C   LIG    1       24.197 -33.825   8.740  0.00  0.00    +0.193 C 
ATOM      3  N   LIG    1       24.332 -32.386   8.211  0.00  0.00    +0.247 N 
ATOM      4  C   LIG    1       25.788 -31.878   8.388  0.00  0.00    +0.102 C 
ATOM      5  C   LIG    1       26.596 -32.642   7.350  0.00  0.00    +0.201 C 
ATOM      6  C   LIG    1       25.632 -32.963   6.234  0.00  0.00    +0.201 C 
ATOM      7  O   LIG    1       26.742 -32.090   6.044  0.00  0.00    -0.357 OA
ATOM      8  C   LIG    1       25.815 -30.366   8.123  0.00  0.00    +0.102 C 
ATOM      9  C   LIG    1       25.153 -29.925   6.797  0.00  0.00    +0.187 C 
ATOM     10  C   LIG    1       24.137 -30.924   6.181  0.00  0.00    +0.102 C 
ATOM     11  C   LIG    1       24.295 -32.377   6.659  0.00  0.00    +0.102 C 
ATOM     12  C   LIG    1       23.248 -31.583   8.915  0.00  0.00    +0.193 C 
ENDBRANCH   1   9
BRANCH   1  13
ATOM     13  C   LIG    1       25.258 -27.545   7.046  0.00  0.00    +0.317 C 
ATOM     14  O   LIG    1       26.241 -27.375   7.763  0.00  0.00    -0.250 OA
BRANCH  13  15
ATOM     15  C   LIG    1       24.792 -26.580   5.944  0.00  0.00    +0.153 C 
BRANCH  15  16
ATOM     16  C   LIG    1       24.689 -25.134   6.421  0.00  0.00    -0.032 A 
ATOM     17  C   LIG    1       23.434 -24.506   6.507  0.00  0.00    +0.004 A 
ATOM     18  C   LIG    1       23.323 -23.171   6.911  0.00  0.00    +0.000 A 
ATOM     19  C   LIG    1       24.464 -22.446   7.239  0.00  0.00    +0.000 A 
ATOM     20  C   LIG    1       25.716 -23.053   7.159  0.00  0.00    +0.000 A 
ATOM     21  C   LIG    1       25.829 -24.386   6.750  0.00  0.00    +0.004 A 
ENDBRANCH  15  16
BRANCH  15  22
ATOM     22  C   LIG    1       25.741 -26.764   4.758  0.00  0.00    +0.175 C 
BRANCH  22  23
ATOM     23  O   LIG    1       27.037 -27.158   5.197  0.00  0.00    -0.394 OA
ATOM     24  H   LIG    1       27.218 -28.034   4.809  0.00  0.00    +0.209 HD
ENDBRANCH  22  23
ENDBRANCH  15  22
ENDBRANCH  13  15
ENDBRANCH   1  13
TORSDOF 6
ENDMDL
MODEL 6
REMARK VINA RESULT:      -7.0      4.325      8.476
REMARK  Name = *****
REMARK                            x       y       z     vdW  Elec       q    Type
REMARK                         _______ _______ _______ _____ _____    ______ ____
ROOT
ATOM      1  O   LIG    1       23.574 -25.091   6.573  0.00  0.00    -0.461 OA
ENDROOT
BRANCH   1   9
ATOM      2  C   LIG    1       26.057 -20.373   7.626  0.00  0.00    +0.193 C 
ATOM      3  N   LIG    1       25.316 -21.674   7.269  0.00  0.00    +0.247 N 
ATOM      4  C   LIG    1       23.781 -21.468   7.370  0.00  0.00    +0.102 C 
ATOM      5  C   LIG    1       23.424 -20.598   6.176  0.00  0.00    +0.201 C 
ATOM      6  C   LIG    1       24.463 -20.898   5.124  0.00  0.00    +0.201 C 
ATOM      7  O   LIG    1       23.087 -21.224   4.940  0.00  0.00    -0.357 OA
ATOM      8  C   LIG    1       23.098 -22.841   7.293  0.00  0.00    +0.102 C 
ATOM      9  C   LIG    1       23.535 -23.720   6.099  0.00  0.00    +0.187 C 
ATOM     10  C   LIG    1       24.905 -23.365   5.461  0.00  0.00    +0.102 C 
ATOM     11  C   LIG    1       25.391 -21.933   5.739  0.00  0.00    +0.102 C 
ATOM     12  C   LIG    1       25.913 -22.750   8.163  0.00  0.00    +0.193 C 
ENDBRANCH   1   9
BRANCH   1  13
ATOM     13  C   LIG    1       24.325 -25.968   5.847  0.00  0.00    +0.317 C 
ATOM     14  O   LIG    1       24.229 -26.120   4.631  0.00  0.00    -0.250 OA
BRANCH  13  15
ATOM     15  C   LIG    1       25.368 -26.652   6.744  0.00  0.00    +0.153 C 
BRANCH  15  16
ATOM     16  C   LIG    1       25.074 -28.131   6.979  0.00  0.00    -0.032 A 
ATOM     17  C   LIG    1       25.615 -28.789   8.099  0.00  0.00    +0.004 A 
ATOM     18  C   LIG    1       25.383 -30.152   8.314  0.00  0.00    +0.000 A 
ATOM     19  C   LIG    1       24.604 -30.876   7.417  0.00  0.00    +0.000 A 
ATOM     20  C   LIG    1       24.062 -30.239   6.302  0.00  0.00    +0.000 A 
ATOM     21  C   LIG    1       24.297 -28.878   6.082  0.00  0.00    +0.004 A 
ENDBRANCH  15  16
BRANCH  15  22
ATOM     22  C   LIG    1       26.737 -26.396   6.112  0.00  0.00    +0.175 C 
BRANCH  22  23
ATOM     23  O   LIG    1       26.918 -27.191   4.944  0.00  0.00    -0.394 OA
ATOM     24  H   LIG    1       27.017 -26.579   4.193  0.00  0.00    +0.209 HD
ENDBRANCH  22  23
ENDBRANCH  15  22
ENDBRANCH  13  15
ENDBRANCH   1  13
TORSDOF 6
ENDMDL
MODEL 7
REMARK VINA RESULT:      -7.0      2.263      6.860
REMARK  Name = *****
REMARK                            x       y       z     vdW  Elec       q    Type
REMARK                         _______ _______ _______ _____ _____    ______ ____
ROOT
ATOM      1  O   LIG    1       26.886 -21.642   7.596  0.00  0.00    -0.461 OA
ENDROOT
BRANCH   1   9
ATOM      2  C   LIG    1       31.890 -19.841   8.710  0.00  0.00    +0.193 C 
ATOM      3  N   LIG    1       30.468 -20.296   8.340  0.00  0.00    +0.247 N 
ATOM      4  C   LIG    1       29.458 -19.134   8.542  0.00  0.00    +0.102 C 
ATOM      5  C   LIG    1       29.751 -18.161   7.411  0.00  0.00    +0.201 C 
ATOM      6  C   LIG    1       30.313 -18.995   6.286  0.00  0.00    +0.201 C 
ATOM      7  O   LIG    1       29.066 -18.315   6.170  0.00  0.00    -0.357 OA
ATOM      8  C   LIG    1       28.035 -19.701   8.443  0.00  0.00    +0.102 C 
ATOM      9  C   LIG    1       27.760 -20.559   7.188  0.00  0.00    +0.187 C 
ATOM     10  C   LIG    1       29.011 -21.154   6.486  0.00  0.00    +0.102 C 
ATOM     11  C   LIG    1       30.329 -20.427   6.798  0.00  0.00    +0.102 C 
ATOM     12  C   LIG    1       30.212 -21.559   9.148  0.00  0.00    +0.193 C 
ENDBRANCH   1   9
BRANCH   1  13
ATOM     13  C   LIG    1       25.595 -21.311   7.887  0.00  0.00    +0.317 C 
ATOM     14  O   LIG    1       25.258 -20.592   8.825  0.00  0.00    -0.250 OA
BRANCH  13  15
ATOM     15  C   LIG    1       24.644 -21.874   6.820  0.00  0.00    +0.153 C 
BRANCH  15  16
ATOM     16  C   LIG    1       24.211 -20.829   5.795  0.00  0.00    -0.032 A 
ATOM     17  C   LIG    1       22.942 -20.230   5.889  0.00  0.00    +0.004 A 
ATOM     18  C   LIG    1       22.515 -19.294   4.941  0.00  0.00    +0.000 A 
ATOM     19  C   LIG    1       23.353 -18.939   3.887  0.00  0.00    +0.000 A 
ATOM     20  C   LIG    1       24.613 -19.523   3.779  0.00  0.00    +0.000 A 
ATOM     21  C   LIG    1       25.039 -20.463   4.723  0.00  0.00    +0.004 A 
ENDBRANCH  15  16
BRANCH  15  22
ATOM     22  C   LIG    1       25.337 -23.086   6.197  0.00  0.00    +0.175 C 
BRANCH  22  23
ATOM     23  O   LIG    1       25.615 -24.078   7.181  0.00  0.00    -0.394 OA
ATOM     24  H   LIG    1       26.574 -24.055   7.350  0.00  0.00    +0.209 HD
ENDBRANCH  22  23
ENDBRANCH  15  22
ENDBRANCH  13  15
ENDBRANCH   1  13
TORSDOF 6
ENDMDL
MODEL 8
REMARK VINA RESULT:      -6.9      2.430      6.750
REMARK  Name = *****
REMARK                            x       y       z     vdW  Elec       q    Type
REMARK                         _______ _______ _______ _____ _____    ______ ____
ROOT
ATOM      1  O   LIG    1       26.403 -20.704   7.435  0.00  0.00    -0.461 OA
ENDROOT
BRANCH   1   9
ATOM      2  C   LIG    1       31.467 -18.934   6.564  0.00  0.00    +0.193 C 
ATOM      3  N   LIG    1       30.059 -19.471   6.875  0.00  0.00    +0.247 N 
ATOM      4  C   LIG    1       30.067 -21.023   6.908  0.00  0.00    +0.102 C 
ATOM      5  C   LIG    1       30.800 -21.382   8.191  0.00  0.00    +0.201 C 
ATOM      6  C   LIG    1       30.570 -20.227   9.133  0.00  0.00    +0.201 C 
ATOM      7  O   LIG    1       30.054 -21.530   9.396  0.00  0.00    -0.357 OA
ATOM      8  C   LIG    1       28.614 -21.519   6.931  0.00  0.00    +0.102 C 
ATOM      9  C   LIG    1       27.722 -20.874   8.016  0.00  0.00    +0.187 C 
ATOM     10  C   LIG    1       28.211 -19.509   8.572  0.00  0.00    +0.102 C 
ATOM     11  C   LIG    1       29.710 -19.233   8.370  0.00  0.00    +0.102 C 
ATOM     12  C   LIG    1       29.133 -18.824   5.856  0.00  0.00    +0.193 C 
ENDBRANCH   1   9
BRANCH   1  13
ATOM     13  C   LIG    1       25.400 -21.460   7.965  0.00  0.00    +0.317 C 
ATOM     14  O   LIG    1       25.214 -21.620   9.169  0.00  0.00    -0.250 OA
BRANCH  13  15
ATOM     15  C   LIG    1       24.484 -21.991   6.851  0.00  0.00    +0.153 C 
BRANCH  15  16
ATOM     16  C   LIG    1       24.116 -20.925   5.822  0.00  0.00    -0.032 A 
ATOM     17  C   LIG    1       22.916 -20.204   5.950  0.00  0.00    +0.004 A 
ATOM     18  C   LIG    1       22.547 -19.246   4.999  0.00  0.00    +0.000 A 
ATOM     19  C   LIG    1       23.374 -18.992   3.910  0.00  0.00    +0.000 A 
ATOM     20  C   LIG    1       24.567 -19.698   3.767  0.00  0.00    +0.000 A 
ATOM     21  C   LIG    1       24.935 -20.660   4.714  0.00  0.00    +0.004 A 
ENDBRANCH  15  16
BRANCH  15  22
ATOM     22  C   LIG    1       25.179 -23.210   6.243  0.00  0.00    +0.175 C 
BRANCH  22  23
ATOM     23  O   LIG    1       26.022 -23.847   7.198  0.00  0.00    -0.394 OA
ATOM     24  H   LIG    1       25.981 -23.318   8.015  0.00  0.00    +0.209 HD
ENDBRANCH  22  23
ENDBRANCH  15  22
ENDBRANCH  13  15
ENDBRANCH   1  13
TORSDOF 6
ENDMDL
MODEL 9
REMARK VINA RESULT:      -6.8      6.064      9.436
REMARK  Name = *****
REMARK                            x       y       z     vdW  Elec       q    Type
REMARK                         _______ _______ _______ _____ _____    ______ ____
ROOT
ATOM      1  O   LIG    1       24.824 -28.207   6.889  0.00  0.00    -0.461 OA
ENDROOT
BRANCH   1   9
ATOM      2  C   LIG    1       26.354 -32.671   9.584  0.00  0.00    +0.193 C 
ATOM      3  N   LIG    1       25.857 -31.445   8.797  0.00  0.00    +0.247 N 
ATOM      4  C   LIG    1       25.714 -31.791   7.290  0.00  0.00    +0.102 C 
ATOM      5  C   LIG    1       24.495 -32.696   7.212  0.00  0.00    +0.201 C 
ATOM      6  C   LIG    1       23.618 -32.307   8.376  0.00  0.00    +0.201 C 
ATOM      7  O   LIG    1       23.209 -32.110   7.025  0.00  0.00    -0.357 OA
ATOM      8  C   LIG    1       25.501 -30.488   6.508  0.00  0.00    +0.102 C 
ATOM      9  C   LIG    1       24.376 -29.578   7.051  0.00  0.00    +0.187 C 
ATOM     10  C   LIG    1       23.975 -29.808   8.534  0.00  0.00    +0.102 C 
ATOM     11  C   LIG    1       24.355 -31.188   9.095  0.00  0.00    +0.102 C 
ATOM     12  C   LIG    1       26.815 -30.315   9.141  0.00  0.00    +0.193 C 
ENDBRANCH   1   9
BRANCH   1  13
ATOM     13  C   LIG    1       24.662 -27.653   5.654  0.00  0.00    +0.317 C 
ATOM     14  O   LIG    1       23.825 -28.023   4.832  0.00  0.00    -0.250 OA
BRANCH  13  15
ATOM     15  C   LIG    1       25.595 -26.444   5.482  0.00  0.00    +0.153 C 
BRANCH  15  16
ATOM     16  C   LIG    1       25.038 -25.167   6.105  0.00  0.00    -0.032 A 
ATOM     17  C   LIG    1       25.912 -24.208   6.648  0.00  0.00    +0.004 A 
ATOM     18  C   LIG    1       25.419 -23.046   7.252  0.00  0.00    +0.000 A 
ATOM     19  C   LIG    1       24.047 -22.825   7.319  0.00  0.00    +0.000 A 
ATOM     20  C   LIG    1       23.168 -23.765   6.787  0.00  0.00    +0.000 A 
ATOM     21  C   LIG    1       23.659 -24.930   6.187  0.00  0.00    +0.004 A 
ENDBRANCH  15  16
BRANCH  15  22
ATOM     22  C   LIG    1       26.960 -26.850   6.040  0.00  0.00    +0.175 C 
BRANCH  22  23
ATOM     23  O   LIG    1       27.852 -27.217   4.993  0.00  0.00    -0.394 OA
ATOM     24  H   LIG    1       28.656 -26.676   5.098  0.00  0.00    +0.209 HD
ENDBRANCH  22  23
ENDBRANCH  15  22
ENDBRANCH  13  15
ENDBRANCH   1  13
TORSDOF 6
ENDMDL
