MODEL 1
REMARK VINA RESULT:      -8.2      0.000      0.000
REMARK  Name = *****
REMARK                            x       y       z     vdW  Elec       q    Type
REMARK                         _______ _______ _______ _____ _____    ______ ____
ROOT
ATOM      1  N   LIG    1       25.465 -20.741   6.855  0.00  0.00    -0.310 N 
ENDROOT
BRANCH   1   2
ATOM      2  C   LIG    1       24.608 -20.423   5.771  0.00  0.00    +0.121 A 
ATOM      3  N   LIG    1       25.164 -20.057   4.600  0.00  0.00    -0.240 NA
ATOM      4  C   LIG    1       24.380 -19.412   3.707  0.00  0.00    +0.113 A 
ATOM      5  C   LIG    1       23.092 -18.986   3.954  0.00  0.00    +0.020 A 
ATOM      6  C   LIG    1       22.507 -19.396   5.118  0.00  0.00    +0.005 A 
ATOM      7  C   LIG    1       23.234 -20.264   5.889  0.00  0.00    +0.043 A 
ENDBRANCH   1   2
BRANCH   1   8
ATOM      8  C   LIG    1       26.925 -20.530   6.590  0.00  0.00    +0.122 C 
BRANCH   8   9
ATOM      9  C   LIG    1       27.989 -21.026   7.644  0.00  0.00    +0.103 C 
BRANCH   9  11
ATOM     10  C   LIG    1       30.351 -21.022   8.394  0.00  0.00    +0.104 C 
ATOM     11  N   LIG    1       29.180 -20.239   8.057  0.00  0.00    -0.307 NA
ATOM     12  C   LIG    1       29.538 -19.189   7.110  0.00  0.00    +0.104 C 
ENDBRANCH   9  11
ENDBRANCH   8   9
ENDBRANCH   1   8
BRANCH   1  13
ATOM     13  C   LIG    1       25.093 -21.875   7.733  0.00  0.00    +0.141 C 
BRANCH  13  14
ATOM     14  C   LIG    1       24.946 -23.277   7.148  0.00  0.00    -0.030 A 
ATOM     15  C   LIG    1       23.666 -23.764   6.827  0.00  0.00    +0.005 A 
ATOM     16  C   LIG    1       23.521 -25.027   6.255  0.00  0.00    +0.000 A 
ATOM     17  C   LIG    1       24.625 -25.865   6.104  0.00  0.00    +0.000 A 
ATOM     18  C   LIG    1       25.880 -25.440   6.531  0.00  0.00    +0.000 A 
ATOM     19  C   LIG    1       26.053 -24.126   6.955  0.00  0.00    +0.005 A 
ENDBRANCH  13  14
ENDBRANCH   1  13
TORSDOF 6
ENDMDL
MODEL 2
REMARK VINA RESULT:      -8.1      0.103      1.112
REMARK  Name = *****
REMARK                            x       y       z     vdW  Elec       q    Type
REMARK                         _______ _______ _______ _____ _____    ______ ____
ROOT
ATOM      1  N   LIG    1       25.462 -20.759   6.915  0.00  0.00    -0.310 N 
ENDROOT
BRANCH   1   2
ATOM      2  C   LIG    1       24.607 -20.467   5.822  0.00  0.00    +0.121 A 
ATOM      3  N   LIG    1       25.165 -20.149   4.638  0.00  0.00    -0.240 NA
ATOM      4  C   LIG    1       24.386 -19.524   3.725  0.00  0.00    +0.113 A 
ATOM      5  C   LIG    1       23.106 -19.073   3.960  0.00  0.00    +0.020 A 
ATOM      6  C   LIG    1       22.518 -19.433   5.139  0.00  0.00    +0.005 A 
ATOM      7  C   LIG    1       23.235 -20.285   5.938  0.00  0.00    +0.043 A 
ENDBRANCH   1   2
BRANCH   1   8
ATOM      8  C   LIG    1       26.918 -20.511   6.661  0.00  0.00    +0.122 C 
BRANCH   8   9
ATOM      9  C   LIG    1       27.995 -21.132   7.632  0.00  0.00    +0.103 C 
BRANCH   9  11
ATOM     10  C   LIG    1       30.329 -21.203   8.464  0.00  0.00    +0.104 C 
ATOM     11  N   LIG    1       29.173 -20.388   8.152  0.00  0.00    -0.307 NA
ATOM     12  C   LIG    1       29.567 -19.264   7.311  0.00  0.00    +0.104 C 
ENDBRANCH   9  11
ENDBRANCH   8   9
ENDBRANCH   1   8
BRANCH   1  13
ATOM     13  C   LIG    1       25.112 -21.899   7.794  0.00  0.00    +0.141 C 
BRANCH  13  14
ATOM     14  C   LIG    1       24.926 -23.292   7.199  0.00  0.00    -0.030 A 
ATOM     15  C   LIG    1       26.053 -24.101   6.962  0.00  0.00    +0.005 A 
ATOM     16  C   LIG    1       25.894 -25.391   6.457  0.00  0.00    +0.000 A 
ATOM     17  C   LIG    1       24.634 -25.849   6.073  0.00  0.00    +0.000 A 
ATOM     18  C   LIG    1       23.528 -25.013   6.190  0.00  0.00    +0.000 A 
ATOM     19  C   LIG    1       23.659 -23.788   6.838  0.00  0.00    +0.005 A 
ENDBRANCH  13  14
ENDBRANCH   1  13
TORSDOF 6
ENDMDL
MODEL 3
REMARK VINA RESULT:      -8.1      1.296      4.858
REMARK  Name = *****
REMARK                            x       y       z     vdW  Elec       q    Type
REMARK                         _______ _______ _______ _____ _____    ______ ____
ROOT
ATOM      1  N   LIG    1       24.958 -22.321   7.166  0.00  0.00    -0.310 N 
ENDROOT
BRANCH   1   2
ATOM      2  C   LIG    1       24.945 -23.723   6.956  0.00  0.00    +0.121 A 
ATOM      3  N   LIG    1       26.123 -24.374   6.898  0.00  0.00    -0.240 NA
ATOM      4  C   LIG    1       26.132 -25.607   6.342  0.00  0.00    +0.113 A 
ATOM      5  C   LIG    1       25.055 -26.195   5.714  0.00  0.00    +0.020 A 
ATOM      6  C   LIG    1       23.848 -25.563   5.812  0.00  0.00    +0.005 A 
ATOM      7  C   LIG    1       23.812 -24.444   6.602  0.00  0.00    +0.043 A 
ENDBRANCH   1   2
BRANCH   1   8
ATOM      8  C   LIG    1       25.819 -21.860   8.303  0.00  0.00    +0.122 C 
BRANCH   8   9
ATOM      9  C   LIG    1       26.942 -20.783   8.044  0.00  0.00    +0.103 C 
BRANCH   9  11
ATOM     10  C   LIG    1       28.226 -20.025   6.064  0.00  0.00    +0.104 C 
ATOM     11  N   LIG    1       28.100 -20.992   7.136  0.00  0.00    -0.307 NA
ATOM     12  C   LIG    1       29.371 -21.126   7.838  0.00  0.00    +0.104 C 
ENDBRANCH   9  11
ENDBRANCH   8   9
ENDBRANCH   1   8
BRANCH   1  13
ATOM     13  C   LIG    1       23.711 -21.563   6.909  0.00  0.00    +0.141 C 
BRANCH  13  14
ATOM     14  C   LIG    1       23.640 -20.585   5.739  0.00  0.00    -0.030 A 
ATOM     15  C   LIG    1       24.755 -20.431   4.895  0.00  0.00    +0.005 A 
ATOM     16  C   LIG    1       24.689 -19.571   3.799  0.00  0.00    +0.000 A 
ATOM     17  C   LIG    1       23.566 -18.770   3.596  0.00  0.00    +0.000 A 
ATOM     18  C   LIG    1       22.504 -18.825   4.495  0.00  0.00    +0.000 A 
ATOM     19  C   LIG    1       22.502 -19.793   5.495  0.00  0.00    +0.005 A 
ENDBRANCH  13  14
ENDBRANCH   1  13
TORSDOF 6
ENDMDL
MODEL 4
REMARK VINA RESULT:      -8.0      2.064      5.772
REMARK  Name = *****
REMARK                            x       y       z     vdW  Elec       q    Type
REMARK                         _______ _______ _______ _____ _____    ______ ____
ROOT
ATOM      1  N   LIG    1       24.444 -23.198   6.907  0.00  0.00    -0.310 N 
ENDROOT
BRANCH   1   2
ATOM      2  C   LIG    1       25.447 -22.417   7.535  0.00  0.00    +0.121 A 
ATOM      3  N   LIG    1       25.069 -21.496   8.441  0.00  0.00    -0.240 NA
ATOM      4  C   LIG    1       25.955 -20.523   8.756  0.00  0.00    +0.113 A 
ATOM      5  C   LIG    1       27.164 -20.328   8.126  0.00  0.00    +0.020 A 
ATOM      6  C   LIG    1       27.575 -21.284   7.242  0.00  0.00    +0.005 A 
ATOM      7  C   LIG    1       26.776 -22.392   7.133  0.00  0.00    +0.043 A 
ENDBRANCH   1   2
BRANCH   1   8
ATOM      8  C   LIG    1       24.953 -24.374   6.130  0.00  0.00    +0.122 C 
BRANCH   8   9
ATOM      9  C   LIG    1       24.138 -25.725   6.138  0.00  0.00    +0.103 C 
BRANCH   9  11
ATOM     10  C   LIG    1       25.895 -26.917   4.858  0.00  0.00    +0.104 C 
ATOM     11  N   LIG    1       24.555 -26.951   5.408  0.00  0.00    -0.307 NA
ATOM     12  C   LIG    1       24.362 -28.177   6.174  0.00  0.00    +0.104 C 
ENDBRANCH   9  11
ENDBRANCH   8   9
ENDBRANCH   1   8
BRANCH   1  13
ATOM     13  C   LIG    1       23.245 -22.505   6.379  0.00  0.00    +0.141 C 
BRANCH  13  14
ATOM     14  C   LIG    1       23.404 -21.307   5.448  0.00  0.00    -0.030 A 
ATOM     15  C   LIG    1       22.561 -20.192   5.603  0.00  0.00    +0.005 A 
ATOM     16  C   LIG    1       22.722 -19.073   4.785  0.00  0.00    +0.000 A 
ATOM     17  C   LIG    1       23.635 -19.094   3.732  0.00  0.00    +0.000 A 
ATOM     18  C   LIG    1       24.390 -20.240   3.493  0.00  0.00    +0.000 A 
ATOM     19  C   LIG    1       24.345 -21.294   4.400  0.00  0.00    +0.005 A 
ENDBRANCH  13  14
ENDBRANCH   1  13
TORSDOF 6
ENDMDL
MODEL 5
REMARK VINA RESULT:      -7.8      1.573      4.785
REMARK  Name = *****
REMARK                            x       y       z     vdW  Elec       q    Type
REMARK                         _______ _______ _______ _____ _____    ______ ____
ROOT
ATOM      1  N   LIG    1       25.195 -21.973   5.723  0.00  0.00    -0.310 N 
ENDROOT
BRANCH   1   2
ATOM      2  C   LIG    1       24.284 -21.122   5.048  0.00  0.00    +0.121 A 
ATOM      3  N   LIG    1       24.699 -20.497   3.930  0.00  0.00    -0.240 NA
ATOM      4  C   LIG    1       23.985 -19.429   3.506  0.00  0.00    +0.113 A 
ATOM      5  C   LIG    1       22.943 -18.854   4.201  0.00  0.00    +0.020 A 
ATOM      6  C   LIG    1       22.487 -19.510   5.308  0.00  0.00    +0.005 A 
ATOM      7  C   LIG    1       23.059 -20.727   5.570  0.00  0.00    +0.043 A 
ENDBRANCH   1   2
BRANCH   1   8
ATOM      8  C   LIG    1       24.842 -23.429   5.692  0.00  0.00    +0.122 C 
BRANCH   8   9
ATOM      9  C   LIG    1       25.677 -24.453   6.555  0.00  0.00    +0.103 C 
BRANCH   9  11
ATOM     10  C   LIG    1       26.024 -26.859   7.036  0.00  0.00    +0.104 C 
ATOM     11  N   LIG    1       26.117 -25.786   6.067  0.00  0.00    -0.307 NA
ATOM     12  C   LIG    1       25.481 -26.186   4.818  0.00  0.00    +0.104 C 
ENDBRANCH   9  11
ENDBRANCH   8   9
ENDBRANCH   1   8
BRANCH   1  13
ATOM     13  C   LIG    1       25.855 -21.462   6.947  0.00  0.00    +0.141 C 
BRANCH  13  14
ATOM     14  C   LIG    1       27.272 -20.899   6.872  0.00  0.00    -0.030 A 
ATOM     15  C   LIG    1       28.232 -21.311   7.814  0.00  0.00    +0.005 A 
ATOM     16  C   LIG    1       29.541 -20.835   7.732  0.00  0.00    +0.000 A 
ATOM     17  C   LIG    1       29.881 -19.861   6.795  0.00  0.00    +0.000 A 
ATOM     18  C   LIG    1       28.908 -19.356   5.937  0.00  0.00    +0.000 A 
ATOM     19  C   LIG    1       27.646 -19.940   5.911  0.00  0.00    +0.005 A 
ENDBRANCH  13  14
ENDBRANCH   1  13
TORSDOF 6
ENDMDL
MODEL 6
REMARK VINA RESULT:      -7.8      1.298      5.672
REMARK  Name = *****
REMARK                            x       y       z     vdW  Elec       q    Type
REMARK                         _______ _______ _______ _____ _____    ______ ____
ROOT
ATOM      1  N   LIG    1       26.300 -21.364   6.616  0.00  0.00    -0.310 N 
ENDROOT
BRANCH   1   2
ATOM      2  C   LIG    1       27.640 -20.909   6.711  0.00  0.00    +0.121 A 
ATOM      3  N   LIG    1       28.340 -21.205   7.822  0.00  0.00    -0.240 NA
ATOM      4  C   LIG    1       29.453 -20.479   8.075  0.00  0.00    +0.113 A 
ATOM      5  C   LIG    1       29.854 -19.376   7.353  0.00  0.00    +0.020 A 
ATOM      6  C   LIG    1       29.177 -19.099   6.200  0.00  0.00    +0.005 A 
ATOM      7  C   LIG    1       28.215 -20.003   5.830  0.00  0.00    +0.043 A 
ENDBRANCH   1   2
BRANCH   1   8
ATOM      8  C   LIG    1       25.931 -22.448   7.583  0.00  0.00    +0.122 C 
BRANCH   8   9
ATOM      9  C   LIG    1       25.986 -23.956   7.121  0.00  0.00    +0.103 C 
BRANCH   9  11
ATOM     10  C   LIG    1       23.546 -24.041   6.690  0.00  0.00    +0.104 C 
ATOM     11  N   LIG    1       24.834 -24.686   6.530  0.00  0.00    -0.307 NA
ATOM     12  C   LIG    1       25.035 -25.056   5.134  0.00  0.00    +0.104 C 
ENDBRANCH   9  11
ENDBRANCH   8   9
ENDBRANCH   1   8
BRANCH   1  13
ATOM     13  C   LIG    1       25.668 -21.406   5.277  0.00  0.00    +0.141 C 
BRANCH  13  14
ATOM     14  C   LIG    1       24.533 -20.444   4.937  0.00  0.00    -0.030 A 
ATOM     15  C   LIG    1       24.688 -19.538   3.872  0.00  0.00    +0.005 A 
ATOM     16  C   LIG    1       23.644 -18.681   3.525  0.00  0.00    +0.000 A 
ATOM     17  C   LIG    1       22.486 -18.630   4.299  0.00  0.00    +0.000 A 
ATOM     18  C   LIG    1       22.371 -19.436   5.428  0.00  0.00    +0.000 A 
ATOM     19  C   LIG    1       23.341 -20.401   5.684  0.00  0.00    +0.005 A 
ENDBRANCH  13  14
ENDBRANCH   1  13
TORSDOF 6
ENDMDL
MODEL 7
REMARK VINA RESULT:      -7.8      1.434      4.689
REMARK  Name = *****
REMARK                            x       y       z     vdW  Elec       q    Type
REMARK                         _______ _______ _______ _____ _____    ______ ____
ROOT
ATOM      1  N   LIG    1       25.210 -21.602   6.163  0.00  0.00    -0.310 N 
ENDROOT
BRANCH   1   2
ATOM      2  C   LIG    1       24.340 -20.887   5.302  0.00  0.00    +0.121 A 
ATOM      3  N   LIG    1       24.857 -20.321   4.194  0.00  0.00    -0.240 NA
ATOM      4  C   LIG    1       24.133 -19.354   3.587  0.00  0.00    +0.113 A 
ATOM      5  C   LIG    1       22.968 -18.812   4.086  0.00  0.00    +0.020 A 
ATOM      6  C   LIG    1       22.415 -19.413   5.181  0.00  0.00    +0.005 A 
ATOM      7  C   LIG    1       23.031 -20.553   5.624  0.00  0.00    +0.043 A 
ENDBRANCH   1   2
BRANCH   1   8
ATOM      8  C   LIG    1       24.795 -23.013   6.450  0.00  0.00    +0.122 C 
BRANCH   8   9
ATOM      9  C   LIG    1       25.896 -24.109   6.725  0.00  0.00    +0.103 C 
BRANCH   9  11
ATOM     10  C   LIG    1       25.987 -26.586   6.693  0.00  0.00    +0.104 C 
ATOM     11  N   LIG    1       26.044 -25.356   5.929  0.00  0.00    -0.307 NA
ATOM     12  C   LIG    1       25.132 -25.432   4.794  0.00  0.00    +0.104 C 
ENDBRANCH   9  11
ENDBRANCH   8   9
ENDBRANCH   1   8
BRANCH   1  13
ATOM     13  C   LIG    1       25.884 -20.859   7.254  0.00  0.00    +0.141 C 
BRANCH  13  14
ATOM     14  C   LIG    1       27.370 -20.529   7.148  0.00  0.00    -0.030 A 
ATOM     15  C   LIG    1       27.825 -19.705   6.104  0.00  0.00    +0.005 A 
ATOM     16  C   LIG    1       29.175 -19.363   6.019  0.00  0.00    +0.000 A 
ATOM     17  C   LIG    1       30.102 -19.926   6.894  0.00  0.00    +0.000 A 
ATOM     18  C   LIG    1       29.680 -20.840   7.857  0.00  0.00    +0.000 A 
ATOM     19  C   LIG    1       28.319 -21.060   8.044  0.00  0.00    +0.005 A 
ENDBRANCH  13  14
ENDBRANCH   1  13
TORSDOF 6
ENDMDL
MODEL 8
REMARK VINA RESULT:      -7.6      1.320      4.850
REMARK  Name = *****
REMARK                            x       y       z     vdW  Elec       q    Type
REMARK                         _______ _______ _______ _____ _____    ______ ____
ROOT
ATOM      1  N   LIG    1       25.494 -22.514   6.780  0.00  0.00    -0.310 N 
ENDROOT
BRANCH   1   2
ATOM      2  C   LIG    1       25.276 -23.854   6.369  0.00  0.00    +0.121 A 
ATOM      3  N   LIG    1       24.012 -24.258   6.142  0.00  0.00    -0.240 NA
ATOM      4  C   LIG    1       23.772 -25.589   6.116  0.00  0.00    +0.113 A 
ATOM      5  C   LIG    1       24.696 -26.560   6.434  0.00  0.00    +0.020 A 
ATOM      6  C   LIG    1       25.990 -26.162   6.619  0.00  0.00    +0.005 A 
ATOM      7  C   LIG    1       26.256 -24.838   6.384  0.00  0.00    +0.043 A 
ENDBRANCH   1   2
BRANCH   1   8
ATOM      8  C   LIG    1       26.601 -22.330   7.772  0.00  0.00    +0.122 C 
BRANCH   8   9
ATOM      9  C   LIG    1       27.433 -20.989   7.772  0.00  0.00    +0.103 C 
BRANCH   9  11
ATOM     10  C   LIG    1       28.529 -19.757   5.921  0.00  0.00    +0.104 C 
ATOM     11  N   LIG    1       28.653 -20.768   6.952  0.00  0.00    -0.307 NA
ATOM     12  C   LIG    1       29.850 -20.524   7.748  0.00  0.00    +0.104 C 
ENDBRANCH   9  11
ENDBRANCH   8   9
ENDBRANCH   1   8
BRANCH   1  13
ATOM     13  C   LIG    1       24.319 -21.620   6.902  0.00  0.00    +0.141 C 
BRANCH  13  14
ATOM     14  C   LIG    1       24.003 -20.619   5.793  0.00  0.00    -0.030 A 
ATOM     15  C   LIG    1       22.722 -20.043   5.724  0.00  0.00    +0.005 A 
ATOM     16  C   LIG    1       22.432 -19.096   4.741  0.00  0.00    +0.000 A 
ATOM     17  C   LIG    1       23.367 -18.800   3.749  0.00  0.00    +0.000 A 
ATOM     18  C   LIG    1       24.596 -19.455   3.737  0.00  0.00    +0.000 A 
ATOM     19  C   LIG    1       24.945 -20.279   4.803  0.00  0.00    +0.005 A 
ENDBRANCH  13  14
ENDBRANCH   1  13
TORSDOF 6
ENDMDL
MODEL 9
REMARK VINA RESULT:      -7.6      0.991      4.711
REMARK  Name = *****
REMARK                            x       y       z     vdW  Elec       q    Type
REMARK                         _______ _______ _______ _____ _____    ______ ____
ROOT
ATOM      1  N   LIG    1       26.938 -21.303   6.613  0.00  0.00    -0.310 N 
ENDROOT
BRANCH   1   2
ATOM      2  C   LIG    1       28.249 -20.784   6.763  0.00  0.00    +0.121 A 
ATOM      3  N   LIG    1       28.963 -21.149   7.845  0.00  0.00    -0.240 NA
ATOM      4  C   LIG    1       30.033 -20.390   8.177  0.00  0.00    +0.113 A 
ATOM      5  C   LIG    1       30.371 -19.200   7.570  0.00  0.00    +0.020 A 
ATOM      6  C   LIG    1       29.682 -18.849   6.444  0.00  0.00    +0.005 A 
ATOM      7  C   LIG    1       28.774 -19.764   5.980  0.00  0.00    +0.043 A 
ENDBRANCH   1   2
BRANCH   1   8
ATOM      8  C   LIG    1       25.916 -20.311   6.146  0.00  0.00    +0.122 C 
BRANCH   8   9
ATOM      9  C   LIG    1       25.175 -20.545   4.773  0.00  0.00    +0.103 C 
BRANCH   9  11
ATOM     10  C   LIG    1       22.916 -20.144   5.710  0.00  0.00    +0.104 C 
ATOM     11  N   LIG    1       23.751 -20.196   4.527  0.00  0.00    -0.307 NA
ATOM     12  C   LIG    1       23.578 -18.981   3.741  0.00  0.00    +0.104 C 
ENDBRANCH   9  11
ENDBRANCH   8   9
ENDBRANCH   1   8
BRANCH   1  13
ATOM     13  C   LIG    1       26.485 -22.346   7.563  0.00  0.00    +0.141 C 
BRANCH  13  14
ATOM     14  C   LIG    1       25.590 -23.483   7.077  0.00  0.00    -0.030 A 
ATOM     15  C   LIG    1       24.194 -23.308   7.063  0.00  0.00    +0.005 A 
ATOM     16  C   LIG    1       23.366 -24.323   6.584  0.00  0.00    +0.000 A 
ATOM     17  C   LIG    1       23.901 -25.560   6.226  0.00  0.00    +0.000 A 
ATOM     18  C   LIG    1       25.269 -25.786   6.352  0.00  0.00    +0.000 A 
ATOM     19  C   LIG    1       26.112 -24.728   6.678  0.00  0.00    +0.005 A 
ENDBRANCH  13  14
ENDBRANCH   1  13
TORSDOF 6
ENDMDL
