MODEL 1
REMARK VINA RESULT:      -0.8      0.000      0.000
REMARK  Name = *****
REMARK                            x       y       z     vdW  Elec       q    Type
REMARK                         _______ _______ _______ _____ _____    ______ ____
ROOT
ATOM      1  C   LIG    1       26.532 -17.348   3.710  0.00  0.00    +0.065 C 
ATOM      2  C   LIG    1       25.678 -16.159   3.249  0.00  0.00    +0.098 C 
ATOM      3  C   LIG    1       26.400 -14.809   3.349  0.00  0.00    +0.065 C 
ATOM      4  C   LIG    1       27.511 -14.695   4.128  0.00  0.00    +0.016 C 
ATOM      5  C   LIG    1       28.233 -13.409   4.431  0.00  0.00    +0.061 C 
ATOM      6  N   LIG    1       28.048 -15.827   4.709  0.00  0.00    -0.321 N 
ATOM      7  H   LIG    1       28.887 -15.704   5.271  0.00  0.00    +0.152 HD
ATOM      8  C   LIG    1       27.655 -17.128   4.436  0.00  0.00    +0.016 C 
ATOM      9  C   LIG    1       28.559 -18.194   5.005  0.00  0.00    +0.061 C 
ENDROOT
BRANCH   2  10
ATOM     10  C   LIG    1       24.355 -16.097   4.017  0.00  0.00    -0.004 A 
ATOM     11  C   LIG    1       23.348 -17.100   4.026  0.00  0.00    +0.138 A 
ATOM     12  C   LIG    1       22.137 -16.996   4.834  0.00  0.00    +0.135 A 
ATOM     13  N   LIG    1       21.400 -18.096   4.641  0.00  0.00    -0.049 NA
ATOM     14  O   LIG    1       22.106 -18.866   3.735  0.00  0.00    -0.242 OA
ATOM     15  C   LIG    1       21.864 -15.892   5.659  0.00  0.00    +0.033 A 
ATOM     16  C   LIG    1       22.846 -14.888   5.626  0.00  0.00    +0.003 A 
ATOM     17  N   LIG    1       23.291 -18.263   3.364  0.00  0.00    -0.049 NA
ATOM     18  C   LIG    1       24.031 -14.987   4.846  0.00  0.00    +0.007 A 
ENDBRANCH   2  10
BRANCH   1  19
ATOM     19  C   LIG    1       26.123 -18.725   3.276  0.00  0.00    +0.337 C 
ATOM     20  O   LIG    1       25.817 -19.055   2.138  0.00  0.00    -0.245 OA
BRANCH  19  22
ATOM     21  C   LIG    1       25.268 -20.705   4.281  0.00  0.00    +0.280 C 
ATOM     22  O   LIG    1       26.106 -19.550   4.360  0.00  0.00    -0.465 OA
ENDBRANCH  19  22
ENDBRANCH   1  19
BRANCH   3  23
ATOM     23  C   LIG    1       25.792 -13.707   2.540  0.00  0.00    +0.338 C 
ATOM     24  O   LIG    1       26.438 -12.953   1.819  0.00  0.00    -0.245 OA
BRANCH  23  25
ATOM     25  O   LIG    1       24.456 -13.684   2.711  0.00  0.00    -0.459 OA
BRANCH  25  26
ATOM     26  C   LIG    1       23.791 -12.436   2.970  0.00  0.00    +0.171 C 
ATOM     27  C   LIG    1       24.195 -11.487   1.843  0.00  0.00    +0.051 C 
ATOM     28  C   LIG    1       24.270 -11.898   4.311  0.00  0.00    +0.051 C 
ENDBRANCH  25  26
ENDBRANCH  23  25
ENDBRANCH   3  23
TORSDOF 6
ENDMDL
MODEL 2
REMARK VINA RESULT:       1.5      2.253      5.911
REMARK  Name = *****
REMARK                            x       y       z     vdW  Elec       q    Type
REMARK                         _______ _______ _______ _____ _____    ______ ____
ROOT
ATOM      1  C   LIG    1       22.601 -19.607   4.084  0.00  0.00    +0.065 C 
ATOM      2  C   LIG    1       23.993 -18.975   3.945  0.00  0.00    +0.098 C 
ATOM      3  C   LIG    1       25.059 -19.635   4.830  0.00  0.00    +0.065 C 
ATOM      4  C   LIG    1       24.674 -20.414   5.878  0.00  0.00    +0.016 C 
ATOM      5  C   LIG    1       25.600 -21.005   6.909  0.00  0.00    +0.061 C 
ATOM      6  N   LIG    1       23.335 -20.708   6.048  0.00  0.00    -0.321 N 
ATOM      7  H   LIG    1       23.090 -21.306   6.833  0.00  0.00    +0.152 HD
ATOM      8  C   LIG    1       22.332 -20.417   5.136  0.00  0.00    +0.016 C 
ATOM      9  C   LIG    1       21.001 -21.060   5.436  0.00  0.00    +0.061 C 
ENDROOT
BRANCH   2  10
ATOM     10  C   LIG    1       23.948 -17.470   4.223  0.00  0.00    -0.004 A 
ATOM     11  C   LIG    1       24.910 -16.514   3.799  0.00  0.00    +0.138 A 
ATOM     12  C   LIG    1       24.765 -15.083   4.052  0.00  0.00    +0.135 A 
ATOM     13  N   LIG    1       25.816 -14.449   3.518  0.00  0.00    -0.049 NA
ATOM     14  O   LIG    1       26.607 -15.436   2.960  0.00  0.00    -0.242 OA
ATOM     15  C   LIG    1       23.671 -14.538   4.744  0.00  0.00    +0.033 A 
ATOM     16  C   LIG    1       22.737 -15.487   5.189  0.00  0.00    +0.003 A 
ATOM     17  N   LIG    1       26.055 -16.690   3.126  0.00  0.00    -0.049 NA
ATOM     18  C   LIG    1       22.868 -16.882   4.940  0.00  0.00    +0.007 A 
ENDBRANCH   2  10
BRANCH   1  19
ATOM     19  C   LIG    1       21.597 -19.354   2.998  0.00  0.00    +0.337 C 
ATOM     20  O   LIG    1       21.852 -19.182   1.813  0.00  0.00    -0.245 OA
BRANCH  19  22
ATOM     21  C   LIG    1       19.366 -18.541   2.843  0.00  0.00    +0.280 C 
ATOM     22  O   LIG    1       20.349 -19.307   3.543  0.00  0.00    -0.465 OA
ENDBRANCH  19  22
ENDBRANCH   1  19
BRANCH   3  23
ATOM     23  C   LIG    1       26.472 -19.353   4.433  0.00  0.00    +0.338 C 
ATOM     24  O   LIG    1       26.835 -19.184   3.274  0.00  0.00    -0.245 OA
BRANCH  23  25
ATOM     25  O   LIG    1       27.262 -19.299   5.523  0.00  0.00    -0.459 OA
BRANCH  25  26
ATOM     26  C   LIG    1       28.668 -19.576   5.402  0.00  0.00    +0.171 C 
ATOM     27  C   LIG    1       29.041 -20.454   6.595  0.00  0.00    +0.051 C 
ATOM     28  C   LIG    1       29.429 -18.259   5.457  0.00  0.00    +0.051 C 
ENDBRANCH  25  26
ENDBRANCH  23  25
ENDBRANCH   3  23
TORSDOF 6
ENDMDL
MODEL 3
REMARK VINA RESULT:       1.6      2.186      3.377
REMARK  Name = *****
REMARK                            x       y       z     vdW  Elec       q    Type
REMARK                         _______ _______ _______ _____ _____    ______ ____
ROOT
ATOM      1  C   LIG    1       24.903 -18.762   3.571  0.00  0.00    +0.065 C 
ATOM      2  C   LIG    1       25.190 -17.272   3.334  0.00  0.00    +0.098 C 
ATOM      3  C   LIG    1       26.637 -16.868   3.645  0.00  0.00    +0.065 C 
ATOM      4  C   LIG    1       27.414 -17.683   4.409  0.00  0.00    +0.016 C 
ATOM      5  C   LIG    1       28.795 -17.350   4.909  0.00  0.00    +0.061 C 
ATOM      6  N   LIG    1       26.933 -18.924   4.781  0.00  0.00    -0.321 N 
ATOM      7  H   LIG    1       27.549 -19.509   5.339  0.00  0.00    +0.152 HD
ATOM      8  C   LIG    1       25.770 -19.505   4.301  0.00  0.00    +0.016 C 
ATOM      9  C   LIG    1       25.594 -20.959   4.665  0.00  0.00    +0.061 C 
ENDROOT
BRANCH   2  10
ATOM     10  C   LIG    1       24.223 -16.390   4.128  0.00  0.00    -0.004 A 
ATOM     11  C   LIG    1       24.174 -14.970   4.099  0.00  0.00    +0.138 A 
ATOM     12  C   LIG    1       23.181 -14.198   4.840  0.00  0.00    +0.135 A 
ATOM     13  N   LIG    1       23.383 -12.898   4.596  0.00  0.00    -0.049 NA
ATOM     14  O   LIG    1       24.471 -12.841   3.745  0.00  0.00    -0.242 OA
ATOM     15  C   LIG    1       22.201 -14.796   5.649  0.00  0.00    +0.033 A 
ATOM     16  C   LIG    1       22.270 -16.198   5.701  0.00  0.00    +0.003 A 
ATOM     17  N   LIG    1       24.949 -14.098   3.439  0.00  0.00    -0.049 NA
ATOM     18  C   LIG    1       23.231 -16.955   4.977  0.00  0.00    +0.007 A 
ENDBRANCH   2  10
BRANCH   1  19
ATOM     19  C   LIG    1       23.692 -19.363   2.920  0.00  0.00    +0.337 C 
ATOM     20  O   LIG    1       23.670 -19.932   1.837  0.00  0.00    -0.245 OA
BRANCH  19  22
ATOM     21  C   LIG    1       22.231 -20.191   4.606  0.00  0.00    +0.280 C 
ATOM     22  O   LIG    1       22.603 -19.142   3.709  0.00  0.00    -0.465 OA
ENDBRANCH  19  22
ENDBRANCH   1  19
BRANCH   3  23
ATOM     23  C   LIG    1       27.072 -15.569   3.045  0.00  0.00    +0.338 C 
ATOM     24  O   LIG    1       26.690 -15.158   1.954  0.00  0.00    -0.245 OA
BRANCH  23  25
ATOM     25  O   LIG    1       27.915 -14.929   3.879  0.00  0.00    -0.459 OA
BRANCH  25  26
ATOM     26  C   LIG    1       27.724 -13.530   4.153  0.00  0.00    +0.171 C 
ATOM     27  C   LIG    1       29.050 -12.841   3.837  0.00  0.00    +0.051 C 
ATOM     28  C   LIG    1       27.383 -13.367   5.628  0.00  0.00    +0.051 C 
ENDBRANCH  25  26
ENDBRANCH  23  25
ENDBRANCH   3  23
TORSDOF 6
ENDMDL
MODEL 4
REMARK VINA RESULT:       2.0      2.153      6.257
REMARK  Name = *****
REMARK                            x       y       z     vdW  Elec       q    Type
REMARK                         _______ _______ _______ _____ _____    ______ ____
ROOT
ATOM      1  C   LIG    1       25.280 -16.202   3.775  0.00  0.00    +0.065 C 
ATOM      2  C   LIG    1       25.182 -17.713   3.525  0.00  0.00    +0.098 C 
ATOM      3  C   LIG    1       23.751 -18.260   3.616  0.00  0.00    +0.065 C 
ATOM      4  C   LIG    1       22.787 -17.524   4.234  0.00  0.00    +0.016 C 
ATOM      5  C   LIG    1       21.384 -17.991   4.520  0.00  0.00    +0.061 C 
ATOM      6  N   LIG    1       23.079 -16.239   4.651  0.00  0.00    -0.321 N 
ATOM      7  H   LIG    1       22.329 -15.716   5.095  0.00  0.00    +0.152 HD
ATOM      8  C   LIG    1       24.240 -15.546   4.347  0.00  0.00    +0.016 C 
ATOM      9  C   LIG    1       24.213 -14.081   4.705  0.00  0.00    +0.061 C 
ENDROOT
BRANCH   2  10
ATOM     10  C   LIG    1       26.094 -18.491   4.477  0.00  0.00    -0.004 A 
ATOM     11  C   LIG    1       27.455 -18.194   4.757  0.00  0.00    +0.138 A 
ATOM     12  C   LIG    1       28.245 -18.948   5.726  0.00  0.00    +0.135 A 
ATOM     13  N   LIG    1       29.474 -18.418   5.778  0.00  0.00    -0.049 NA
ATOM     14  O   LIG    1       29.472 -17.378   4.868  0.00  0.00    -0.242 OA
ATOM     15  C   LIG    1       27.728 -20.034   6.451  0.00  0.00    +0.033 A 
ATOM     16  C   LIG    1       26.392 -20.346   6.151  0.00  0.00    +0.003 A 
ATOM     17  N   LIG    1       28.246 -17.238   4.251  0.00  0.00    -0.049 NA
ATOM     18  C   LIG    1       25.615 -19.611   5.213  0.00  0.00    +0.007 A 
ENDBRANCH   2  10
BRANCH   1  19
ATOM     19  C   LIG    1       26.512 -15.485   3.309  0.00  0.00    +0.337 C 
ATOM     20  O   LIG    1       26.819 -15.273   2.143  0.00  0.00    -0.245 OA
BRANCH  19  22
ATOM     21  C   LIG    1       27.647 -13.761   4.494  0.00  0.00    +0.280 C 
ATOM     22  O   LIG    1       27.264 -15.134   4.390  0.00  0.00    -0.465 OA
ENDBRANCH  19  22
ENDBRANCH   1  19
BRANCH   3  23
ATOM     23  C   LIG    1       23.545 -19.598   2.981  0.00  0.00    +0.338 C 
ATOM     24  O   LIG    1       23.200 -19.755   1.815  0.00  0.00    -0.245 OA
BRANCH  23  25
ATOM     25  O   LIG    1       23.809 -20.580   3.866  0.00  0.00    -0.459 OA
BRANCH  25  26
ATOM     26  C   LIG    1       22.729 -21.354   4.417  0.00  0.00    +0.171 C 
ATOM     27  C   LIG    1       21.439 -20.627   4.041  0.00  0.00    +0.051 C 
ATOM     28  C   LIG    1       22.888 -21.400   5.930  0.00  0.00    +0.051 C 
ENDBRANCH  25  26
ENDBRANCH  23  25
ENDBRANCH   3  23
TORSDOF 6
ENDMDL
