MODEL 1
REMARK VINA RESULT:      -9.3      0.000      0.000
REMARK  Name = *****
REMARK                            x       y       z     vdW  Elec       q    Type
REMARK                         _______ _______ _______ _____ _____    ______ ____
ROOT
ATOM      1  C   LIG    1       29.625 -18.495   6.597  0.00  0.00    +0.049 C 
ATOM      2  C   LIG    1       30.129 -19.558   7.536  0.00  0.00    +0.013 A 
ATOM      3  C   LIG    1       29.575 -20.848   7.605  0.00  0.00    +0.060 A 
ATOM      4  N   LIG    1       30.046 -21.792   8.463  0.00  0.00    -0.259 NA
ATOM      5  C   LIG    1       31.089 -21.469   9.251  0.00  0.00    +0.114 A 
ATOM      6  C   LIG    1       31.719 -20.241   9.232  0.00  0.00    +0.065 A 
ATOM      7  C   LIG    1       31.236 -19.269   8.362  0.00  0.00    +0.127 A 
ENDROOT
BRANCH   3   8
ATOM      8  C   LIG    1       28.442 -21.310   6.721  0.00  0.00    +0.167 C 
BRANCH   8   9
ATOM      9  S   LIG    1       26.966 -21.782   7.673  0.00  0.00    +0.095 S 
ATOM     10  O   LIG    1       26.849 -20.935   8.908  0.00  0.00    -0.249 OA
BRANCH   9  11
ATOM     11  C   LIG    1       25.805 -21.119   6.561  0.00  0.00    +0.198 A 
ATOM     12  N   LIG    1       24.460 -21.086   6.823  0.00  0.00    -0.331 N 
ATOM     13  H   LIG    1       24.031 -21.467   7.654  0.00  0.00    +0.168 HD
ATOM     14  C   LIG    1       23.855 -20.362   5.830  0.00  0.00    +0.067 A 
ATOM     15  C   LIG    1       24.889 -20.060   4.950  0.00  0.00    +0.090 A 
ATOM     16  C   LIG    1       24.607 -19.318   3.793  0.00  0.00    +0.030 A 
ATOM     17  C   LIG    1       23.295 -18.874   3.583  0.00  0.00    +0.002 A 
ATOM     18  C   LIG    1       22.281 -19.178   4.494  0.00  0.00    +0.002 A 
ATOM     19  C   LIG    1       22.536 -19.945   5.637  0.00  0.00    +0.028 A 
ATOM     20  N   LIG    1       26.091 -20.545   5.414  0.00  0.00    -0.220 NA
ENDBRANCH   9  11
ENDBRANCH   8   9
ENDBRANCH   3   8
BRANCH   7  21
ATOM     21  O   LIG    1       31.767 -18.009   8.234  0.00  0.00    -0.483 OA
BRANCH  21  22
ATOM     22  C   LIG    1       32.183 -17.334   9.428  0.00  0.00    +0.342 C 
BRANCH  22  23
ATOM     23  C   LIG    1       30.994 -16.925  10.297  0.00  0.00    +0.424 C 
ATOM     24  F   LIG    1       29.937 -16.571   9.528  0.00  0.00    -0.167 F 
ATOM     25  F   LIG    1       31.308 -15.849  11.060  0.00  0.00    -0.167 F 
ATOM     26  F   LIG    1       30.581 -17.904  11.128  0.00  0.00    -0.167 F 
ENDBRANCH  22  23
ENDBRANCH  21  22
ENDBRANCH   7  21
TORSDOF 6
ENDMDL
MODEL 2
REMARK VINA RESULT:      -9.2      3.860      8.202
REMARK  Name = *****
REMARK                            x       y       z     vdW  Elec       q    Type
REMARK                         _______ _______ _______ _____ _____    ______ ____
ROOT
ATOM      1  C   LIG    1       27.142 -19.657   5.264  0.00  0.00    +0.049 C 
ATOM      2  C   LIG    1       26.807 -20.538   6.438  0.00  0.00    +0.013 A 
ATOM      3  C   LIG    1       27.454 -20.440   7.681  0.00  0.00    +0.060 A 
ATOM      4  N   LIG    1       27.137 -21.249   8.728  0.00  0.00    -0.259 NA
ATOM      5  C   LIG    1       26.156 -22.154   8.555  0.00  0.00    +0.114 A 
ATOM      6  C   LIG    1       25.443 -22.304   7.382  0.00  0.00    +0.065 A 
ATOM      7  C   LIG    1       25.769 -21.484   6.307  0.00  0.00    +0.127 A 
ENDROOT
BRANCH   3   8
ATOM      8  C   LIG    1       28.526 -19.418   7.979  0.00  0.00    +0.167 C 
BRANCH   8   9
ATOM      9  S   LIG    1       30.203 -20.104   7.823  0.00  0.00    +0.095 S 
ATOM     10  O   LIG    1       30.781 -19.768   6.478  0.00  0.00    -0.249 OA
BRANCH   9  11
ATOM     11  C   LIG    1       30.962 -18.997   8.928  0.00  0.00    +0.198 A 
ATOM     12  N   LIG    1       31.932 -18.109   8.541  0.00  0.00    -0.331 N 
ATOM     13  H   LIG    1       32.305 -18.043   7.605  0.00  0.00    +0.168 HD
ATOM     14  C   LIG    1       32.197 -17.285   9.603  0.00  0.00    +0.067 A 
ATOM     15  C   LIG    1       31.409 -17.791  10.633  0.00  0.00    +0.090 A 
ATOM     16  C   LIG    1       31.448 -17.173  11.890  0.00  0.00    +0.030 A 
ATOM     17  C   LIG    1       32.255 -16.039  12.057  0.00  0.00    +0.002 A 
ATOM     18  C   LIG    1       33.021 -15.543  10.999  0.00  0.00    +0.002 A 
ATOM     19  C   LIG    1       33.020 -16.166   9.746  0.00  0.00    +0.028 A 
ATOM     20  N   LIG    1       30.657 -18.860  10.199  0.00  0.00    -0.220 NA
ENDBRANCH   9  11
ENDBRANCH   8   9
ENDBRANCH   3   8
BRANCH   7  21
ATOM     21  O   LIG    1       25.141 -21.519   5.086  0.00  0.00    -0.483 OA
BRANCH  21  22
ATOM     22  C   LIG    1       23.715 -21.666   5.071  0.00  0.00    +0.342 C 
BRANCH  22  23
ATOM     23  C   LIG    1       23.001 -20.327   5.242  0.00  0.00    +0.424 C 
ATOM     24  F   LIG    1       23.674 -19.339   4.605  0.00  0.00    -0.167 F 
ATOM     25  F   LIG    1       22.937 -19.984   6.552  0.00  0.00    -0.167 F 
ATOM     26  F   LIG    1       21.739 -20.331   4.764  0.00  0.00    -0.167 F 
ENDBRANCH  22  23
ENDBRANCH  21  22
ENDBRANCH   7  21
TORSDOF 6
ENDMDL
MODEL 3
REMARK VINA RESULT:      -8.9      0.940      1.597
REMARK  Name = *****
REMARK                            x       y       z     vdW  Elec       q    Type
REMARK                         _______ _______ _______ _____ _____    ______ ____
ROOT
ATOM      1  C   LIG    1       30.431 -21.566   9.206  0.00  0.00    +0.049 C 
ATOM      2  C   LIG    1       30.171 -20.514   8.162  0.00  0.00    +0.013 A 
ATOM      3  C   LIG    1       29.171 -20.634   7.182  0.00  0.00    +0.060 A 
ATOM      4  N   LIG    1       28.956 -19.670   6.247  0.00  0.00    -0.259 NA
ATOM      5  C   LIG    1       29.723 -18.564   6.287  0.00  0.00    +0.114 A 
ATOM      6  C   LIG    1       30.708 -18.343   7.229  0.00  0.00    +0.065 A 
ATOM      7  C   LIG    1       30.937 -19.329   8.183  0.00  0.00    +0.127 A 
ENDROOT
BRANCH   3   8
ATOM      8  C   LIG    1       28.232 -21.813   7.098  0.00  0.00    +0.167 C 
BRANCH   8   9
ATOM      9  S   LIG    1       26.761 -21.606   8.148  0.00  0.00    +0.095 S 
ATOM     10  O   LIG    1       26.930 -20.419   9.053  0.00  0.00    -0.249 OA
BRANCH   9  11
ATOM     11  C   LIG    1       25.702 -21.058   6.882  0.00  0.00    +0.198 A 
ATOM     12  N   LIG    1       24.352 -20.900   7.060  0.00  0.00    -0.331 N 
ATOM     13  H   LIG    1       23.860 -21.113   7.915  0.00  0.00    +0.168 HD
ATOM     14  C   LIG    1       23.845 -20.308   5.933  0.00  0.00    +0.067 A 
ATOM     15  C   LIG    1       24.938 -20.217   5.075  0.00  0.00    +0.090 A 
ATOM     16  C   LIG    1       24.761 -19.655   3.802  0.00  0.00    +0.030 A 
ATOM     17  C   LIG    1       23.495 -19.169   3.451  0.00  0.00    +0.002 A 
ATOM     18  C   LIG    1       22.421 -19.258   4.341  0.00  0.00    +0.002 A 
ATOM     19  C   LIG    1       22.569 -19.845   5.603  0.00  0.00    +0.028 A 
ATOM     20  N   LIG    1       26.079 -20.696   5.676  0.00  0.00    -0.220 NA
ENDBRANCH   9  11
ENDBRANCH   8   9
ENDBRANCH   3   8
BRANCH   7  21
ATOM     21  O   LIG    1       31.877 -19.240   9.180  0.00  0.00    -0.483 OA
BRANCH  21  22
ATOM     22  C   LIG    1       32.157 -17.943   9.723  0.00  0.00    +0.342 C 
BRANCH  22  23
ATOM     23  C   LIG    1       31.068 -17.480  10.688  0.00  0.00    +0.424 C 
ATOM     24  F   LIG    1       30.068 -16.856  10.021  0.00  0.00    -0.167 F 
ATOM     25  F   LIG    1       31.567 -16.589  11.580  0.00  0.00    -0.167 F 
ATOM     26  F   LIG    1       30.515 -18.490  11.392  0.00  0.00    -0.167 F 
ENDBRANCH  22  23
ENDBRANCH  21  22
ENDBRANCH   7  21
TORSDOF 6
ENDMDL
MODEL 4
REMARK VINA RESULT:      -8.8      4.586      8.532
REMARK  Name = *****
REMARK                            x       y       z     vdW  Elec       q    Type
REMARK                         _______ _______ _______ _____ _____    ______ ____
ROOT
ATOM      1  C   LIG    1       26.277 -22.959   7.789  0.00  0.00    +0.049 C 
ATOM      2  C   LIG    1       25.889 -22.069   6.639  0.00  0.00    +0.013 A 
ATOM      3  C   LIG    1       26.431 -20.787   6.444  0.00  0.00    +0.060 A 
ATOM      4  N   LIG    1       26.064 -19.999   5.398  0.00  0.00    -0.259 NA
ATOM      5  C   LIG    1       25.164 -20.486   4.522  0.00  0.00    +0.114 A 
ATOM      6  C   LIG    1       24.601 -21.743   4.614  0.00  0.00    +0.065 A 
ATOM      7  C   LIG    1       24.968 -22.550   5.685  0.00  0.00    +0.127 A 
ENDROOT
BRANCH   3   8
ATOM      8  C   LIG    1       27.483 -20.187   7.345  0.00  0.00    +0.167 C 
BRANCH   8   9
ATOM      9  S   LIG    1       29.073 -19.948   6.495  0.00  0.00    +0.095 S 
ATOM     10  O   LIG    1       28.931 -18.930   5.399  0.00  0.00    -0.249 OA
BRANCH   9  11
ATOM     11  C   LIG    1       29.857 -19.102   7.796  0.00  0.00    +0.198 A 
ATOM     12  N   LIG    1       31.079 -18.497   7.658  0.00  0.00    -0.331 N 
ATOM     13  H   LIG    1       31.635 -18.518   6.816  0.00  0.00    +0.168 HD
ATOM     14  C   LIG    1       31.331 -17.791   8.805  0.00  0.00    +0.067 A 
ATOM     15  C   LIG    1       30.251 -18.086   9.632  0.00  0.00    +0.090 A 
ATOM     16  C   LIG    1       30.198 -17.521  10.914  0.00  0.00    +0.030 A 
ATOM     17  C   LIG    1       31.220 -16.646  11.306  0.00  0.00    +0.002 A 
ATOM     18  C   LIG    1       32.283 -16.355  10.447  0.00  0.00    +0.002 A 
ATOM     19  C   LIG    1       32.370 -16.934   9.176  0.00  0.00    +0.028 A 
ATOM     20  N   LIG    1       29.351 -18.908   8.993  0.00  0.00    -0.220 NA
ENDBRANCH   9  11
ENDBRANCH   8   9
ENDBRANCH   3   8
BRANCH   7  21
ATOM     21  O   LIG    1       24.493 -23.821   5.898  0.00  0.00    -0.483 OA
BRANCH  21  22
ATOM     22  C   LIG    1       24.844 -24.834   4.946  0.00  0.00    +0.342 C 
BRANCH  22  23
ATOM     23  C   LIG    1       25.370 -26.098   5.625  0.00  0.00    +0.424 C 
ATOM     24  F   LIG    1       26.539 -25.849   6.262  0.00  0.00    -0.167 F 
ATOM     25  F   LIG    1       25.616 -27.065   4.708  0.00  0.00    -0.167 F 
ATOM     26  F   LIG    1       24.514 -26.610   6.534  0.00  0.00    -0.167 F 
ENDBRANCH  22  23
ENDBRANCH  21  22
ENDBRANCH   7  21
TORSDOF 6
ENDMDL
MODEL 5
REMARK VINA RESULT:      -8.4      4.322      8.379
REMARK  Name = *****
REMARK                            x       y       z     vdW  Elec       q    Type
REMARK                         _______ _______ _______ _____ _____    ______ ____
ROOT
ATOM      1  C   LIG    1       26.283 -20.697   8.894  0.00  0.00    +0.049 C 
ATOM      2  C   LIG    1       26.406 -20.453   7.414  0.00  0.00    +0.013 A 
ATOM      3  C   LIG    1       27.637 -20.236   6.771  0.00  0.00    +0.060 A 
ATOM      4  N   LIG    1       27.723 -20.015   5.431  0.00  0.00    -0.259 NA
ATOM      5  C   LIG    1       26.586 -20.027   4.711  0.00  0.00    +0.114 A 
ATOM      6  C   LIG    1       25.336 -20.263   5.249  0.00  0.00    +0.065 A 
ATOM      7  C   LIG    1       25.241 -20.481   6.619  0.00  0.00    +0.127 A 
ENDROOT
BRANCH   3   8
ATOM      8  C   LIG    1       28.963 -20.260   7.491  0.00  0.00    +0.167 C 
BRANCH   8   9
ATOM      9  S   LIG    1       30.207 -19.198   6.694  0.00  0.00    +0.095 S 
ATOM     10  O   LIG    1       29.538 -18.059   5.978  0.00  0.00    -0.249 OA
BRANCH   9  11
ATOM     11  C   LIG    1       30.829 -18.503   8.161  0.00  0.00    +0.198 A 
ATOM     12  N   LIG    1       31.986 -17.769   8.203  0.00  0.00    -0.331 N 
ATOM     13  H   LIG    1       32.583 -17.598   7.407  0.00  0.00    +0.168 HD
ATOM     14  C   LIG    1       32.102 -17.238   9.461  0.00  0.00    +0.067 A 
ATOM     15  C   LIG    1       31.019 -17.767  10.157  0.00  0.00    +0.090 A 
ATOM     16  C   LIG    1       30.841 -17.426  11.505  0.00  0.00    +0.030 A 
ATOM     17  C   LIG    1       31.743 -16.532  12.097  0.00  0.00    +0.002 A 
ATOM     18  C   LIG    1       32.811 -16.003  11.368  0.00  0.00    +0.002 A 
ATOM     19  C   LIG    1       33.024 -16.357  10.031  0.00  0.00    +0.028 A 
ATOM     20  N   LIG    1       30.245 -18.557   9.338  0.00  0.00    -0.220 NA
ENDBRANCH   9  11
ENDBRANCH   8   9
ENDBRANCH   3   8
BRANCH   7  21
ATOM     21  O   LIG    1       24.067 -20.734   7.285  0.00  0.00    -0.483 OA
BRANCH  21  22
ATOM     22  C   LIG    1       23.760 -22.096   7.609  0.00  0.00    +0.342 C 
BRANCH  22  23
ATOM     23  C   LIG    1       23.080 -22.820   6.449  0.00  0.00    +0.424 C 
ATOM     24  F   LIG    1       22.235 -23.775   6.908  0.00  0.00    -0.167 F 
ATOM     25  F   LIG    1       23.999 -23.444   5.671  0.00  0.00    -0.167 F 
ATOM     26  F   LIG    1       22.367 -21.997   5.652  0.00  0.00    -0.167 F 
ENDBRANCH  22  23
ENDBRANCH  21  22
ENDBRANCH   7  21
TORSDOF 6
ENDMDL
MODEL 6
REMARK VINA RESULT:      -8.0      6.724      9.024
REMARK  Name = *****
REMARK                            x       y       z     vdW  Elec       q    Type
REMARK                         _______ _______ _______ _____ _____    ______ ____
ROOT
ATOM      1  C   LIG    1       22.711 -23.710   6.671  0.00  0.00    +0.049 C 
ATOM      2  C   LIG    1       24.026 -22.979   6.700  0.00  0.00    +0.013 A 
ATOM      3  C   LIG    1       25.264 -23.630   6.839  0.00  0.00    +0.060 A 
ATOM      4  N   LIG    1       26.440 -22.948   6.866  0.00  0.00    -0.259 NA
ATOM      5  C   LIG    1       26.400 -21.608   6.734  0.00  0.00    +0.114 A 
ATOM      6  C   LIG    1       25.237 -20.885   6.562  0.00  0.00    +0.065 A 
ATOM      7  C   LIG    1       24.031 -21.577   6.542  0.00  0.00    +0.127 A 
ENDROOT
BRANCH   3   8
ATOM      8  C   LIG    1       25.404 -25.130   6.937  0.00  0.00    +0.167 C 
BRANCH   8   9
ATOM      9  S   LIG    1       24.764 -25.986   5.465  0.00  0.00    +0.095 S 
ATOM     10  O   LIG    1       25.831 -26.077   4.411  0.00  0.00    -0.249 OA
BRANCH   9  11
ATOM     11  C   LIG    1       24.703 -27.569   6.180  0.00  0.00    +0.198 A 
ATOM     12  N   LIG    1       24.024 -28.616   5.611  0.00  0.00    -0.331 N 
ATOM     13  H   LIG    1       23.485 -28.551   4.760  0.00  0.00    +0.168 HD
ATOM     14  C   LIG    1       24.309 -29.745   6.333  0.00  0.00    +0.067 A 
ATOM     15  C   LIG    1       25.101 -29.288   7.383  0.00  0.00    +0.090 A 
ATOM     16  C   LIG    1       25.568 -30.206   8.334  0.00  0.00    +0.030 A 
ATOM     17  C   LIG    1       25.251 -31.561   8.174  0.00  0.00    +0.002 A 
ATOM     18  C   LIG    1       24.468 -31.992   7.100  0.00  0.00    +0.002 A 
ATOM     19  C   LIG    1       23.966 -31.087   6.158  0.00  0.00    +0.028 A 
ATOM     20  N   LIG    1       25.327 -27.935   7.278  0.00  0.00    -0.220 NA
ENDBRANCH   9  11
ENDBRANCH   8   9
ENDBRANCH   3   8
BRANCH   7  21
ATOM     21  O   LIG    1       22.801 -20.989   6.373  0.00  0.00    -0.483 OA
BRANCH  21  22
ATOM     22  C   LIG    1       22.360 -20.733   5.033  0.00  0.00    +0.342 C 
BRANCH  22  23
ATOM     23  C   LIG    1       22.354 -19.241   4.708  0.00  0.00    +0.424 C 
ATOM     24  F   LIG    1       23.467 -18.895   4.017  0.00  0.00    -0.167 F 
ATOM     25  F   LIG    1       22.349 -18.505   5.846  0.00  0.00    -0.167 F 
ATOM     26  F   LIG    1       21.288 -18.859   3.975  0.00  0.00    -0.167 F 
ENDBRANCH  22  23
ENDBRANCH  21  22
ENDBRANCH   7  21
TORSDOF 6
ENDMDL
MODEL 7
REMARK VINA RESULT:      -7.8      3.120      4.344
REMARK  Name = *****
REMARK                            x       y       z     vdW  Elec       q    Type
REMARK                         _______ _______ _______ _____ _____    ______ ____
ROOT
ATOM      1  C   LIG    1       30.449 -21.318   8.812  0.00  0.00    +0.049 C 
ATOM      2  C   LIG    1       29.887 -20.468   7.704  0.00  0.00    +0.013 A 
ATOM      3  C   LIG    1       28.652 -20.730   7.087  0.00  0.00    +0.060 A 
ATOM      4  N   LIG    1       28.165 -19.949   6.085  0.00  0.00    -0.259 NA
ATOM      5  C   LIG    1       28.895 -18.886   5.697  0.00  0.00    +0.114 A 
ATOM      6  C   LIG    1       30.103 -18.532   6.264  0.00  0.00    +0.065 A 
ATOM      7  C   LIG    1       30.608 -19.331   7.283  0.00  0.00    +0.127 A 
ENDROOT
BRANCH   3   8
ATOM      8  C   LIG    1       27.746 -21.866   7.496  0.00  0.00    +0.167 C 
BRANCH   8   9
ATOM      9  S   LIG    1       26.036 -21.632   6.922  0.00  0.00    +0.095 S 
ATOM     10  O   LIG    1       26.024 -20.961   5.578  0.00  0.00    -0.249 OA
BRANCH   9  11
ATOM     11  C   LIG    1       25.717 -23.309   6.591  0.00  0.00    +0.198 A 
ATOM     12  N   LIG    1       25.287 -23.756   5.369  0.00  0.00    -0.331 N 
ATOM     13  H   LIG    1       25.090 -23.158   4.579  0.00  0.00    +0.168 HD
ATOM     14  C   LIG    1       25.290 -25.126   5.396  0.00  0.00    +0.067 A 
ATOM     15  C   LIG    1       25.653 -25.440   6.703  0.00  0.00    +0.090 A 
ATOM     16  C   LIG    1       25.745 -26.788   7.080  0.00  0.00    +0.030 A 
ATOM     17  C   LIG    1       25.503 -27.775   6.115  0.00  0.00    +0.002 A 
ATOM     18  C   LIG    1       25.158 -27.428   4.807  0.00  0.00    +0.002 A 
ATOM     19  C   LIG    1       25.030 -26.089   4.419  0.00  0.00    +0.028 A 
ATOM     20  N   LIG    1       25.905 -24.301   7.433  0.00  0.00    -0.220 NA
ENDBRANCH   9  11
ENDBRANCH   8   9
ENDBRANCH   3   8
BRANCH   7  21
ATOM     21  O   LIG    1       31.792 -19.095   7.940  0.00  0.00    -0.483 OA
BRANCH  21  22
ATOM     22  C   LIG    1       32.057 -17.757   8.381  0.00  0.00    +0.342 C 
BRANCH  22  23
ATOM     23  C   LIG    1       31.291 -17.413   9.656  0.00  0.00    +0.424 C 
ATOM     24  F   LIG    1       30.970 -18.537  10.341  0.00  0.00    -0.167 F 
ATOM     25  F   LIG    1       30.128 -16.784   9.359  0.00  0.00    -0.167 F 
ATOM     26  F   LIG    1       31.982 -16.613  10.494  0.00  0.00    -0.167 F 
ENDBRANCH  22  23
ENDBRANCH  21  22
ENDBRANCH   7  21
TORSDOF 6
ENDMDL
MODEL 8
REMARK VINA RESULT:      -7.8      6.510      8.965
REMARK  Name = *****
REMARK                            x       y       z     vdW  Elec       q    Type
REMARK                         _______ _______ _______ _____ _____    ______ ____
ROOT
ATOM      1  C   LIG    1       26.400 -22.161   6.535  0.00  0.00    +0.049 C 
ATOM      2  C   LIG    1       25.025 -22.774   6.568  0.00  0.00    +0.013 A 
ATOM      3  C   LIG    1       24.803 -24.158   6.662  0.00  0.00    +0.060 A 
ATOM      4  N   LIG    1       23.551 -24.690   6.688  0.00  0.00    -0.259 NA
ATOM      5  C   LIG    1       22.503 -23.846   6.640  0.00  0.00    +0.114 A 
ATOM      6  C   LIG    1       22.621 -22.472   6.578  0.00  0.00    +0.065 A 
ATOM      7  C   LIG    1       23.899 -21.924   6.544  0.00  0.00    +0.127 A 
ENDROOT
BRANCH   3   8
ATOM      8  C   LIG    1       25.918 -25.170   6.776  0.00  0.00    +0.167 C 
BRANCH   8   9
ATOM      9  S   LIG    1       25.721 -26.555   5.614  0.00  0.00    +0.095 S 
ATOM     10  O   LIG    1       27.033 -26.871   4.953  0.00  0.00    -0.249 OA
BRANCH   9  11
ATOM     11  C   LIG    1       25.518 -27.788   6.823  0.00  0.00    +0.198 A 
ATOM     12  N   LIG    1       26.361 -27.921   7.896  0.00  0.00    -0.331 N 
ATOM     13  H   LIG    1       27.175 -27.346   8.058  0.00  0.00    +0.168 HD
ATOM     14  C   LIG    1       25.833 -28.871   8.730  0.00  0.00    +0.067 A 
ATOM     15  C   LIG    1       24.709 -29.335   8.052  0.00  0.00    +0.090 A 
ATOM     16  C   LIG    1       23.926 -30.341   8.635  0.00  0.00    +0.030 A 
ATOM     17  C   LIG    1       24.282 -30.821   9.903  0.00  0.00    +0.002 A 
ATOM     18  C   LIG    1       25.406 -30.323  10.567  0.00  0.00    +0.002 A 
ATOM     19  C   LIG    1       26.218 -29.342   9.988  0.00  0.00    +0.028 A 
ATOM     20  N   LIG    1       24.535 -28.659   6.866  0.00  0.00    -0.220 NA
ENDBRANCH   9  11
ENDBRANCH   8   9
ENDBRANCH   3   8
BRANCH   7  21
ATOM     21  O   LIG    1       24.165 -20.578   6.489  0.00  0.00    -0.483 OA
BRANCH  21  22
ATOM     22  C   LIG    1       23.517 -19.809   5.467  0.00  0.00    +0.342 C 
BRANCH  22  23
ATOM     23  C   LIG    1       24.292 -19.841   4.150  0.00  0.00    +0.424 C 
ATOM     24  F   LIG    1       23.960 -18.783   3.372  0.00  0.00    -0.167 F 
ATOM     25  F   LIG    1       23.992 -20.960   3.447  0.00  0.00    -0.167 F 
ATOM     26  F   LIG    1       25.630 -19.815   4.319  0.00  0.00    -0.167 F 
ENDBRANCH  22  23
ENDBRANCH  21  22
ENDBRANCH   7  21
TORSDOF 6
ENDMDL
MODEL 9
REMARK VINA RESULT:      -7.5      5.370      7.447
REMARK  Name = *****
REMARK                            x       y       z     vdW  Elec       q    Type
REMARK                         _______ _______ _______ _____ _____    ______ ____
ROOT
ATOM      1  C   LIG    1       26.605 -22.583   7.932  0.00  0.00    +0.049 C 
ATOM      2  C   LIG    1       25.842 -22.189   6.696  0.00  0.00    +0.013 A 
ATOM      3  C   LIG    1       24.884 -23.017   6.087  0.00  0.00    +0.060 A 
ATOM      4  N   LIG    1       24.208 -22.641   4.969  0.00  0.00    -0.259 NA
ATOM      5  C   LIG    1       24.465 -21.424   4.452  0.00  0.00    +0.114 A 
ATOM      6  C   LIG    1       25.364 -20.529   4.997  0.00  0.00    +0.065 A 
ATOM      7  C   LIG    1       26.063 -20.913   6.136  0.00  0.00    +0.127 A 
ENDROOT
BRANCH   3   8
ATOM      8  C   LIG    1       24.496 -24.372   6.630  0.00  0.00    +0.167 C 
BRANCH   8   9
ATOM      9  S   LIG    1       24.387 -25.637   5.329  0.00  0.00    +0.095 S 
ATOM     10  O   LIG    1       25.521 -25.483   4.355  0.00  0.00    -0.249 OA
BRANCH   9  11
ATOM     11  C   LIG    1       24.839 -26.982   6.335  0.00  0.00    +0.198 A 
ATOM     12  N   LIG    1       25.858 -26.916   7.249  0.00  0.00    -0.331 N 
ATOM     13  H   LIG    1       26.446 -26.107   7.391  0.00  0.00    +0.168 HD
ATOM     14  C   LIG    1       25.845 -28.075   7.979  0.00  0.00    +0.067 A 
ATOM     15  C   LIG    1       24.840 -28.837   7.391  0.00  0.00    +0.090 A 
ATOM     16  C   LIG    1       24.564 -30.114   7.901  0.00  0.00    +0.030 A 
ATOM     17  C   LIG    1       25.288 -30.565   9.013  0.00  0.00    +0.002 A 
ATOM     18  C   LIG    1       26.279 -29.770   9.593  0.00  0.00    +0.002 A 
ATOM     19  C   LIG    1       26.592 -28.506   9.078  0.00  0.00    +0.028 A 
ATOM     20  N   LIG    1       24.232 -28.148   6.366  0.00  0.00    -0.220 NA
ENDBRANCH   9  11
ENDBRANCH   8   9
ENDBRANCH   3   8
BRANCH   7  21
ATOM     21  O   LIG    1       26.981 -20.124   6.786  0.00  0.00    -0.483 OA
BRANCH  21  22
ATOM     22  C   LIG    1       28.238 -19.888   6.138  0.00  0.00    +0.342 C 
BRANCH  22  23
ATOM     23  C   LIG    1       29.410 -19.981   7.114  0.00  0.00    +0.424 C 
ATOM     24  F   LIG    1       29.581 -21.256   7.539  0.00  0.00    -0.167 F 
ATOM     25  F   LIG    1       29.175 -19.224   8.214  0.00  0.00    -0.167 F 
ATOM     26  F   LIG    1       30.580 -19.571   6.582  0.00  0.00    -0.167 F 
ENDBRANCH  22  23
ENDBRANCH  21  22
ENDBRANCH   7  21
TORSDOF 6
ENDMDL
