MODEL 1
REMARK VINA RESULT:      -6.0      0.000      0.000
REMARK  Name = *****
REMARK                            x       y       z     vdW  Elec       q    Type
REMARK                         _______ _______ _______ _____ _____    ______ ____
ROOT
ATOM      1  C   UNK    1       31.239 -17.352   9.063  0.00  0.00    +0.170 C 
ENDROOT
BRANCH   1   2
ATOM      2  N   UNK    1       32.295 -16.294   8.967  0.00  0.00    -0.318 NA
ATOM      3  H   UNK    1       31.839 -15.383   8.838  0.00  0.00    +0.119 HD
ATOM      4  H   UNK    1       32.728 -16.208   9.893  0.00  0.00    +0.119 HD
ENDBRANCH   1   2
BRANCH   1   5
ATOM      5  C   UNK    1       30.661 -17.329  10.486  0.00  0.00    +0.323 C 
ATOM      6  O   UNK    1       30.284 -16.315  11.075  0.00  0.00    -0.249 OA
BRANCH   5   7
ATOM      7  O   UNK    1       30.614 -18.565  11.040  0.00  0.00    -0.479 OA
ATOM      8  H   UNK    1       30.171 -19.151  10.376  0.00  0.00    +0.295 HD
ENDBRANCH   5   7
ENDBRANCH   1   5
BRANCH   1   9
ATOM      9  C   UNK    1       31.784 -18.761   8.758  0.00  0.00    +0.099 C 
BRANCH   9  10
ATOM     10  S   UNK    1       30.964 -19.668   7.367  0.00  0.00    -0.147 S 
BRANCH  10  11
ATOM     11  C   UNK    1       30.133 -21.035   8.264  0.00  0.00    +0.189 C 
BRANCH  11  12
ATOM     12  C   UNK    1       31.075 -21.838   9.152  0.00  0.00    +0.315 C 
ATOM     13  O   UNK    1       30.838 -22.052  10.334  0.00  0.00    -0.250 OA
BRANCH  12  14
ATOM     14  O   UNK    1       32.200 -22.303   8.564  0.00  0.00    -0.480 OA
ATOM     15  H   UNK    1       32.306 -23.269   8.695  0.00  0.00    +0.295 HD
ENDBRANCH  12  14
ENDBRANCH  11  12
ENDBRANCH  10  11
ENDBRANCH   9  10
ENDBRANCH   1   9
TORSDOF 8
ENDMDL
MODEL 2
REMARK VINA RESULT:      -5.6      1.651      1.789
REMARK  Name = *****
REMARK                            x       y       z     vdW  Elec       q    Type
REMARK                         _______ _______ _______ _____ _____    ______ ____
ROOT
ATOM      1  C   UNK    1       31.529 -18.058   9.781  0.00  0.00    +0.170 C 
ENDROOT
BRANCH   1   2
ATOM      2  N   UNK    1       30.683 -18.305  10.992  0.00  0.00    -0.318 NA
ATOM      3  H   UNK    1       31.121 -17.846  11.800  0.00  0.00    +0.119 HD
ATOM      4  H   UNK    1       29.811 -17.779  10.869  0.00  0.00    +0.119 HD
ENDBRANCH   1   2
BRANCH   1   5
ATOM      5  C   UNK    1       32.142 -16.655   9.899  0.00  0.00    +0.323 C 
ATOM      6  O   UNK    1       32.185 -15.993  10.937  0.00  0.00    -0.249 OA
BRANCH   5   7
ATOM      7  O   UNK    1       32.636 -16.210   8.718  0.00  0.00    -0.479 OA
ATOM      8  H   UNK    1       32.468 -15.235   8.696  0.00  0.00    +0.295 HD
ENDBRANCH   5   7
ENDBRANCH   1   5
BRANCH   1   9
ATOM      9  C   UNK    1       30.726 -18.153   8.469  0.00  0.00    +0.099 C 
BRANCH   9  10
ATOM     10  S   UNK    1       31.103 -19.607   7.386  0.00  0.00    -0.147 S 
BRANCH  10  11
ATOM     11  C   UNK    1       30.198 -20.948   8.248  0.00  0.00    +0.189 C 
BRANCH  11  12
ATOM     12  C   UNK    1       31.089 -21.806   9.138  0.00  0.00    +0.315 C 
ATOM     13  O   UNK    1       30.811 -22.045  10.306  0.00  0.00    -0.250 OA
BRANCH  12  14
ATOM     14  O   UNK    1       32.216 -22.288   8.569  0.00  0.00    -0.480 OA
ATOM     15  H   UNK    1       32.928 -22.424   9.230  0.00  0.00    +0.295 HD
ENDBRANCH  12  14
ENDBRANCH  11  12
ENDBRANCH  10  11
ENDBRANCH   9  10
ENDBRANCH   1   9
TORSDOF 8
ENDMDL
MODEL 3
REMARK VINA RESULT:      -5.5      3.464      4.893
REMARK  Name = *****
REMARK                            x       y       z     vdW  Elec       q    Type
REMARK                         _______ _______ _______ _____ _____    ______ ____
ROOT
ATOM      1  C   UNK    1       30.479 -20.770   8.406  0.00  0.00    +0.170 C 
ENDROOT
BRANCH   1   2
ATOM      2  N   UNK    1       31.475 -20.233   7.422  0.00  0.00    -0.318 NA
ATOM      3  H   UNK    1       31.148 -19.318   7.088  0.00  0.00    +0.119 HD
ATOM      4  H   UNK    1       32.327 -20.001   7.944  0.00  0.00    +0.119 HD
ENDBRANCH   1   2
BRANCH   1   5
ATOM      5  C   UNK    1       31.170 -21.854   9.246  0.00  0.00    +0.323 C 
ATOM      6  O   UNK    1       30.824 -22.190  10.380  0.00  0.00    -0.249 OA
BRANCH   5   7
ATOM      7  O   UNK    1       32.223 -22.411   8.600  0.00  0.00    -0.479 OA
ATOM      8  H   UNK    1       31.923 -22.579   7.672  0.00  0.00    +0.295 HD
ENDBRANCH   5   7
ENDBRANCH   1   5
BRANCH   1   9
ATOM      9  C   UNK    1       29.237 -21.371   7.721  0.00  0.00    +0.099 C 
BRANCH   9  10
ATOM     10  S   UNK    1       27.845 -20.197   7.382  0.00  0.00    -0.147 S 
BRANCH  10  11
ATOM     11  C   UNK    1       28.136 -19.787   5.618  0.00  0.00    +0.189 C 
BRANCH  11  12
ATOM     12  C   UNK    1       28.954 -18.517   5.419  0.00  0.00    +0.315 C 
ATOM     13  O   UNK    1       29.920 -18.243   6.119  0.00  0.00    -0.250 OA
BRANCH  12  14
ATOM     14  O   UNK    1       28.551 -17.697   4.422  0.00  0.00    -0.480 OA
ATOM     15  H   UNK    1       29.120 -16.901   4.354  0.00  0.00    +0.295 HD
ENDBRANCH  12  14
ENDBRANCH  11  12
ENDBRANCH  10  11
ENDBRANCH   9  10
ENDBRANCH   1   9
TORSDOF 8
ENDMDL
MODEL 4
REMARK VINA RESULT:      -5.4      2.022      4.435
REMARK  Name = *****
REMARK                            x       y       z     vdW  Elec       q    Type
REMARK                         _______ _______ _______ _____ _____    ______ ____
ROOT
ATOM      1  C   UNK    1       30.360 -21.104   7.955  0.00  0.00    +0.170 C 
ENDROOT
BRANCH   1   2
ATOM      2  N   UNK    1       28.905 -21.100   8.314  0.00  0.00    -0.318 NA
ATOM      3  H   UNK    1       28.353 -21.243   7.460  0.00  0.00    +0.119 HD
ATOM      4  H   UNK    1       28.721 -21.952   8.856  0.00  0.00    +0.119 HD
ENDBRANCH   1   2
BRANCH   1   5
ATOM      5  C   UNK    1       31.163 -21.504   9.201  0.00  0.00    +0.323 C 
ATOM      6  O   UNK    1       30.821 -22.368  10.010  0.00  0.00    -0.249 OA
BRANCH   5   7
ATOM      7  O   UNK    1       32.308 -20.789   9.325  0.00  0.00    -0.479 OA
ATOM      8  H   UNK    1       32.705 -20.742   8.420  0.00  0.00    +0.295 HD
ENDBRANCH   5   7
ENDBRANCH   1   5
BRANCH   1   9
ATOM      9  C   UNK    1       30.848 -19.731   7.454  0.00  0.00    +0.099 C 
BRANCH   9  10
ATOM     10  S   UNK    1       29.835 -18.268   7.967  0.00  0.00    -0.147 S 
BRANCH  10  11
ATOM     11  C   UNK    1       31.013 -17.371   9.049  0.00  0.00    +0.189 C 
BRANCH  11  12
ATOM     12  C   UNK    1       30.660 -17.455  10.529  0.00  0.00    +0.315 C 
ATOM     13  O   UNK    1       30.422 -16.461  11.203  0.00  0.00    -0.250 OA
BRANCH  12  14
ATOM     14  O   UNK    1       30.628 -18.695  11.067  0.00  0.00    -0.480 OA
ATOM     15  H   UNK    1       31.129 -19.340  10.524  0.00  0.00    +0.295 HD
ENDBRANCH  12  14
ENDBRANCH  11  12
ENDBRANCH  10  11
ENDBRANCH   9  10
ENDBRANCH   1   9
TORSDOF 8
ENDMDL
MODEL 5
REMARK VINA RESULT:      -5.4      2.478      2.832
REMARK  Name = *****
REMARK                            x       y       z     vdW  Elec       q    Type
REMARK                         _______ _______ _______ _____ _____    ______ ____
ROOT
ATOM      1  C   UNK    1       31.724 -18.565   8.383  0.00  0.00    +0.170 C 
ENDROOT
BRANCH   1   2
ATOM      2  N   UNK    1       31.911 -19.897   9.043  0.00  0.00    -0.318 NA
ATOM      3  H   UNK    1       32.582 -20.447   8.493  0.00  0.00    +0.119 HD
ATOM      4  H   UNK    1       32.409 -19.735   9.925  0.00  0.00    +0.119 HD
ENDBRANCH   1   2
BRANCH   1   5
ATOM      5  C   UNK    1       32.251 -17.479   9.333  0.00  0.00    +0.323 C 
ATOM      6  O   UNK    1       32.406 -17.622  10.546  0.00  0.00    -0.249 OA
BRANCH   5   7
ATOM      7  O   UNK    1       32.528 -16.321   8.685  0.00  0.00    -0.479 OA
ATOM      8  H   UNK    1       32.270 -16.463   7.740  0.00  0.00    +0.295 HD
ENDBRANCH   5   7
ENDBRANCH   1   5
BRANCH   1   9
ATOM      9  C   UNK    1       30.249 -18.273   8.045  0.00  0.00    +0.099 C 
BRANCH   9  10
ATOM     10  S   UNK    1       29.718 -18.659   6.313  0.00  0.00    -0.147 S 
BRANCH  10  11
ATOM     11  C   UNK    1       29.146 -20.393   6.485  0.00  0.00    +0.189 C 
BRANCH  11  12
ATOM     12  C   UNK    1       28.570 -20.707   7.861  0.00  0.00    +0.315 C 
ATOM     13  O   UNK    1       27.495 -20.260   8.238  0.00  0.00    -0.250 OA
BRANCH  12  14
ATOM     14  O   UNK    1       29.318 -21.507   8.654  0.00  0.00    -0.480 OA
ATOM     15  H   UNK    1       28.771 -22.185   9.105  0.00  0.00    +0.295 HD
ENDBRANCH  12  14
ENDBRANCH  11  12
ENDBRANCH  10  11
ENDBRANCH   9  10
ENDBRANCH   1   9
TORSDOF 8
ENDMDL
MODEL 6
REMARK VINA RESULT:      -5.4      3.591      4.990
REMARK  Name = *****
REMARK                            x       y       z     vdW  Elec       q    Type
REMARK                         _______ _______ _______ _____ _____    ______ ____
ROOT
ATOM      1  C   UNK    1       30.469 -20.715   8.382  0.00  0.00    +0.170 C 
ENDROOT
BRANCH   1   2
ATOM      2  N   UNK    1       31.447 -20.152   7.395  0.00  0.00    -0.318 NA
ATOM      3  H   UNK    1       32.399 -20.361   7.717  0.00  0.00    +0.119 HD
ATOM      4  H   UNK    1       31.365 -20.704   6.534  0.00  0.00    +0.119 HD
ENDBRANCH   1   2
BRANCH   1   5
ATOM      5  C   UNK    1       31.183 -21.801   9.201  0.00  0.00    +0.323 C 
ATOM      6  O   UNK    1       30.849 -22.162  10.330  0.00  0.00    -0.249 OA
BRANCH   5   7
ATOM      7  O   UNK    1       32.244 -22.327   8.541  0.00  0.00    -0.479 OA
ATOM      8  H   UNK    1       32.516 -21.652   7.869  0.00  0.00    +0.295 HD
ENDBRANCH   5   7
ENDBRANCH   1   5
BRANCH   1   9
ATOM      9  C   UNK    1       29.228 -21.324   7.703  0.00  0.00    +0.099 C 
BRANCH   9  10
ATOM     10  S   UNK    1       28.019 -20.120   6.984  0.00  0.00    -0.147 S 
BRANCH  10  11
ATOM     11  C   UNK    1       26.480 -21.117   6.963  0.00  0.00    +0.189 C 
BRANCH  11  12
ATOM     12  C   UNK    1       25.511 -20.760   8.083  0.00  0.00    +0.315 C 
ATOM     13  O   UNK    1       24.301 -20.698   7.907  0.00  0.00    -0.250 OA
BRANCH  12  14
ATOM     14  O   UNK    1       26.061 -20.507   9.292  0.00  0.00    -0.480 OA
ATOM     15  H   UNK    1       26.288 -19.559   9.396  0.00  0.00    +0.295 HD
ENDBRANCH  12  14
ENDBRANCH  11  12
ENDBRANCH  10  11
ENDBRANCH   9  10
ENDBRANCH   1   9
TORSDOF 8
ENDMDL
MODEL 7
REMARK VINA RESULT:      -5.3      3.468      3.974
REMARK  Name = *****
REMARK                            x       y       z     vdW  Elec       q    Type
REMARK                         _______ _______ _______ _____ _____    ______ ____
ROOT
ATOM      1  C   UNK    1       31.320 -19.130   7.533  0.00  0.00    +0.170 C 
ENDROOT
BRANCH   1   2
ATOM      2  N   UNK    1       31.577 -20.578   7.821  0.00  0.00    -0.318 NA
ATOM      3  H   UNK    1       30.859 -21.141   7.349  0.00  0.00    +0.119 HD
ATOM      4  H   UNK    1       32.438 -20.840   7.329  0.00  0.00    +0.119 HD
ENDBRANCH   1   2
BRANCH   1   5
ATOM      5  C   UNK    1       31.860 -18.302   8.709  0.00  0.00    +0.323 C 
ATOM      6  O   UNK    1       31.876 -18.677   9.883  0.00  0.00    -0.249 OA
BRANCH   5   7
ATOM      7  O   UNK    1       32.321 -17.091   8.314  0.00  0.00    -0.479 OA
ATOM      8  H   UNK    1       33.156 -17.261   7.812  0.00  0.00    +0.295 HD
ENDBRANCH   5   7
ENDBRANCH   1   5
BRANCH   1   9
ATOM      9  C   UNK    1       29.823 -18.822   7.340  0.00  0.00    +0.099 C 
BRANCH   9  10
ATOM     10  S   UNK    1       28.816 -20.149   6.530  0.00  0.00    -0.147 S 
BRANCH  10  11
ATOM     11  C   UNK    1       27.994 -20.917   7.978  0.00  0.00    +0.189 C 
BRANCH  11  12
ATOM     12  C   UNK    1       26.512 -20.578   8.084  0.00  0.00    +0.315 C 
ATOM     13  O   UNK    1       25.814 -20.381   7.098  0.00  0.00    -0.250 OA
BRANCH  12  14
ATOM     14  O   UNK    1       26.004 -20.499   9.334  0.00  0.00    -0.480 OA
ATOM     15  H   UNK    1       25.870 -21.386   9.729  0.00  0.00    +0.295 HD
ENDBRANCH  12  14
ENDBRANCH  11  12
ENDBRANCH  10  11
ENDBRANCH   9  10
ENDBRANCH   1   9
TORSDOF 8
ENDMDL
MODEL 8
REMARK VINA RESULT:      -5.1      8.520      9.730
REMARK  Name = *****
REMARK                            x       y       z     vdW  Elec       q    Type
REMARK                         _______ _______ _______ _____ _____    ______ ____
ROOT
ATOM      1  C   UNK    1       25.125 -24.212   5.824  0.00  0.00    +0.170 C 
ENDROOT
BRANCH   1   2
ATOM      2  N   UNK    1       24.739 -23.486   4.571  0.00  0.00    -0.318 NA
ATOM      3  H   UNK    1       24.086 -22.731   4.815  0.00  0.00    +0.119 HD
ATOM      4  H   UNK    1       25.568 -22.980   4.241  0.00  0.00    +0.119 HD
ENDBRANCH   1   2
BRANCH   1   5
ATOM      5  C   UNK    1       23.936 -25.076   6.266  0.00  0.00    +0.323 C 
ATOM      6  O   UNK    1       23.939 -26.307   6.308  0.00  0.00    -0.249 OA
BRANCH   5   7
ATOM      7  O   UNK    1       22.858 -24.329   6.608  0.00  0.00    -0.479 OA
ATOM      8  H   UNK    1       22.065 -24.810   6.263  0.00  0.00    +0.295 HD
ENDBRANCH   5   7
ENDBRANCH   1   5
BRANCH   1   9
ATOM      9  C   UNK    1       25.511 -23.253   6.967  0.00  0.00    +0.099 C 
BRANCH   9  10
ATOM     10  S   UNK    1       25.530 -21.450   6.547  0.00  0.00    -0.147 S 
BRANCH  10  11
ATOM     11  C   UNK    1       23.860 -20.930   7.099  0.00  0.00    +0.189 C 
BRANCH  11  12
ATOM     12  C   UNK    1       22.890 -20.686   5.948  0.00  0.00    +0.315 C 
ATOM     13  O   UNK    1       22.580 -19.561   5.581  0.00  0.00    -0.250 OA
BRANCH  12  14
ATOM     14  O   UNK    1       22.381 -21.788   5.352  0.00  0.00    -0.480 OA
ATOM     15  H   UNK    1       21.410 -21.721   5.235  0.00  0.00    +0.295 HD
ENDBRANCH  12  14
ENDBRANCH  11  12
ENDBRANCH  10  11
ENDBRANCH   9  10
ENDBRANCH   1   9
TORSDOF 8
ENDMDL
MODEL 9
REMARK VINA RESULT:      -5.1      4.329      5.265
REMARK  Name = *****
REMARK                            x       y       z     vdW  Elec       q    Type
REMARK                         _______ _______ _______ _____ _____    ______ ____
ROOT
ATOM      1  C   UNK    1       26.856 -21.091   7.306  0.00  0.00    +0.170 C 
ENDROOT
BRANCH   1   2
ATOM      2  N   UNK    1       26.396 -21.120   5.880  0.00  0.00    -0.318 NA
ATOM      3  H   UNK    1       26.997 -21.766   5.353  0.00  0.00    +0.119 HD
ATOM      4  H   UNK    1       25.482 -21.584   5.862  0.00  0.00    +0.119 HD
ENDBRANCH   1   2
BRANCH   1   5
ATOM      5  C   UNK    1       25.644 -20.777   8.196  0.00  0.00    +0.323 C 
ATOM      6  O   UNK    1       24.471 -20.806   7.821  0.00  0.00    -0.249 OA
BRANCH   5   7
ATOM      7  O   UNK    1       26.007 -20.454   9.461  0.00  0.00    -0.479 OA
ATOM      8  H   UNK    1       25.265 -20.744  10.047  0.00  0.00    +0.295 HD
ENDBRANCH   5   7
ENDBRANCH   1   5
BRANCH   1   9
ATOM      9  C   UNK    1       27.954 -20.039   7.552  0.00  0.00    +0.099 C 
BRANCH   9  10
ATOM     10  S   UNK    1       29.680 -20.687   7.725  0.00  0.00    -0.147 S 
BRANCH  10  11
ATOM     11  C   UNK    1       30.670 -19.224   7.233  0.00  0.00    +0.189 C 
BRANCH  11  12
ATOM     12  C   UNK    1       31.708 -18.817   8.272  0.00  0.00    +0.315 C 
ATOM     13  O   UNK    1       32.040 -19.557   9.189  0.00  0.00    -0.250 OA
BRANCH  12  14
ATOM     14  O   UNK    1       32.244 -17.584   8.131  0.00  0.00    -0.480 OA
ATOM     15  H   UNK    1       32.571 -17.432   7.220  0.00  0.00    +0.295 HD
ENDBRANCH  12  14
ENDBRANCH  11  12
ENDBRANCH  10  11
ENDBRANCH   9  10
ENDBRANCH   1   9
TORSDOF 8
ENDMDL
