MODEL 1
REMARK VINA RESULT:      -8.1      0.000      0.000
REMARK  Name = *****
REMARK                            x       y       z     vdW  Elec       q    Type
REMARK                         _______ _______ _______ _____ _____    ______ ____
ROOT
ATOM      1  C   LIG    1       25.764 -23.598   6.389  0.00  0.00    +0.137 A 
ATOM      2  C   LIG    1       26.440 -22.738   7.244  0.00  0.00    +0.052 A 
ATOM      3  C   LIG    1       26.243 -21.352   7.156  0.00  0.00    -0.011 A 
ATOM      4  C   LIG    1       25.379 -20.864   6.168  0.00  0.00    +0.052 A 
ATOM      5  C   LIG    1       24.788 -21.736   5.250  0.00  0.00    +0.137 A 
ATOM      6  C   LIG    1       24.956 -23.109   5.370  0.00  0.00    +0.092 A 
ENDROOT
BRANCH   1   7
ATOM      7  O   LIG    1       25.768 -25.000   6.514  0.00  0.00    -0.411 OA
BRANCH   7  10
ATOM      8  C   LIG    1       26.520 -27.153   5.179  0.00  0.00    +0.135 C 
ATOM      9  N   LIG    1       25.120 -26.957   5.499  0.00  0.00    -0.273 N 
ATOM     10  C   LIG    1       24.685 -25.831   6.197  0.00  0.00    +0.408 C 
ATOM     11  O   LIG    1       23.513 -25.618   6.487  0.00  0.00    -0.226 OA
ATOM     12  C   LIG    1       24.219 -28.075   5.354  0.00  0.00    +0.135 C 
ENDBRANCH   7  10
ENDBRANCH   1   7
BRANCH   3  13
ATOM     13  C   LIG    1       26.876 -20.383   8.140  0.00  0.00    +0.158 C 
BRANCH  13  14
ATOM     14  O   LIG    1       26.189 -20.464   9.396  0.00  0.00    -0.386 OA
ATOM     15  H   LIG    1       25.525 -19.755   9.419  0.00  0.00    +0.210 HD
ENDBRANCH  13  14
BRANCH  13  16
ATOM     16  C   LIG    1       28.379 -20.662   8.368  0.00  0.00    +0.117 C 
BRANCH  16  17
ATOM     17  N   LIG    1       29.163 -19.438   8.597  0.00  0.00    -0.308 NA
ATOM     18  H   LIG    1       28.969 -19.139   9.558  0.00  0.00    +0.122 HD
BRANCH  17  19
ATOM     19  C   LIG    1       30.614 -19.592   8.385  0.00  0.00    +0.011 C 
ATOM     20  C   LIG    1       31.060 -21.022   8.737  0.00  0.00    +0.027 C 
ATOM     21  C   LIG    1       31.444 -18.567   9.179  0.00  0.00    +0.027 C 
ATOM     22  C   LIG    1       30.882 -19.365   6.885  0.00  0.00    +0.027 C 
ENDBRANCH  17  19
ENDBRANCH  16  17
ENDBRANCH  13  16
ENDBRANCH   3  13
BRANCH   5  23
ATOM     23  O   LIG    1       23.932 -21.299   4.225  0.00  0.00    -0.411 OA
BRANCH  23  24
ATOM     24  C   LIG    1       22.821 -20.502   4.500  0.00  0.00    +0.408 C 
ATOM     25  N   LIG    1       22.960 -19.217   4.017  0.00  0.00    -0.273 N 
ATOM     26  C   LIG    1       21.828 -18.312   4.063  0.00  0.00    +0.135 C 
ATOM     27  C   LIG    1       24.254 -18.641   3.703  0.00  0.00    +0.135 C 
ATOM     28  O   LIG    1       21.812 -20.890   5.086  0.00  0.00    -0.226 OA
ENDBRANCH  23  24
ENDBRANCH   5  23
TORSDOF 9
ENDMDL
MODEL 2
REMARK VINA RESULT:      -7.9      0.660      5.176
REMARK  Name = *****
REMARK                            x       y       z     vdW  Elec       q    Type
REMARK                         _______ _______ _______ _____ _____    ______ ____
ROOT
ATOM      1  C   LIG    1       24.849 -21.693   5.242  0.00  0.00    +0.137 A 
ATOM      2  C   LIG    1       25.383 -20.813   6.173  0.00  0.00    +0.052 A 
ATOM      3  C   LIG    1       26.156 -21.294   7.241  0.00  0.00    -0.011 A 
ATOM      4  C   LIG    1       26.341 -22.677   7.357  0.00  0.00    +0.052 A 
ATOM      5  C   LIG    1       25.710 -23.554   6.472  0.00  0.00    +0.137 A 
ATOM      6  C   LIG    1       24.980 -23.068   5.395  0.00  0.00    +0.092 A 
ENDROOT
BRANCH   1   7
ATOM      7  O   LIG    1       24.210 -21.293   4.054  0.00  0.00    -0.411 OA
BRANCH   7  10
ATOM      8  C   LIG    1       21.759 -20.781   4.900  0.00  0.00    +0.135 C 
ATOM      9  N   LIG    1       22.520 -19.746   4.229  0.00  0.00    -0.273 N 
ATOM     10  C   LIG    1       23.814 -19.981   3.765  0.00  0.00    +0.408 C 
ATOM     11  O   LIG    1       24.496 -19.140   3.188  0.00  0.00    -0.226 OA
ATOM     12  C   LIG    1       22.048 -18.385   4.310  0.00  0.00    +0.135 C 
ENDBRANCH   7  10
ENDBRANCH   1   7
BRANCH   3  13
ATOM     13  C   LIG    1       26.850 -20.362   8.219  0.00  0.00    +0.158 C 
BRANCH  13  14
ATOM     14  O   LIG    1       26.231 -20.475   9.507  0.00  0.00    -0.386 OA
ATOM     15  H   LIG    1       25.632 -21.239   9.484  0.00  0.00    +0.210 HD
ENDBRANCH  13  14
BRANCH  13  16
ATOM     16  C   LIG    1       28.361 -20.662   8.358  0.00  0.00    +0.117 C 
BRANCH  16  17
ATOM     17  N   LIG    1       29.168 -19.453   8.585  0.00  0.00    -0.308 NA
ATOM     18  H   LIG    1       28.967 -19.139   9.538  0.00  0.00    +0.122 HD
BRANCH  17  19
ATOM     19  C   LIG    1       30.618 -19.643   8.397  0.00  0.00    +0.011 C 
ATOM     20  C   LIG    1       31.022 -21.087   8.745  0.00  0.00    +0.027 C 
ATOM     21  C   LIG    1       31.460 -18.647   9.216  0.00  0.00    +0.027 C 
ATOM     22  C   LIG    1       30.920 -19.410   6.904  0.00  0.00    +0.027 C 
ENDBRANCH  17  19
ENDBRANCH  16  17
ENDBRANCH  13  16
ENDBRANCH   3  13
BRANCH   5  23
ATOM     23  O   LIG    1       25.841 -24.950   6.557  0.00  0.00    -0.411 OA
BRANCH  23  24
ATOM     24  C   LIG    1       24.770 -25.797   6.269  0.00  0.00    +0.408 C 
ATOM     25  N   LIG    1       25.173 -26.980   5.685  0.00  0.00    -0.273 N 
ATOM     26  C   LIG    1       24.207 -28.041   5.484  0.00  0.00    +0.135 C 
ATOM     27  C   LIG    1       26.458 -27.122   5.024  0.00  0.00    +0.135 C 
ATOM     28  O   LIG    1       23.594 -25.543   6.522  0.00  0.00    -0.226 OA
ENDBRANCH  23  24
ENDBRANCH   5  23
TORSDOF 9
ENDMDL
MODEL 3
REMARK VINA RESULT:      -7.6      1.440      7.347
REMARK  Name = *****
REMARK                            x       y       z     vdW  Elec       q    Type
REMARK                         _______ _______ _______ _____ _____    ______ ____
ROOT
ATOM      1  C   LIG    1       24.844 -21.012   4.717  0.00  0.00    +0.137 A 
ATOM      2  C   LIG    1       24.410 -22.300   5.004  0.00  0.00    +0.052 A 
ATOM      3  C   LIG    1       24.778 -22.920   6.207  0.00  0.00    -0.011 A 
ATOM      4  C   LIG    1       25.615 -22.223   7.087  0.00  0.00    +0.052 A 
ATOM      5  C   LIG    1       26.126 -20.971   6.736  0.00  0.00    +0.137 A 
ATOM      6  C   LIG    1       25.725 -20.347   5.561  0.00  0.00    +0.092 A 
ENDROOT
BRANCH   1   7
ATOM      7  O   LIG    1       24.392 -20.252   3.623  0.00  0.00    -0.411 OA
BRANCH   7  10
ATOM      8  C   LIG    1       21.930 -19.843   4.495  0.00  0.00    +0.135 C 
ATOM      9  N   LIG    1       22.768 -18.712   4.147  0.00  0.00    -0.273 N 
ATOM     10  C   LIG    1       24.070 -18.890   3.679  0.00  0.00    +0.408 C 
ATOM     11  O   LIG    1       24.816 -17.966   3.368  0.00  0.00    -0.226 OA
ATOM     12  C   LIG    1       22.356 -17.395   4.569  0.00  0.00    +0.135 C 
ENDBRANCH   7  10
ENDBRANCH   1   7
BRANCH   3  13
ATOM     13  C   LIG    1       24.238 -24.281   6.611  0.00  0.00    +0.158 C 
BRANCH  13  14
ATOM     14  O   LIG    1       22.809 -24.213   6.722  0.00  0.00    -0.386 OA
ATOM     15  H   LIG    1       22.517 -23.389   6.299  0.00  0.00    +0.210 HD
ENDBRANCH  13  14
BRANCH  13  16
ATOM     16  C   LIG    1       24.612 -25.394   5.604  0.00  0.00    +0.117 C 
BRANCH  16  17
ATOM     17  N   LIG    1       23.979 -26.685   5.915  0.00  0.00    -0.308 NA
ATOM     18  H   LIG    1       23.284 -26.857   5.183  0.00  0.00    +0.122 HD
BRANCH  17  19
ATOM     19  C   LIG    1       24.918 -27.818   6.012  0.00  0.00    +0.011 C 
ATOM     20  C   LIG    1       24.218 -29.133   5.626  0.00  0.00    +0.027 C 
ATOM     21  C   LIG    1       25.553 -27.947   7.409  0.00  0.00    +0.027 C 
ATOM     22  C   LIG    1       26.048 -27.563   4.996  0.00  0.00    +0.027 C 
ENDBRANCH  17  19
ENDBRANCH  16  17
ENDBRANCH  13  16
ENDBRANCH   3  13
BRANCH   5  23
ATOM     23  O   LIG    1       26.988 -20.238   7.568  0.00  0.00    -0.411 OA
BRANCH  23  24
ATOM     24  C   LIG    1       28.211 -20.764   7.987  0.00  0.00    +0.408 C 
ATOM     25  N   LIG    1       29.288 -20.051   7.501  0.00  0.00    -0.273 N 
ATOM     26  C   LIG    1       30.620 -20.357   7.981  0.00  0.00    +0.135 C 
ATOM     27  C   LIG    1       29.186 -19.185   6.340  0.00  0.00    +0.135 C 
ATOM     28  O   LIG    1       28.334 -21.739   8.725  0.00  0.00    -0.226 OA
ENDBRANCH  23  24
ENDBRANCH   5  23
TORSDOF 9
ENDMDL
MODEL 4
REMARK VINA RESULT:      -7.6      2.286      7.069
REMARK  Name = *****
REMARK                            x       y       z     vdW  Elec       q    Type
REMARK                         _______ _______ _______ _____ _____    ______ ____
ROOT
ATOM      1  C   LIG    1       26.584 -20.053   5.028  0.00  0.00    +0.137 A 
ATOM      2  C   LIG    1       26.161 -20.933   6.015  0.00  0.00    +0.052 A 
ATOM      3  C   LIG    1       26.846 -21.011   7.237  0.00  0.00    -0.011 A 
ATOM      4  C   LIG    1       27.978 -20.207   7.417  0.00  0.00    +0.052 A 
ATOM      5  C   LIG    1       28.451 -19.405   6.376  0.00  0.00    +0.137 A 
ATOM      6  C   LIG    1       27.744 -19.303   5.184  0.00  0.00    +0.092 A 
ENDROOT
BRANCH   1   7
ATOM      7  O   LIG    1       25.866 -19.785   3.848  0.00  0.00    -0.411 OA
BRANCH   7  10
ATOM      8  C   LIG    1       23.433 -20.755   4.198  0.00  0.00    +0.135 C 
ATOM      9  N   LIG    1       23.612 -19.345   3.917  0.00  0.00    -0.273 N 
ATOM     10  C   LIG    1       24.881 -18.798   3.722  0.00  0.00    +0.408 C 
ATOM     11  O   LIG    1       25.083 -17.613   3.479  0.00  0.00    -0.226 OA
ATOM     12  C   LIG    1       22.498 -18.454   4.137  0.00  0.00    +0.135 C 
ENDBRANCH   7  10
ENDBRANCH   1   7
BRANCH   3  13
ATOM     13  C   LIG    1       26.355 -21.877   8.384  0.00  0.00    +0.158 C 
BRANCH  13  14
ATOM     14  O   LIG    1       25.893 -21.038   9.451  0.00  0.00    -0.386 OA
ATOM     15  H   LIG    1       25.782 -21.594  10.240  0.00  0.00    +0.210 HD
ENDBRANCH  13  14
BRANCH  13  16
ATOM     16  C   LIG    1       25.213 -22.832   7.963  0.00  0.00    +0.117 C 
BRANCH  16  17
ATOM     17  N   LIG    1       25.697 -24.035   7.267  0.00  0.00    -0.308 NA
ATOM     18  H   LIG    1       26.019 -24.684   7.991  0.00  0.00    +0.122 HD
BRANCH  17  19
ATOM     19  C   LIG    1       24.698 -24.681   6.397  0.00  0.00    +0.011 C 
ATOM     20  C   LIG    1       23.286 -24.158   6.717  0.00  0.00    +0.027 C 
ATOM     21  C   LIG    1       24.728 -26.218   6.495  0.00  0.00    +0.027 C 
ATOM     22  C   LIG    1       25.034 -24.289   4.946  0.00  0.00    +0.027 C 
ENDBRANCH  17  19
ENDBRANCH  16  17
ENDBRANCH  13  16
ENDBRANCH   3  13
BRANCH   5  23
ATOM     23  O   LIG    1       29.595 -18.597   6.493  0.00  0.00    -0.411 OA
BRANCH  23  24
ATOM     24  C   LIG    1       30.713 -19.026   7.207  0.00  0.00    +0.408 C 
ATOM     25  N   LIG    1       30.748 -18.520   8.490  0.00  0.00    -0.273 N 
ATOM     26  C   LIG    1       31.747 -19.005   9.422  0.00  0.00    +0.135 C 
ATOM     27  C   LIG    1       30.001 -17.337   8.879  0.00  0.00    +0.135 C 
ATOM     28  O   LIG    1       31.571 -19.790   6.767  0.00  0.00    -0.226 OA
ENDBRANCH  23  24
ENDBRANCH   5  23
TORSDOF 9
ENDMDL
MODEL 5
REMARK VINA RESULT:      -7.5      1.441      6.326
REMARK  Name = *****
REMARK                            x       y       z     vdW  Elec       q    Type
REMARK                         _______ _______ _______ _____ _____    ______ ____
ROOT
ATOM      1  C   LIG    1       26.182 -20.937   6.782  0.00  0.00    +0.137 A 
ATOM      2  C   LIG    1       25.713 -22.201   7.114  0.00  0.00    +0.052 A 
ATOM      3  C   LIG    1       24.840 -22.882   6.252  0.00  0.00    -0.011 A 
ATOM      4  C   LIG    1       24.434 -22.242   5.075  0.00  0.00    +0.052 A 
ATOM      5  C   LIG    1       24.833 -20.930   4.807  0.00  0.00    +0.137 A 
ATOM      6  C   LIG    1       25.729 -20.278   5.646  0.00  0.00    +0.092 A 
ENDROOT
BRANCH   1   7
ATOM      7  O   LIG    1       27.185 -20.254   7.495  0.00  0.00    -0.411 OA
BRANCH   7  10
ATOM      8  C   LIG    1       29.323 -19.104   6.449  0.00  0.00    +0.135 C 
ATOM      9  N   LIG    1       29.479 -20.201   7.383  0.00  0.00    -0.273 N 
ATOM     10  C   LIG    1       28.374 -20.835   7.952  0.00  0.00    +0.408 C 
ATOM     11  O   LIG    1       28.455 -21.770   8.743  0.00  0.00    -0.226 OA
ATOM     12  C   LIG    1       30.784 -20.438   7.953  0.00  0.00    +0.135 C 
ENDBRANCH   7  10
ENDBRANCH   1   7
BRANCH   3  13
ATOM     13  C   LIG    1       24.390 -24.307   6.521  0.00  0.00    +0.158 C 
BRANCH  13  14
ATOM     14  O   LIG    1       22.968 -24.332   6.702  0.00  0.00    -0.386 OA
ATOM     15  H   LIG    1       22.560 -24.481   5.833  0.00  0.00    +0.210 HD
ENDBRANCH  13  14
BRANCH  13  16
ATOM     16  C   LIG    1       24.770 -25.278   5.379  0.00  0.00    +0.117 C 
BRANCH  16  17
ATOM     17  N   LIG    1       24.183 -26.617   5.544  0.00  0.00    -0.308 NA
ATOM     18  H   LIG    1       23.648 -26.812   4.693  0.00  0.00    +0.122 HD
BRANCH  17  19
ATOM     19  C   LIG    1       25.165 -27.687   5.796  0.00  0.00    +0.011 C 
ATOM     20  C   LIG    1       24.599 -29.051   5.359  0.00  0.00    +0.027 C 
ATOM     21  C   LIG    1       25.615 -27.748   7.267  0.00  0.00    +0.027 C 
ATOM     22  C   LIG    1       26.403 -27.385   4.930  0.00  0.00    +0.027 C 
ENDBRANCH  17  19
ENDBRANCH  16  17
ENDBRANCH  13  16
ENDBRANCH   3  13
BRANCH   5  23
ATOM     23  O   LIG    1       24.436 -20.231   3.655  0.00  0.00    -0.411 OA
BRANCH  23  24
ATOM     24  C   LIG    1       24.052 -18.891   3.717  0.00  0.00    +0.408 C 
ATOM     25  N   LIG    1       22.802 -18.726   4.278  0.00  0.00    -0.273 N 
ATOM     26  C   LIG    1       22.326 -17.390   4.577  0.00  0.00    +0.135 C 
ATOM     27  C   LIG    1       21.831 -19.803   4.343  0.00  0.00    +0.135 C 
ATOM     28  O   LIG    1       24.745 -17.948   3.342  0.00  0.00    -0.226 OA
ENDBRANCH  23  24
ENDBRANCH   5  23
TORSDOF 9
ENDMDL
MODEL 6
REMARK VINA RESULT:      -7.5      2.954      6.914
REMARK  Name = *****
REMARK                            x       y       z     vdW  Elec       q    Type
REMARK                         _______ _______ _______ _____ _____    ______ ____
ROOT
ATOM      1  C   LIG    1       28.057 -20.340   6.075  0.00  0.00    +0.137 A 
ATOM      2  C   LIG    1       27.615 -19.572   5.005  0.00  0.00    +0.052 A 
ATOM      3  C   LIG    1       26.260 -19.576   4.641  0.00  0.00    -0.011 A 
ATOM      4  C   LIG    1       25.381 -20.394   5.360  0.00  0.00    +0.052 A 
ATOM      5  C   LIG    1       25.859 -21.238   6.365  0.00  0.00    +0.137 A 
ATOM      6  C   LIG    1       27.195 -21.199   6.746  0.00  0.00    +0.092 A 
ENDROOT
BRANCH   1   7
ATOM      7  O   LIG    1       29.354 -20.270   6.616  0.00  0.00    -0.411 OA
BRANCH   7  10
ATOM      8  C   LIG    1       30.950 -20.636   8.690  0.00  0.00    +0.135 C 
ATOM      9  N   LIG    1       30.826 -19.318   8.100  0.00  0.00    -0.273 N 
ATOM     10  C   LIG    1       29.990 -19.086   7.008  0.00  0.00    +0.408 C 
ATOM     11  O   LIG    1       29.848 -17.989   6.478  0.00  0.00    -0.226 OA
ATOM     12  C   LIG    1       31.797 -18.312   8.458  0.00  0.00    +0.135 C 
ENDBRANCH   7  10
ENDBRANCH   1   7
BRANCH   3  13
ATOM     13  C   LIG    1       25.716 -18.669   3.551  0.00  0.00    +0.158 C 
BRANCH  13  14
ATOM     14  O   LIG    1       24.323 -18.422   3.789  0.00  0.00    -0.386 OA
ATOM     15  H   LIG    1       24.089 -17.591   3.343  0.00  0.00    +0.210 HD
ENDBRANCH  13  14
BRANCH  13  16
ATOM     16  C   LIG    1       26.462 -17.317   3.472  0.00  0.00    +0.117 C 
BRANCH  16  17
ATOM     17  N   LIG    1       25.577 -16.193   3.128  0.00  0.00    -0.308 NA
ATOM     18  H   LIG    1       24.693 -16.352   3.619  0.00  0.00    +0.122 HD
BRANCH  17  19
ATOM     19  C   LIG    1       26.122 -14.863   3.460  0.00  0.00    +0.011 C 
ATOM     20  C   LIG    1       25.230 -14.159   4.497  0.00  0.00    +0.027 C 
ATOM     21  C   LIG    1       26.302 -13.967   2.220  0.00  0.00    +0.027 C 
ATOM     22  C   LIG    1       27.509 -15.084   4.095  0.00  0.00    +0.027 C 
ENDBRANCH  17  19
ENDBRANCH  16  17
ENDBRANCH  13  16
ENDBRANCH   3  13
BRANCH   5  23
ATOM     23  O   LIG    1       25.026 -22.097   7.102  0.00  0.00    -0.411 OA
BRANCH  23  24
ATOM     24  C   LIG    1       25.117 -23.483   6.968  0.00  0.00    +0.408 C 
ATOM     25  N   LIG    1       23.929 -24.053   6.557  0.00  0.00    -0.273 N 
ATOM     26  C   LIG    1       23.898 -25.458   6.201  0.00  0.00    +0.135 C 
ATOM     27  C   LIG    1       22.651 -23.383   6.712  0.00  0.00    +0.135 C 
ATOM     28  O   LIG    1       26.138 -24.138   7.166  0.00  0.00    -0.226 OA
ENDBRANCH  23  24
ENDBRANCH   5  23
TORSDOF 9
ENDMDL
MODEL 7
REMARK VINA RESULT:      -7.4      1.827      5.307
REMARK  Name = *****
REMARK                            x       y       z     vdW  Elec       q    Type
REMARK                         _______ _______ _______ _____ _____    ______ ____
ROOT
ATOM      1  C   LIG    1       25.678 -20.584   5.081  0.00  0.00    +0.137 A 
ATOM      2  C   LIG    1       26.857 -19.925   5.403  0.00  0.00    +0.052 A 
ATOM      3  C   LIG    1       27.713 -20.445   6.385  0.00  0.00    -0.011 A 
ATOM      4  C   LIG    1       27.331 -21.618   7.048  0.00  0.00    +0.052 A 
ATOM      5  C   LIG    1       26.093 -22.210   6.785  0.00  0.00    +0.137 A 
ATOM      6  C   LIG    1       25.270 -21.712   5.783  0.00  0.00    +0.092 A 
ENDROOT
BRANCH   1   7
ATOM      7  O   LIG    1       24.847 -20.234   4.000  0.00  0.00    -0.411 OA
BRANCH   7  10
ATOM      8  C   LIG    1       22.323 -20.279   4.783  0.00  0.00    +0.135 C 
ATOM      9  N   LIG    1       22.897 -19.050   4.272  0.00  0.00    -0.273 N 
ATOM     10  C   LIG    1       24.224 -18.990   3.846  0.00  0.00    +0.408 C 
ATOM     11  O   LIG    1       24.753 -17.975   3.402  0.00  0.00    -0.226 OA
ATOM     12  C   LIG    1       22.180 -17.816   4.487  0.00  0.00    +0.135 C 
ENDBRANCH   7  10
ENDBRANCH   1   7
BRANCH   3  13
ATOM     13  C   LIG    1       29.063 -19.819   6.691  0.00  0.00    +0.158 C 
BRANCH  13  14
ATOM     14  O   LIG    1       29.332 -18.778   5.743  0.00  0.00    -0.386 OA
ATOM     15  H   LIG    1       30.176 -18.983   5.307  0.00  0.00    +0.210 HD
ENDBRANCH  13  14
BRANCH  13  16
ATOM     16  C   LIG    1       29.137 -19.232   8.120  0.00  0.00    +0.117 C 
BRANCH  16  17
ATOM     17  N   LIG    1       30.005 -18.046   8.208  0.00  0.00    -0.308 NA
ATOM     18  H   LIG    1       29.387 -17.237   8.319  0.00  0.00    +0.122 HD
BRANCH  17  19
ATOM     19  C   LIG    1       30.996 -18.095   9.299  0.00  0.00    +0.011 C 
ATOM     20  C   LIG    1       31.655 -19.484   9.366  0.00  0.00    +0.027 C 
ATOM     21  C   LIG    1       30.393 -17.729  10.668  0.00  0.00    +0.027 C 
ATOM     22  C   LIG    1       32.090 -17.063   8.967  0.00  0.00    +0.027 C 
ENDBRANCH  17  19
ENDBRANCH  16  17
ENDBRANCH  13  16
ENDBRANCH   3  13
BRANCH   5  23
ATOM     23  O   LIG    1       25.649 -23.372   7.437  0.00  0.00    -0.411 OA
BRANCH  23  24
ATOM     24  C   LIG    1       25.591 -24.597   6.772  0.00  0.00    +0.408 C 
ATOM     25  N   LIG    1       24.337 -24.863   6.261  0.00  0.00    -0.273 N 
ATOM     26  C   LIG    1       24.149 -26.008   5.394  0.00  0.00    +0.135 C 
ATOM     27  C   LIG    1       23.141 -24.205   6.757  0.00  0.00    +0.135 C 
ATOM     28  O   LIG    1       26.546 -25.358   6.627  0.00  0.00    -0.226 OA
ENDBRANCH  23  24
ENDBRANCH   5  23
TORSDOF 9
ENDMDL
MODEL 8
REMARK VINA RESULT:      -7.2      4.276      8.297
REMARK  Name = *****
REMARK                            x       y       z     vdW  Elec       q    Type
REMARK                         _______ _______ _______ _____ _____    ______ ____
ROOT
ATOM      1  C   LIG    1       26.247 -28.276   8.356  0.00  0.00    +0.137 A 
ATOM      2  C   LIG    1       26.279 -27.095   7.626  0.00  0.00    +0.052 A 
ATOM      3  C   LIG    1       25.364 -26.882   6.583  0.00  0.00    -0.011 A 
ATOM      4  C   LIG    1       24.449 -27.898   6.283  0.00  0.00    +0.052 A 
ATOM      5  C   LIG    1       24.499 -29.120   6.958  0.00  0.00    +0.137 A 
ATOM      6  C   LIG    1       25.381 -29.308   8.015  0.00  0.00    +0.092 A 
ENDROOT
BRANCH   1   7
ATOM      7  O   LIG    1       27.005 -28.507   9.518  0.00  0.00    -0.411 OA
BRANCH   7  10
ATOM      8  C   LIG    1       25.940 -28.184  11.915  0.00  0.00    +0.135 C 
ATOM      9  N   LIG    1       26.419 -29.490  11.510  0.00  0.00    -0.273 N 
ATOM     10  C   LIG    1       26.991 -29.698  10.255  0.00  0.00    +0.408 C 
ATOM     11  O   LIG    1       27.414 -30.782   9.869  0.00  0.00    -0.226 OA
ATOM     12  C   LIG    1       26.029 -30.638  12.294  0.00  0.00    +0.135 C 
ENDBRANCH   7  10
ENDBRANCH   1   7
BRANCH   3  13
ATOM     13  C   LIG    1       25.291 -25.563   5.833  0.00  0.00    +0.158 C 
BRANCH  13  14
ATOM     14  O   LIG    1       23.948 -25.348   5.376  0.00  0.00    -0.386 OA
ATOM     15  H   LIG    1       23.471 -26.191   5.450  0.00  0.00    +0.210 HD
ENDBRANCH  13  14
BRANCH  13  16
ATOM     16  C   LIG    1       25.728 -24.359   6.699  0.00  0.00    +0.117 C 
BRANCH  16  17
ATOM     17  N   LIG    1       25.500 -23.064   6.038  0.00  0.00    -0.308 NA
ATOM     18  H   LIG    1       24.853 -23.238   5.263  0.00  0.00    +0.122 HD
BRANCH  17  19
ATOM     19  C   LIG    1       24.974 -22.010   6.925  0.00  0.00    +0.011 C 
ATOM     20  C   LIG    1       25.781 -21.956   8.235  0.00  0.00    +0.027 C 
ATOM     21  C   LIG    1       23.476 -22.184   7.234  0.00  0.00    +0.027 C 
ATOM     22  C   LIG    1       25.159 -20.665   6.196  0.00  0.00    +0.027 C 
ENDBRANCH  17  19
ENDBRANCH  16  17
ENDBRANCH  13  16
ENDBRANCH   3  13
BRANCH   5  23
ATOM     23  O   LIG    1       23.622 -30.182   6.680  0.00  0.00    -0.411 OA
BRANCH  23  24
ATOM     24  C   LIG    1       24.097 -31.414   6.231  0.00  0.00    +0.408 C 
ATOM     25  N   LIG    1       23.672 -32.464   7.019  0.00  0.00    -0.273 N 
ATOM     26  C   LIG    1       23.930 -33.825   6.593  0.00  0.00    +0.135 C 
ATOM     27  C   LIG    1       23.210 -32.274   8.382  0.00  0.00    +0.135 C 
ATOM     28  O   LIG    1       24.798 -31.569   5.233  0.00  0.00    -0.226 OA
ENDBRANCH  23  24
ENDBRANCH   5  23
TORSDOF 9
ENDMDL
MODEL 9
REMARK VINA RESULT:      -7.1      5.945      9.761
REMARK  Name = *****
REMARK                            x       y       z     vdW  Elec       q    Type
REMARK                         _______ _______ _______ _____ _____    ______ ____
ROOT
ATOM      1  C   LIG    1       25.882 -29.079   9.619  0.00  0.00    +0.137 A 
ATOM      2  C   LIG    1       25.807 -28.956   8.237  0.00  0.00    +0.052 A 
ATOM      3  C   LIG    1       24.775 -29.587   7.526  0.00  0.00    -0.011 A 
ATOM      4  C   LIG    1       23.853 -30.363   8.238  0.00  0.00    +0.052 A 
ATOM      5  C   LIG    1       24.005 -30.561   9.613  0.00  0.00    +0.137 A 
ATOM      6  C   LIG    1       25.005 -29.901  10.316  0.00  0.00    +0.092 A 
ENDROOT
BRANCH   1   7
ATOM      7  O   LIG    1       26.773 -28.351  10.429  0.00  0.00    -0.411 OA
BRANCH   7  10
ATOM      8  C   LIG    1       26.509 -27.316  12.846  0.00  0.00    +0.135 C 
ATOM      9  N   LIG    1       27.491 -28.355  12.611  0.00  0.00    -0.273 N 
ATOM     10  C   LIG    1       27.662 -28.922  11.348  0.00  0.00    +0.408 C 
ATOM     11  O   LIG    1       28.482 -29.800  11.099  0.00  0.00    -0.226 OA
ATOM     12  C   LIG    1       28.082 -29.012  13.753  0.00  0.00    +0.135 C 
ENDBRANCH   7  10
ENDBRANCH   1   7
BRANCH   3  13
ATOM     13  C   LIG    1       24.589 -29.390   6.031  0.00  0.00    +0.158 C 
BRANCH  13  14
ATOM     14  O   LIG    1       23.215 -29.612   5.688  0.00  0.00    -0.386 OA
ATOM     15  H   LIG    1       22.981 -28.991   4.978  0.00  0.00    +0.210 HD
ENDBRANCH  13  14
BRANCH  13  16
ATOM     16  C   LIG    1       25.005 -27.977   5.560  0.00  0.00    +0.117 C 
BRANCH  16  17
ATOM     17  N   LIG    1       24.021 -26.941   5.914  0.00  0.00    -0.308 NA
ATOM     18  H   LIG    1       23.600 -27.226   6.803  0.00  0.00    +0.122 HD
BRANCH  17  19
ATOM     19  C   LIG    1       24.578 -25.580   6.017  0.00  0.00    +0.011 C 
ATOM     20  C   LIG    1       25.854 -25.584   6.877  0.00  0.00    +0.027 C 
ATOM     21  C   LIG    1       23.566 -24.564   6.578  0.00  0.00    +0.027 C 
ATOM     22  C   LIG    1       24.963 -25.135   4.593  0.00  0.00    +0.027 C 
ENDBRANCH  17  19
ENDBRANCH  16  17
ENDBRANCH  13  16
ENDBRANCH   3  13
BRANCH   5  23
ATOM     23  O   LIG    1       23.125 -31.349  10.373  0.00  0.00    -0.411 OA
BRANCH  23  24
ATOM     24  C   LIG    1       21.887 -30.857  10.787  0.00  0.00    +0.408 C 
ATOM     25  N   LIG    1       21.875 -30.514  12.123  0.00  0.00    -0.273 N 
ATOM     26  C   LIG    1       20.724 -29.824  12.672  0.00  0.00    +0.135 C 
ATOM     27  C   LIG    1       22.843 -31.039  13.069  0.00  0.00    +0.135 C 
ATOM     28  O   LIG    1       20.912 -30.714  10.052  0.00  0.00    -0.226 OA
ENDBRANCH  23  24
ENDBRANCH   5  23
TORSDOF 9
ENDMDL
