MODEL 1
REMARK VINA RESULT:       4.9      0.000      0.000
REMARK  Name = *****
REMARK                            x       y       z     vdW  Elec       q    Type
REMARK                         _______ _______ _______ _____ _____    ______ ____
ROOT
ATOM      1  C   LIG    1       26.882 -18.886   4.583  0.00  0.00    +0.061 A 
ATOM      2  C   LIG    1       26.335 -19.782   5.549  0.00  0.00    +0.082 A 
ATOM      3  C   LIG    1       27.263 -20.530   6.299  0.00  0.00    +0.180 A 
ATOM      4  F   LIG    1       26.861 -21.569   7.047  0.00  0.00    -0.201 F 
ATOM      5  C   LIG    1       28.630 -20.265   6.256  0.00  0.00    +0.160 A 
ATOM      6  F   LIG    1       29.475 -20.983   7.010  0.00  0.00    -0.202 F 
ATOM      7  C   LIG    1       29.133 -19.262   5.447  0.00  0.00    +0.042 A 
ATOM      8  C   LIG    1       28.263 -18.586   4.595  0.00  0.00    +0.018 A 
ENDROOT
BRANCH   1  10
ATOM      9  O   LIG    1       25.338 -18.862   2.811  0.00  0.00    -0.270 OA
ATOM     10  C   LIG    1       26.008 -18.193   3.578  0.00  0.00    +0.249 C 
ATOM     11  N   LIG    1       25.948 -16.806   3.593  0.00  0.00    -0.292 N 
ATOM     12  C   LIG    1       27.004 -15.783   3.629  0.00  0.00    +0.146 C 
ATOM     13  C   LIG    1       25.849 -14.753   3.348  0.00  0.00    +0.112 C 
ATOM     14  C   LIG    1       25.143 -15.987   2.687  0.00  0.00    +0.146 C 
BRANCH  13  15
ATOM     15  C   LIG    1       25.206 -14.218   4.674  0.00  0.00    +0.088 C 
ATOM     16  N   LIG    1       25.939 -13.086   5.286  0.00  0.00    -0.310 NA
ATOM     17  H   LIG    1       25.695 -13.049   6.276  0.00  0.00    +0.122 HD
ATOM     18  C   LIG    1       25.616 -11.779   4.707  0.00  0.00    +0.081 C 
ATOM     19  C   LIG    1       24.119 -11.484   4.713  0.00  0.00    +0.015 C 
ATOM     20  C   LIG    1       23.336 -12.581   4.008  0.00  0.00    +0.003 C 
ATOM     21  C   LIG    1       23.696 -13.946   4.580  0.00  0.00    +0.021 C 
ENDBRANCH  13  15
BRANCH  13  22
ATOM     22  O   LIG    1       26.195 -13.689   2.420  0.00  0.00    -0.384 OA
ATOM     23  H   LIG    1       26.876 -14.063   1.838  0.00  0.00    +0.210 HD
ENDBRANCH  13  22
ENDBRANCH   1  10
BRANCH   2  24
ATOM     24  N   LIG    1       24.928 -19.900   5.752  0.00  0.00    -0.309 N 
ATOM     25  H   LIG    1       24.677 -20.792   6.203  0.00  0.00    +0.152 HD
BRANCH  24  26
ATOM     26  C   LIG    1       23.810 -19.400   5.017  0.00  0.00    +0.067 A 
ATOM     27  C   LIG    1       23.195 -20.226   4.053  0.00  0.00    +0.145 A 
ATOM     28  F   LIG    1       23.705 -21.444   3.809  0.00  0.00    -0.203 F 
ATOM     29  C   LIG    1       22.077 -19.824   3.311  0.00  0.00    +0.054 A 
ATOM     30  C   LIG    1       21.534 -18.565   3.529  0.00  0.00    +0.016 A 
ATOM     31  I   LIG    1       19.894 -17.914   2.431  0.00  0.00    -0.044 I 
ATOM     32  C   LIG    1       22.098 -17.727   4.484  0.00  0.00    +0.016 A 
ATOM     33  C   LIG    1       23.220 -18.146   5.219  0.00  0.00    +0.027 A 
ENDBRANCH  24  26
ENDBRANCH   2  24
TORSDOF 5
ENDMDL
MODEL 2
REMARK VINA RESULT:       6.6      1.694      2.052
REMARK  Name = *****
REMARK                            x       y       z     vdW  Elec       q    Type
REMARK                         _______ _______ _______ _____ _____    ______ ____
ROOT
ATOM      1  C   LIG    1       28.177 -18.009   5.042  0.00  0.00    +0.061 A 
ATOM      2  C   LIG    1       27.100 -18.861   4.652  0.00  0.00    +0.082 A 
ATOM      3  C   LIG    1       27.013 -20.098   5.321  0.00  0.00    +0.180 A 
ATOM      4  F   LIG    1       26.202 -21.066   4.866  0.00  0.00    -0.201 F 
ATOM      5  C   LIG    1       27.794 -20.390   6.436  0.00  0.00    +0.160 A 
ATOM      6  F   LIG    1       27.657 -21.569   7.059  0.00  0.00    -0.202 F 
ATOM      7  C   LIG    1       28.712 -19.475   6.919  0.00  0.00    +0.042 A 
ATOM      8  C   LIG    1       28.920 -18.293   6.210  0.00  0.00    +0.018 A 
ENDROOT
BRANCH   1  10
ATOM      9  O   LIG    1       29.428 -16.791   3.469  0.00  0.00    -0.270 OA
ATOM     10  C   LIG    1       28.508 -16.767   4.268  0.00  0.00    +0.249 C 
ATOM     11  N   LIG    1       27.717 -15.640   4.447  0.00  0.00    -0.292 N 
ATOM     12  C   LIG    1       27.249 -14.959   5.663  0.00  0.00    +0.146 C 
ATOM     13  C   LIG    1       26.762 -13.820   4.693  0.00  0.00    +0.112 C 
ATOM     14  C   LIG    1       27.905 -14.360   3.765  0.00  0.00    +0.146 C 
BRANCH  13  15
ATOM     15  C   LIG    1       25.296 -14.061   4.196  0.00  0.00    +0.088 C 
ATOM     16  N   LIG    1       24.262 -13.396   5.021  0.00  0.00    -0.310 NA
ATOM     17  H   LIG    1       23.377 -13.882   4.871  0.00  0.00    +0.122 HD
ATOM     18  C   LIG    1       24.047 -11.984   4.690  0.00  0.00    +0.081 C 
ATOM     19  C   LIG    1       23.743 -11.763   3.211  0.00  0.00    +0.015 C 
ATOM     20  C   LIG    1       24.834 -12.351   2.329  0.00  0.00    +0.003 C 
ATOM     21  C   LIG    1       25.089 -13.808   2.693  0.00  0.00    +0.021 C 
ENDBRANCH  13  15
BRANCH  13  22
ATOM     22  O   LIG    1       26.976 -12.469   5.187  0.00  0.00    -0.384 OA
ATOM     23  H   LIG    1       26.108 -12.165   5.497  0.00  0.00    +0.210 HD
ENDBRANCH  13  22
ENDBRANCH   1  10
BRANCH   2  24
ATOM     24  N   LIG    1       26.158 -18.472   3.655  0.00  0.00    -0.309 N 
ATOM     25  H   LIG    1       26.514 -17.704   3.067  0.00  0.00    +0.152 HD
BRANCH  24  26
ATOM     26  C   LIG    1       24.730 -18.470   3.637  0.00  0.00    +0.067 A 
ATOM     27  C   LIG    1       24.044 -19.669   3.346  0.00  0.00    +0.145 A 
ATOM     28  F   LIG    1       24.746 -20.771   3.040  0.00  0.00    -0.203 F 
ATOM     29  C   LIG    1       22.646 -19.760   3.339  0.00  0.00    +0.054 A 
ATOM     30  C   LIG    1       21.890 -18.635   3.638  0.00  0.00    +0.016 A 
ATOM     31  I   LIG    1       19.813 -18.716   3.610  0.00  0.00    -0.044 I 
ATOM     32  C   LIG    1       22.527 -17.440   3.950  0.00  0.00    +0.016 A 
ATOM     33  C   LIG    1       23.930 -17.365   3.951  0.00  0.00    +0.027 A 
ENDBRANCH  24  26
ENDBRANCH   2  24
TORSDOF 5
ENDMDL
MODEL 3
REMARK VINA RESULT:       7.3      2.967      5.285
REMARK  Name = *****
REMARK                            x       y       z     vdW  Elec       q    Type
REMARK                         _______ _______ _______ _____ _____    ______ ____
ROOT
ATOM      1  C   LIG    1       22.119 -17.632   4.491  0.00  0.00    +0.061 A 
ATOM      2  C   LIG    1       23.103 -18.638   4.259  0.00  0.00    +0.082 A 
ATOM      3  C   LIG    1       22.616 -19.922   3.945  0.00  0.00    +0.180 A 
ATOM      4  F   LIG    1       23.434 -20.986   3.953  0.00  0.00    -0.201 F 
ATOM      5  C   LIG    1       21.270 -20.154   3.668  0.00  0.00    +0.160 A 
ATOM      6  F   LIG    1       20.856 -21.387   3.344  0.00  0.00    -0.202 F 
ATOM      7  C   LIG    1       20.349 -19.123   3.717  0.00  0.00    +0.042 A 
ATOM      8  C   LIG    1       20.768 -17.867   4.149  0.00  0.00    +0.018 A 
ENDROOT
BRANCH   1  10
ATOM      9  O   LIG    1       22.052 -15.939   6.121  0.00  0.00    -0.270 OA
ATOM     10  C   LIG    1       22.494 -16.286   5.040  0.00  0.00    +0.249 C 
ATOM     11  N   LIG    1       23.381 -15.498   4.319  0.00  0.00    -0.292 N 
ATOM     12  C   LIG    1       23.417 -15.115   2.900  0.00  0.00    +0.146 C 
ATOM     13  C   LIG    1       24.556 -14.115   3.322  0.00  0.00    +0.112 C 
ATOM     14  C   LIG    1       23.849 -14.170   4.720  0.00  0.00    +0.146 C 
BRANCH  13  15
ATOM     15  C   LIG    1       25.975 -14.774   3.239  0.00  0.00    +0.088 C 
ATOM     16  N   LIG    1       26.835 -14.222   2.168  0.00  0.00    -0.310 NA
ATOM     17  H   LIG    1       27.549 -14.917   1.945  0.00  0.00    +0.122 HD
ATOM     18  C   LIG    1       27.529 -12.984   2.534  0.00  0.00    +0.081 C 
ATOM     19  C   LIG    1       28.337 -13.119   3.822  0.00  0.00    +0.015 C 
ATOM     20  C   LIG    1       27.466 -13.596   4.973  0.00  0.00    +0.003 C 
ATOM     21  C   LIG    1       26.712 -14.861   4.586  0.00  0.00    +0.021 C 
ENDBRANCH  13  15
BRANCH  13  22
ATOM     22  O   LIG    1       24.498 -12.817   2.669  0.00  0.00    -0.384 OA
ATOM     23  H   LIG    1       25.407 -12.624   2.393  0.00  0.00    +0.210 HD
ENDBRANCH  13  22
ENDBRANCH   1  10
BRANCH   2  24
ATOM     24  N   LIG    1       24.499 -18.354   4.326  0.00  0.00    -0.309 N 
ATOM     25  H   LIG    1       24.834 -17.869   3.482  0.00  0.00    +0.152 HD
BRANCH  24  26
ATOM     26  C   LIG    1       25.584 -19.037   4.954  0.00  0.00    +0.067 A 
ATOM     27  C   LIG    1       26.908 -18.676   4.624  0.00  0.00    +0.145 A 
ATOM     28  F   LIG    1       27.120 -17.736   3.689  0.00  0.00    -0.203 F 
ATOM     29  C   LIG    1       28.028 -19.274   5.215  0.00  0.00    +0.054 A 
ATOM     30  C   LIG    1       27.844 -20.260   6.175  0.00  0.00    +0.016 A 
ATOM     31  I   LIG    1       29.475 -21.197   7.059  0.00  0.00    -0.044 I 
ATOM     32  C   LIG    1       26.556 -20.632   6.544  0.00  0.00    +0.016 A 
ATOM     33  C   LIG    1       25.443 -20.022   5.940  0.00  0.00    +0.027 A 
ENDBRANCH  24  26
ENDBRANCH   2  24
TORSDOF 5
ENDMDL
MODEL 4
REMARK VINA RESULT:       7.6      1.693      2.100
REMARK  Name = *****
REMARK                            x       y       z     vdW  Elec       q    Type
REMARK                         _______ _______ _______ _____ _____    ______ ____
ROOT
ATOM      1  C   LIG    1       27.552 -17.764   4.319  0.00  0.00    +0.061 A 
ATOM      2  C   LIG    1       27.181 -19.141   4.375  0.00  0.00    +0.082 A 
ATOM      3  C   LIG    1       27.909 -19.945   5.274  0.00  0.00    +0.180 A 
ATOM      4  F   LIG    1       27.814 -21.282   5.227  0.00  0.00    -0.201 F 
ATOM      5  C   LIG    1       28.790 -19.399   6.205  0.00  0.00    +0.160 A 
ATOM      6  F   LIG    1       29.438 -20.200   7.062  0.00  0.00    -0.202 F 
ATOM      7  C   LIG    1       29.003 -18.034   6.263  0.00  0.00    +0.042 A 
ATOM      8  C   LIG    1       28.402 -17.217   5.308  0.00  0.00    +0.018 A 
ENDROOT
BRANCH   1  10
ATOM      9  O   LIG    1       26.564 -17.331   2.231  0.00  0.00    -0.270 OA
ATOM     10  C   LIG    1       27.008 -16.851   3.260  0.00  0.00    +0.249 C 
ATOM     11  N   LIG    1       26.976 -15.486   3.510  0.00  0.00    -0.292 N 
ATOM     12  C   LIG    1       28.002 -14.561   4.015  0.00  0.00    +0.146 C 
ATOM     13  C   LIG    1       26.994 -13.419   3.626  0.00  0.00    +0.112 C 
ATOM     14  C   LIG    1       26.473 -14.469   2.585  0.00  0.00    +0.146 C 
BRANCH  13  15
ATOM     15  C   LIG    1       26.020 -13.071   4.803  0.00  0.00    +0.088 C 
ATOM     16  N   LIG    1       25.252 -11.821   4.602  0.00  0.00    -0.310 NA
ATOM     17  H   LIG    1       24.949 -11.485   5.517  0.00  0.00    +0.122 HD
ATOM     18  C   LIG    1       24.052 -11.981   3.776  0.00  0.00    +0.081 C 
ATOM     19  C   LIG    1       23.123 -13.077   4.289  0.00  0.00    +0.015 C 
ATOM     20  C   LIG    1       23.853 -14.404   4.420  0.00  0.00    +0.003 C 
ATOM     21  C   LIG    1       25.121 -14.238   5.246  0.00  0.00    +0.021 C 
ENDBRANCH  13  15
BRANCH  13  22
ATOM     22  O   LIG    1       27.608 -12.241   3.035  0.00  0.00    -0.384 OA
ATOM     23  H   LIG    1       27.964 -11.732   3.781  0.00  0.00    +0.210 HD
ENDBRANCH  13  22
ENDBRANCH   1  10
BRANCH   2  24
ATOM     24  N   LIG    1       26.123 -19.666   3.576  0.00  0.00    -0.309 N 
ATOM     25  H   LIG    1       26.190 -19.356   2.596  0.00  0.00    +0.152 HD
BRANCH  24  26
ATOM     26  C   LIG    1       24.770 -20.004   3.883  0.00  0.00    +0.067 A 
ATOM     27  C   LIG    1       23.788 -18.991   3.873  0.00  0.00    +0.145 A 
ATOM     28  F   LIG    1       24.153 -17.722   3.627  0.00  0.00    -0.203 F 
ATOM     29  C   LIG    1       22.435 -19.242   4.133  0.00  0.00    +0.054 A 
ATOM     30  C   LIG    1       22.025 -20.541   4.405  0.00  0.00    +0.016 A 
ATOM     31  I   LIG    1       20.033 -20.958   4.826  0.00  0.00    -0.044 I 
ATOM     32  C   LIG    1       22.958 -21.572   4.405  0.00  0.00    +0.016 A 
ATOM     33  C   LIG    1       24.312 -21.301   4.143  0.00  0.00    +0.027 A 
ENDBRANCH  24  26
ENDBRANCH   2  24
TORSDOF 5
ENDMDL
