MODEL 1
REMARK VINA RESULT:      -6.4      0.000      0.000
REMARK  Name = *****
REMARK                            x       y       z     vdW  Elec       q    Type
REMARK                         _______ _______ _______ _____ _____    ______ ____
ROOT
ATOM      1  C   LIG    1       25.562 -19.589   3.986  0.00  0.00    +0.159 C 
ENDROOT
BRANCH   1   2
ATOM      2  C   LIG    1       26.687 -19.655   5.020  0.00  0.00    -0.031 A 
ATOM      3  C   LIG    1       26.593 -20.465   6.160  0.00  0.00    +0.004 A 
ATOM      4  C   LIG    1       27.655 -20.573   7.062  0.00  0.00    +0.000 A 
ATOM      5  C   LIG    1       28.826 -19.853   6.854  0.00  0.00    +0.000 A 
ATOM      6  C   LIG    1       28.932 -19.016   5.748  0.00  0.00    +0.000 A 
ATOM      7  C   LIG    1       27.870 -18.912   4.839  0.00  0.00    +0.004 A 
ENDBRANCH   1   2
BRANCH   1   8
ATOM      8  C   LIG    1       24.306 -20.493   4.246  0.00  0.00    +0.083 C 
ATOM      9  C   LIG    1       24.280 -21.109   5.655  0.00  0.00    +0.036 C 
ATOM     10  C   LIG    1       22.823 -21.512   5.857  0.00  0.00    +0.003 C 
ATOM     11  C   LIG    1       22.008 -20.462   5.115  0.00  0.00    +0.003 C 
ATOM     12  C   LIG    1       22.981 -19.711   4.201  0.00  0.00    +0.036 C 
BRANCH   8  13
ATOM     13  O   LIG    1       24.181 -21.571   3.306  0.00  0.00    -0.387 OA
ATOM     14  H   LIG    1       24.394 -21.224   2.416  0.00  0.00    +0.210 HD
ENDBRANCH   8  13
ENDBRANCH   1   8
BRANCH   1  15
ATOM     15  C   LIG    1       25.111 -18.154   3.709  0.00  0.00    +0.317 C 
ATOM     16  O   LIG    1       23.977 -17.736   3.862  0.00  0.00    -0.250 OA
BRANCH  15  17
ATOM     17  O   LIG    1       26.142 -17.439   3.160  0.00  0.00    -0.463 OA
BRANCH  17  18
ATOM     18  C   LIG    1       26.023 -15.997   3.199  0.00  0.00    +0.247 C 
BRANCH  18  19
ATOM     19  C   LIG    1       27.288 -15.308   3.741  0.00  0.00    +0.125 C 
BRANCH  19  21
ATOM     20  C   LIG    1       26.558 -13.466   5.166  0.00  0.00    +0.104 C 
ATOM     21  N   LIG    1       27.174 -13.841   3.893  0.00  0.00    -0.305 NA
ATOM     22  C   LIG    1       28.503 -13.227   3.782  0.00  0.00    +0.104 C 
ENDBRANCH  19  21
ENDBRANCH  18  19
ENDBRANCH  17  18
ENDBRANCH  15  17
ENDBRANCH   1  15
TORSDOF 8
ENDMDL
MODEL 2
REMARK VINA RESULT:      -6.3      0.555      1.179
REMARK  Name = *****
REMARK                            x       y       z     vdW  Elec       q    Type
REMARK                         _______ _______ _______ _____ _____    ______ ____
ROOT
ATOM      1  C   LIG    1       25.945 -19.409   4.032  0.00  0.00    +0.159 C 
ENDROOT
BRANCH   1   2
ATOM      2  C   LIG    1       27.154 -19.431   4.967  0.00  0.00    -0.031 A 
ATOM      3  C   LIG    1       28.205 -18.513   4.834  0.00  0.00    +0.004 A 
ATOM      4  C   LIG    1       29.271 -18.496   5.738  0.00  0.00    +0.000 A 
ATOM      5  C   LIG    1       29.320 -19.414   6.781  0.00  0.00    +0.000 A 
ATOM      6  C   LIG    1       28.306 -20.356   6.916  0.00  0.00    +0.000 A 
ATOM      7  C   LIG    1       27.232 -20.370   6.014  0.00  0.00    +0.004 A 
ENDBRANCH   1   2
BRANCH   1   8
ATOM      8  C   LIG    1       24.696 -20.254   4.467  0.00  0.00    +0.083 C 
ATOM      9  C   LIG    1       24.571 -20.413   5.992  0.00  0.00    +0.036 C 
ATOM     10  C   LIG    1       23.113 -20.809   6.205  0.00  0.00    +0.003 C 
ATOM     11  C   LIG    1       22.334 -20.076   5.122  0.00  0.00    +0.003 C 
ATOM     12  C   LIG    1       23.359 -19.590   4.093  0.00  0.00    +0.036 C 
BRANCH   8  13
ATOM     13  O   LIG    1       24.677 -21.571   3.898  0.00  0.00    -0.387 OA
ATOM     14  H   LIG    1       24.524 -22.212   4.621  0.00  0.00    +0.210 HD
ENDBRANCH   8  13
ENDBRANCH   1   8
BRANCH   1  15
ATOM     15  C   LIG    1       25.504 -17.986   3.684  0.00  0.00    +0.317 C 
ATOM     16  O   LIG    1       24.352 -17.593   3.683  0.00  0.00    -0.250 OA
BRANCH  15  17
ATOM     17  O   LIG    1       26.583 -17.252   3.269  0.00  0.00    -0.463 OA
BRANCH  17  18
ATOM     18  C   LIG    1       26.411 -15.816   3.226  0.00  0.00    +0.247 C 
BRANCH  18  19
ATOM     19  C   LIG    1       27.573 -15.055   3.888  0.00  0.00    +0.125 C 
BRANCH  19  21
ATOM     20  C   LIG    1       26.750 -13.252   5.314  0.00  0.00    +0.104 C 
ATOM     21  N   LIG    1       27.356 -13.598   4.027  0.00  0.00    -0.305 NA
ATOM     22  C   LIG    1       28.634 -12.891   3.871  0.00  0.00    +0.104 C 
ENDBRANCH  19  21
ENDBRANCH  18  19
ENDBRANCH  17  18
ENDBRANCH  15  17
ENDBRANCH   1  15
TORSDOF 8
ENDMDL
MODEL 3
REMARK VINA RESULT:      -5.8      3.045      6.926
REMARK  Name = *****
REMARK                            x       y       z     vdW  Elec       q    Type
REMARK                         _______ _______ _______ _____ _____    ______ ____
ROOT
ATOM      1  C   LIG    1       25.681 -14.396   4.222  0.00  0.00    +0.159 C 
ENDROOT
BRANCH   1   2
ATOM      2  C   LIG    1       27.001 -13.653   4.429  0.00  0.00    -0.031 A 
ATOM      3  C   LIG    1       27.921 -13.480   3.386  0.00  0.00    +0.004 A 
ATOM      4  C   LIG    1       29.091 -12.739   3.567  0.00  0.00    +0.000 A 
ATOM      5  C   LIG    1       29.379 -12.174   4.805  0.00  0.00    +0.000 A 
ATOM      6  C   LIG    1       28.498 -12.359   5.866  0.00  0.00    +0.000 A 
ATOM      7  C   LIG    1       27.320 -13.097   5.684  0.00  0.00    +0.004 A 
ENDBRANCH   1   2
BRANCH   1   8
ATOM      8  C   LIG    1       24.507 -13.587   3.568  0.00  0.00    +0.083 C 
ATOM      9  C   LIG    1       24.215 -12.254   4.279  0.00  0.00    +0.036 C 
ATOM     10  C   LIG    1       23.433 -11.447   3.248  0.00  0.00    +0.003 C 
ATOM     11  C   LIG    1       24.005 -11.855   1.898  0.00  0.00    +0.003 C 
ATOM     12  C   LIG    1       24.816 -13.133   2.129  0.00  0.00    +0.036 C 
BRANCH   8  13
ATOM     13  O   LIG    1       23.274 -14.320   3.514  0.00  0.00    -0.387 OA
ATOM     14  H   LIG    1       23.242 -14.918   4.289  0.00  0.00    +0.210 HD
ENDBRANCH   8  13
ENDBRANCH   1   8
BRANCH   1  15
ATOM     15  C   LIG    1       25.869 -15.719   3.477  0.00  0.00    +0.317 C 
ATOM     16  O   LIG    1       26.768 -15.955   2.691  0.00  0.00    -0.250 OA
BRANCH  15  17
ATOM     17  O   LIG    1       24.817 -16.555   3.739  0.00  0.00    -0.463 OA
BRANCH  17  18
ATOM     18  C   LIG    1       25.023 -17.961   3.464  0.00  0.00    +0.247 C 
BRANCH  18  19
ATOM     19  C   LIG    1       23.761 -18.808   3.705  0.00  0.00    +0.125 C 
BRANCH  19  21
ATOM     20  C   LIG    1       22.713 -19.965   5.582  0.00  0.00    +0.104 C 
ATOM     21  N   LIG    1       23.908 -19.850   4.745  0.00  0.00    -0.305 NA
ATOM     22  C   LIG    1       24.200 -21.142   4.113  0.00  0.00    +0.104 C 
ENDBRANCH  19  21
ENDBRANCH  18  19
ENDBRANCH  17  18
ENDBRANCH  15  17
ENDBRANCH   1  15
TORSDOF 8
ENDMDL
MODEL 4
REMARK VINA RESULT:      -5.6      1.066      4.047
REMARK  Name = *****
REMARK                            x       y       z     vdW  Elec       q    Type
REMARK                         _______ _______ _______ _____ _____    ______ ____
ROOT
ATOM      1  C   LIG    1       25.154 -18.807   4.643  0.00  0.00    +0.159 C 
ENDROOT
BRANCH   1   2
ATOM      2  C   LIG    1       23.721 -19.341   4.608  0.00  0.00    -0.031 A 
ATOM      3  C   LIG    1       22.665 -18.581   4.089  0.00  0.00    +0.004 A 
ATOM      4  C   LIG    1       21.372 -19.105   3.997  0.00  0.00    +0.000 A 
ATOM      5  C   LIG    1       21.105 -20.393   4.446  0.00  0.00    +0.000 A 
ATOM      6  C   LIG    1       22.130 -21.157   4.996  0.00  0.00    +0.000 A 
ATOM      7  C   LIG    1       23.429 -20.634   5.082  0.00  0.00    +0.004 A 
ENDBRANCH   1   2
BRANCH   1   8
ATOM      8  C   LIG    1       26.279 -19.820   5.056  0.00  0.00    +0.083 C 
ATOM      9  C   LIG    1       27.661 -19.164   5.217  0.00  0.00    +0.036 C 
ATOM     10  C   LIG    1       28.450 -20.163   6.058  0.00  0.00    +0.003 C 
ATOM     11  C   LIG    1       27.431 -20.793   6.997  0.00  0.00    +0.003 C 
ATOM     12  C   LIG    1       26.046 -20.446   6.443  0.00  0.00    +0.036 C 
BRANCH   8  13
ATOM     13  O   LIG    1       26.428 -20.909   4.132  0.00  0.00    -0.387 OA
ATOM     14  H   LIG    1       25.934 -21.677   4.486  0.00  0.00    +0.210 HD
ENDBRANCH   8  13
ENDBRANCH   1   8
BRANCH   1  15
ATOM     15  C   LIG    1       25.547 -18.111   3.339  0.00  0.00    +0.317 C 
ATOM     16  O   LIG    1       25.978 -18.674   2.349  0.00  0.00    -0.250 OA
BRANCH  15  17
ATOM     17  O   LIG    1       25.447 -16.753   3.486  0.00  0.00    -0.463 OA
BRANCH  17  18
ATOM     18  C   LIG    1       26.687 -16.007   3.471  0.00  0.00    +0.247 C 
BRANCH  18  19
ATOM     19  C   LIG    1       26.546 -14.630   2.800  0.00  0.00    +0.125 C 
BRANCH  19  21
ATOM     20  C   LIG    1       26.343 -13.577   4.993  0.00  0.00    +0.104 C 
ATOM     21  N   LIG    1       26.930 -13.485   3.656  0.00  0.00    -0.305 NA
ATOM     22  C   LIG    1       28.393 -13.413   3.758  0.00  0.00    +0.104 C 
ENDBRANCH  19  21
ENDBRANCH  18  19
ENDBRANCH  17  18
ENDBRANCH  15  17
ENDBRANCH   1  15
TORSDOF 8
ENDMDL
MODEL 5
REMARK VINA RESULT:      -5.5      1.089      4.055
REMARK  Name = *****
REMARK                            x       y       z     vdW  Elec       q    Type
REMARK                         _______ _______ _______ _____ _____    ______ ____
ROOT
ATOM      1  C   LIG    1       24.982 -18.959   4.613  0.00  0.00    +0.159 C 
ENDROOT
BRANCH   1   2
ATOM      2  C   LIG    1       23.541 -19.456   4.492  0.00  0.00    -0.031 A 
ATOM      3  C   LIG    1       23.183 -20.767   4.834  0.00  0.00    +0.004 A 
ATOM      4  C   LIG    1       21.852 -21.190   4.787  0.00  0.00    +0.000 A 
ATOM      5  C   LIG    1       20.853 -20.316   4.373  0.00  0.00    +0.000 A 
ATOM      6  C   LIG    1       21.187 -19.019   3.996  0.00  0.00    +0.000 A 
ATOM      7  C   LIG    1       22.521 -18.592   4.049  0.00  0.00    +0.004 A 
ENDBRANCH   1   2
BRANCH   1   8
ATOM      8  C   LIG    1       26.056 -20.004   5.078  0.00  0.00    +0.083 C 
ATOM      9  C   LIG    1       27.476 -19.419   5.168  0.00  0.00    +0.036 C 
ATOM     10  C   LIG    1       28.226 -20.400   6.064  0.00  0.00    +0.003 C 
ATOM     11  C   LIG    1       27.193 -20.905   7.062  0.00  0.00    +0.003 C 
ATOM     12  C   LIG    1       25.818 -20.518   6.509  0.00  0.00    +0.036 C 
BRANCH   8  13
ATOM     13  O   LIG    1       26.125 -21.161   4.230  0.00  0.00    -0.387 OA
ATOM     14  H   LIG    1       25.495 -21.827   4.574  0.00  0.00    +0.210 HD
ENDBRANCH   8  13
ENDBRANCH   1   8
BRANCH   1  15
ATOM     15  C   LIG    1       25.465 -18.260   3.341  0.00  0.00    +0.317 C 
ATOM     16  O   LIG    1       25.819 -18.828   2.324  0.00  0.00    -0.250 OA
BRANCH  15  17
ATOM     17  O   LIG    1       25.547 -16.910   3.553  0.00  0.00    -0.463 OA
BRANCH  17  18
ATOM     18  C   LIG    1       26.834 -16.294   3.315  0.00  0.00    +0.247 C 
BRANCH  18  19
ATOM     19  C   LIG    1       26.759 -14.758   3.252  0.00  0.00    +0.125 C 
BRANCH  19  21
ATOM     20  C   LIG    1       28.448 -13.117   3.896  0.00  0.00    +0.104 C 
ATOM     21  N   LIG    1       27.435 -14.061   4.369  0.00  0.00    -0.305 NA
ATOM     22  C   LIG    1       26.440 -13.356   5.186  0.00  0.00    +0.104 C 
ENDBRANCH  19  21
ENDBRANCH  18  19
ENDBRANCH  17  18
ENDBRANCH  15  17
ENDBRANCH   1  15
TORSDOF 8
ENDMDL
MODEL 6
REMARK VINA RESULT:      -5.2      2.559      6.195
REMARK  Name = *****
REMARK                            x       y       z     vdW  Elec       q    Type
REMARK                         _______ _______ _______ _____ _____    ______ ____
ROOT
ATOM      1  C   LIG    1       25.955 -15.662   3.229  0.00  0.00    +0.159 C 
ENDROOT
BRANCH   1   2
ATOM      2  C   LIG    1       24.839 -16.624   3.637  0.00  0.00    -0.031 A 
ATOM      3  C   LIG    1       23.637 -16.166   4.193  0.00  0.00    +0.004 A 
ATOM      4  C   LIG    1       22.596 -17.048   4.497  0.00  0.00    +0.000 A 
ATOM      5  C   LIG    1       22.745 -18.411   4.273  0.00  0.00    +0.000 A 
ATOM      6  C   LIG    1       23.941 -18.896   3.752  0.00  0.00    +0.000 A 
ATOM      7  C   LIG    1       24.984 -18.012   3.440  0.00  0.00    +0.004 A 
ENDBRANCH   1   2
BRANCH   1   8
ATOM      8  C   LIG    1       25.635 -14.128   3.315  0.00  0.00    +0.083 C 
ATOM      9  C   LIG    1       24.384 -13.721   2.516  0.00  0.00    +0.036 C 
ATOM     10  C   LIG    1       23.990 -12.372   3.107  0.00  0.00    +0.003 C 
ATOM     11  C   LIG    1       24.357 -12.455   4.582  0.00  0.00    +0.003 C 
ATOM     12  C   LIG    1       25.283 -13.665   4.740  0.00  0.00    +0.036 C 
BRANCH   8  13
ATOM     13  O   LIG    1       26.717 -13.298   2.866  0.00  0.00    -0.387 OA
ATOM     14  H   LIG    1       27.551 -13.669   3.219  0.00  0.00    +0.210 HD
ENDBRANCH   8  13
ENDBRANCH   1   8
BRANCH   1  15
ATOM     15  C   LIG    1       27.268 -15.952   3.956  0.00  0.00    +0.317 C 
ATOM     16  O   LIG    1       28.047 -15.105   4.356  0.00  0.00    -0.250 OA
BRANCH  15  17
ATOM     17  O   LIG    1       27.492 -17.302   3.993  0.00  0.00    -0.463 OA
BRANCH  17  18
ATOM     18  C   LIG    1       28.436 -17.776   4.983  0.00  0.00    +0.247 C 
BRANCH  18  19
ATOM     19  C   LIG    1       28.423 -19.307   5.136  0.00  0.00    +0.125 C 
BRANCH  19  21
ATOM     20  C   LIG    1       26.682 -20.395   6.456  0.00  0.00    +0.104 C 
ATOM     21  N   LIG    1       28.014 -19.788   6.473  0.00  0.00    -0.305 NA
ATOM     22  C   LIG    1       28.996 -20.759   6.972  0.00  0.00    +0.104 C 
ENDBRANCH  19  21
ENDBRANCH  18  19
ENDBRANCH  17  18
ENDBRANCH  15  17
ENDBRANCH   1  15
TORSDOF 8
ENDMDL
MODEL 7
REMARK VINA RESULT:      -4.9      1.382      1.875
REMARK  Name = *****
REMARK                            x       y       z     vdW  Elec       q    Type
REMARK                         _______ _______ _______ _____ _____    ______ ____
ROOT
ATOM      1  C   LIG    1       24.958 -19.907   4.128  0.00  0.00    +0.159 C 
ENDROOT
BRANCH   1   2
ATOM      2  C   LIG    1       26.039 -20.204   5.169  0.00  0.00    -0.031 A 
ATOM      3  C   LIG    1       25.859 -21.179   6.159  0.00  0.00    +0.004 A 
ATOM      4  C   LIG    1       26.879 -21.494   7.060  0.00  0.00    +0.000 A 
ATOM      5  C   LIG    1       28.094 -20.820   7.006  0.00  0.00    +0.000 A 
ATOM      6  C   LIG    1       28.286 -19.824   6.053  0.00  0.00    +0.000 A 
ATOM      7  C   LIG    1       27.266 -19.513   5.143  0.00  0.00    +0.004 A 
ENDBRANCH   1   2
BRANCH   1   8
ATOM      8  C   LIG    1       23.490 -19.744   4.656  0.00  0.00    +0.083 C 
ATOM      9  C   LIG    1       22.613 -18.858   3.755  0.00  0.00    +0.036 C 
ATOM     10  C   LIG    1       21.186 -19.221   4.153  0.00  0.00    +0.003 C 
ATOM     11  C   LIG    1       21.231 -20.700   4.510  0.00  0.00    +0.003 C 
ATOM     12  C   LIG    1       22.708 -21.069   4.680  0.00  0.00    +0.036 C 
BRANCH   8  13
ATOM     13  O   LIG    1       23.422 -19.201   5.984  0.00  0.00    -0.387 OA
ATOM     14  H   LIG    1       23.430 -18.224   5.912  0.00  0.00    +0.210 HD
ENDBRANCH   8  13
ENDBRANCH   1   8
BRANCH   1  15
ATOM     15  C   LIG    1       25.318 -18.713   3.242  0.00  0.00    +0.317 C 
ATOM     16  O   LIG    1       25.998 -18.772   2.233  0.00  0.00    -0.250 OA
BRANCH  15  17
ATOM     17  O   LIG    1       24.858 -17.555   3.809  0.00  0.00    -0.463 OA
BRANCH  17  18
ATOM     18  C   LIG    1       25.391 -16.318   3.280  0.00  0.00    +0.247 C 
BRANCH  18  19
ATOM     19  C   LIG    1       24.820 -15.073   3.981  0.00  0.00    +0.125 C 
BRANCH  19  21
ATOM     20  C   LIG    1       26.470 -13.516   4.882  0.00  0.00    +0.104 C 
ATOM     21  N   LIG    1       25.590 -13.831   3.755  0.00  0.00    -0.305 NA
ATOM     22  C   LIG    1       26.383 -13.957   2.525  0.00  0.00    +0.104 C 
ENDBRANCH  19  21
ENDBRANCH  18  19
ENDBRANCH  17  18
ENDBRANCH  15  17
ENDBRANCH   1  15
TORSDOF 8
ENDMDL
MODEL 8
REMARK VINA RESULT:      -4.1      2.672      7.279
REMARK  Name = *****
REMARK                            x       y       z     vdW  Elec       q    Type
REMARK                         _______ _______ _______ _____ _____    ______ ____
ROOT
ATOM      1  C   LIG    1       27.005 -15.038   3.199  0.00  0.00    +0.159 C 
ENDROOT
BRANCH   1   2
ATOM      2  C   LIG    1       25.608 -14.422   3.105  0.00  0.00    -0.031 A 
ATOM      3  C   LIG    1       24.565 -14.832   3.946  0.00  0.00    +0.004 A 
ATOM      4  C   LIG    1       23.312 -14.214   3.901  0.00  0.00    +0.000 A 
ATOM      5  C   LIG    1       23.070 -13.188   2.995  0.00  0.00    +0.000 A 
ATOM      6  C   LIG    1       24.079 -12.784   2.126  0.00  0.00    +0.000 A 
ATOM      7  C   LIG    1       25.338 -13.399   2.175  0.00  0.00    +0.004 A 
ENDBRANCH   1   2
BRANCH   1   8
ATOM      8  C   LIG    1       28.058 -14.278   4.080  0.00  0.00    +0.083 C 
ATOM      9  C   LIG    1       28.745 -13.117   3.341  0.00  0.00    +0.036 C 
ATOM     10  C   LIG    1       29.320 -12.255   4.460  0.00  0.00    +0.003 C 
ATOM     11  C   LIG    1       28.332 -12.376   5.612  0.00  0.00    +0.003 C 
ATOM     12  C   LIG    1       27.429 -13.572   5.295  0.00  0.00    +0.036 C 
BRANCH   8  13
ATOM     13  O   LIG    1       29.093 -15.133   4.589  0.00  0.00    -0.387 OA
ATOM     14  H   LIG    1       29.909 -14.600   4.677  0.00  0.00    +0.210 HD
ENDBRANCH   8  13
ENDBRANCH   1   8
BRANCH   1  15
ATOM     15  C   LIG    1       26.965 -16.512   3.607  0.00  0.00    +0.317 C 
ATOM     16  O   LIG    1       27.791 -17.064   4.310  0.00  0.00    -0.250 OA
BRANCH  15  17
ATOM     17  O   LIG    1       25.926 -17.142   2.975  0.00  0.00    -0.463 OA
BRANCH  17  18
ATOM     18  C   LIG    1       25.618 -18.485   3.417  0.00  0.00    +0.247 C 
BRANCH  18  19
ATOM     19  C   LIG    1       24.126 -18.681   3.737  0.00  0.00    +0.125 C 
BRANCH  19  21
ATOM     20  C   LIG    1       24.931 -20.577   5.046  0.00  0.00    +0.104 C 
ATOM     21  N   LIG    1       23.791 -19.989   4.340  0.00  0.00    -0.305 NA
ATOM     22  C   LIG    1       22.660 -19.834   5.263  0.00  0.00    +0.104 C 
ENDBRANCH  19  21
ENDBRANCH  18  19
ENDBRANCH  17  18
ENDBRANCH  15  17
ENDBRANCH   1  15
TORSDOF 8
ENDMDL
MODEL 9
REMARK VINA RESULT:      -3.9      2.724      6.784
REMARK  Name = *****
REMARK                            x       y       z     vdW  Elec       q    Type
REMARK                         _______ _______ _______ _____ _____    ______ ____
ROOT
ATOM      1  C   LIG    1       25.520 -15.395   3.314  0.00  0.00    +0.159 C 
ENDROOT
BRANCH   1   2
ATOM      2  C   LIG    1       24.203 -15.575   4.070  0.00  0.00    -0.031 A 
ATOM      3  C   LIG    1       23.475 -16.771   4.006  0.00  0.00    +0.004 A 
ATOM      4  C   LIG    1       22.310 -16.951   4.756  0.00  0.00    +0.000 A 
ATOM      5  C   LIG    1       21.834 -15.927   5.568  0.00  0.00    +0.000 A 
ATOM      6  C   LIG    1       22.520 -14.717   5.623  0.00  0.00    +0.000 A 
ATOM      7  C   LIG    1       23.693 -14.539   4.876  0.00  0.00    +0.004 A 
ENDBRANCH   1   2
BRANCH   1   8
ATOM      8  C   LIG    1       26.303 -14.058   3.563  0.00  0.00    +0.083 C 
ATOM      9  C   LIG    1       26.679 -13.838   5.039  0.00  0.00    +0.036 C 
ATOM     10  C   LIG    1       27.798 -12.802   4.986  0.00  0.00    +0.003 C 
ATOM     11  C   LIG    1       28.562 -13.099   3.703  0.00  0.00    +0.003 C 
ATOM     12  C   LIG    1       27.674 -14.023   2.864  0.00  0.00    +0.036 C 
BRANCH   8  13
ATOM     13  O   LIG    1       25.587 -12.892   3.127  0.00  0.00    -0.387 OA
ATOM     14  H   LIG    1       26.163 -12.396   2.510  0.00  0.00    +0.210 HD
ENDBRANCH   8  13
ENDBRANCH   1   8
BRANCH   1  15
ATOM     15  C   LIG    1       26.465 -16.583   3.502  0.00  0.00    +0.317 C 
ATOM     16  O   LIG    1       27.585 -16.517   3.975  0.00  0.00    -0.250 OA
BRANCH  15  17
ATOM     17  O   LIG    1       25.909 -17.710   2.958  0.00  0.00    -0.463 OA
BRANCH  17  18
ATOM     18  C   LIG    1       26.030 -18.928   3.730  0.00  0.00    +0.247 C 
BRANCH  18  19
ATOM     19  C   LIG    1       24.874 -19.912   3.479  0.00  0.00    +0.125 C 
BRANCH  19  21
ATOM     20  C   LIG    1       25.570 -20.693   5.685  0.00  0.00    +0.104 C 
ATOM     21  N   LIG    1       24.602 -20.842   4.597  0.00  0.00    -0.305 NA
ATOM     22  C   LIG    1       23.243 -20.620   5.106  0.00  0.00    +0.104 C 
ENDBRANCH  19  21
ENDBRANCH  18  19
ENDBRANCH  17  18
ENDBRANCH  15  17
ENDBRANCH   1  15
TORSDOF 8
ENDMDL
