MODEL 1
REMARK VINA RESULT:      -4.0      0.000      0.000
REMARK  Name = *****
REMARK                            x       y       z     vdW  Elec       q    Type
REMARK                         _______ _______ _______ _____ _____    ______ ____
ROOT
ATOM      1  C   LIG    1       26.268 -15.147   3.367  0.00  0.00    +0.186 A 
ATOM      2  C   LIG    1       26.026 -13.812   3.079  0.00  0.00    +0.171 A 
ATOM      3  N   LIG    1       27.198 -13.065   3.193  0.00  0.00    -0.229 NA
ATOM      4  C   LIG    1       28.118 -13.926   3.564  0.00  0.00    +0.199 A 
ATOM      5  N   LIG    1       27.605 -15.182   3.692  0.00  0.00    -0.328 N 
ATOM      6  H   LIG    1       28.101 -16.017   3.967  0.00  0.00    +0.168 HD
ENDROOT
BRANCH   2   7
ATOM      7  C   LIG    1       24.745 -13.228   2.695  0.00  0.00    +0.264 C 
ATOM      8  O   LIG    1       24.592 -12.356   1.850  0.00  0.00    -0.269 OA
ATOM      9  N   LIG    1       23.677 -13.744   3.376  0.00  0.00    -0.324 N 
ATOM     10  H   LIG    1       22.753 -13.397   3.172  0.00  0.00    +0.145 HD
ATOM     11  H   LIG    1       23.826 -14.469   4.067  0.00  0.00    +0.145 HD
ENDBRANCH   2   7
BRANCH   1  13
ATOM     12  N   LIG    1       26.065 -17.346   3.336  0.00  0.00    -0.077 NA
ATOM     13  N   LIG    1       25.478 -16.248   3.389  0.00  0.00    -0.113 NA
BRANCH  12  15
ATOM     14  C   LIG    1       25.707 -19.740   3.736  0.00  0.00    +0.153 C 
ATOM     15  N   LIG    1       25.211 -18.422   3.348  0.00  0.00    -0.243 N 
ATOM     16  C   LIG    1       23.852 -18.092   3.736  0.00  0.00    +0.153 C 
ENDBRANCH  12  15
ENDBRANCH   1  13
TORSDOF 3
ENDMDL
MODEL 2
REMARK VINA RESULT:      -3.7      3.186      6.187
REMARK  Name = *****
REMARK                            x       y       z     vdW  Elec       q    Type
REMARK                         _______ _______ _______ _____ _____    ______ ____
ROOT
ATOM      1  C   LIG    1       25.306 -19.140   3.740  0.00  0.00    +0.186 A 
ATOM      2  C   LIG    1       25.617 -20.144   4.646  0.00  0.00    +0.171 A 
ATOM      3  N   LIG    1       24.746 -21.223   4.500  0.00  0.00    -0.229 NA
ATOM      4  C   LIG    1       23.916 -20.867   3.547  0.00  0.00    +0.199 A 
ATOM      5  N   LIG    1       24.206 -19.623   3.070  0.00  0.00    -0.328 N 
ATOM      6  H   LIG    1       23.719 -19.121   2.342  0.00  0.00    +0.168 HD
ENDROOT
BRANCH   2   7
ATOM      7  C   LIG    1       26.701 -20.122   5.624  0.00  0.00    +0.264 C 
ATOM      8  O   LIG    1       26.577 -20.359   6.818  0.00  0.00    -0.269 OA
ATOM      9  N   LIG    1       27.919 -19.804   5.090  0.00  0.00    -0.324 N 
ATOM     10  H   LIG    1       28.724 -19.768   5.696  0.00  0.00    +0.145 HD
ATOM     11  H   LIG    1       27.999 -19.617   4.098  0.00  0.00    +0.145 HD
ENDBRANCH   2   7
BRANCH   1  13
ATOM     12  N   LIG    1       25.089 -16.944   3.635  0.00  0.00    -0.077 NA
ATOM     13  N   LIG    1       25.846 -17.924   3.485  0.00  0.00    -0.113 NA
BRANCH  12  15
ATOM     14  C   LIG    1       24.979 -14.494   3.614  0.00  0.00    +0.153 C 
ATOM     15  N   LIG    1       25.688 -15.742   3.348  0.00  0.00    -0.243 N 
ATOM     16  C   LIG    1       27.125 -15.736   3.552  0.00  0.00    +0.153 C 
ENDBRANCH  12  15
ENDBRANCH   1  13
TORSDOF 3
ENDMDL
MODEL 3
REMARK VINA RESULT:      -3.7      4.568      6.047
REMARK  Name = *****
REMARK                            x       y       z     vdW  Elec       q    Type
REMARK                         _______ _______ _______ _____ _____    ______ ____
ROOT
ATOM      1  C   LIG    1       26.820 -20.535   6.214  0.00  0.00    +0.186 A 
ATOM      2  C   LIG    1       27.964 -19.859   5.813  0.00  0.00    +0.171 A 
ATOM      3  N   LIG    1       29.103 -20.472   6.334  0.00  0.00    -0.229 NA
ATOM      4  C   LIG    1       28.654 -21.477   7.051  0.00  0.00    +0.199 A 
ATOM      5  N   LIG    1       27.294 -21.547   7.017  0.00  0.00    -0.328 N 
ATOM      6  H   LIG    1       26.707 -22.222   7.484  0.00  0.00    +0.168 HD
ENDROOT
BRANCH   2   7
ATOM      7  C   LIG    1       28.016 -18.677   4.959  0.00  0.00    +0.264 C 
ATOM      8  O   LIG    1       28.907 -17.838   4.971  0.00  0.00    -0.269 OA
ATOM      9  N   LIG    1       26.953 -18.565   4.106  0.00  0.00    -0.324 N 
ATOM     10  H   LIG    1       26.911 -17.777   3.478  0.00  0.00    +0.145 HD
ATOM     11  H   LIG    1       26.230 -19.274   4.109  0.00  0.00    +0.145 HD
ENDBRANCH   2   7
BRANCH   1  13
ATOM     12  N   LIG    1       25.078 -20.750   4.874  0.00  0.00    -0.077 NA
ATOM     13  N   LIG    1       25.500 -20.344   5.974  0.00  0.00    -0.113 NA
BRANCH  12  15
ATOM     14  C   LIG    1       22.771 -20.970   5.680  0.00  0.00    +0.153 C 
ATOM     15  N   LIG    1       23.738 -20.516   4.684  0.00  0.00    -0.243 N 
ATOM     16  C   LIG    1       23.448 -19.262   4.012  0.00  0.00    +0.153 C 
ENDBRANCH  12  15
ENDBRANCH   1  13
TORSDOF 3
ENDMDL
MODEL 4
REMARK VINA RESULT:      -3.5      3.067      5.829
REMARK  Name = *****
REMARK                            x       y       z     vdW  Elec       q    Type
REMARK                         _______ _______ _______ _____ _____    ______ ____
ROOT
ATOM      1  C   LIG    1       26.125 -18.183   3.677  0.00  0.00    +0.186 A 
ATOM      2  C   LIG    1       26.512 -19.265   4.454  0.00  0.00    +0.171 A 
ATOM      3  N   LIG    1       25.527 -20.251   4.447  0.00  0.00    -0.229 NA
ATOM      4  C   LIG    1       24.560 -19.765   3.704  0.00  0.00    +0.199 A 
ATOM      5  N   LIG    1       24.869 -18.525   3.230  0.00  0.00    -0.328 N 
ATOM      6  H   LIG    1       24.297 -17.938   2.642  0.00  0.00    +0.168 HD
ENDROOT
BRANCH   2   7
ATOM      7  C   LIG    1       27.768 -19.400   5.185  0.00  0.00    +0.264 C 
ATOM      8  O   LIG    1       28.017 -20.275   6.004  0.00  0.00    -0.269 OA
ATOM      9  N   LIG    1       28.691 -18.437   4.879  0.00  0.00    -0.324 N 
ATOM     10  H   LIG    1       29.588 -18.457   5.339  0.00  0.00    +0.145 HD
ATOM     11  H   LIG    1       28.466 -17.726   4.195  0.00  0.00    +0.145 HD
ENDBRANCH   2   7
BRANCH   1  13
ATOM     12  N   LIG    1       25.972 -16.010   3.314  0.00  0.00    -0.077 NA
ATOM     13  N   LIG    1       26.720 -17.006   3.366  0.00  0.00    -0.113 NA
BRANCH  12  15
ATOM     14  C   LIG    1       25.897 -13.754   2.353  0.00  0.00    +0.153 C 
ATOM     15  N   LIG    1       26.629 -14.851   2.981  0.00  0.00    -0.243 N 
ATOM     16  C   LIG    1       27.689 -14.488   3.905  0.00  0.00    +0.153 C 
ENDBRANCH  12  15
ENDBRANCH   1  13
TORSDOF 3
ENDMDL
MODEL 5
REMARK VINA RESULT:      -3.5      2.590      5.227
REMARK  Name = *****
REMARK                            x       y       z     vdW  Elec       q    Type
REMARK                         _______ _______ _______ _____ _____    ______ ____
ROOT
ATOM      1  C   LIG    1       24.761 -18.197   3.644  0.00  0.00    +0.186 A 
ATOM      2  C   LIG    1       23.608 -18.916   3.922  0.00  0.00    +0.171 A 
ATOM      3  N   LIG    1       23.874 -20.285   3.928  0.00  0.00    -0.229 NA
ATOM      4  C   LIG    1       25.150 -20.388   3.637  0.00  0.00    +0.199 A 
ATOM      5  N   LIG    1       25.720 -19.164   3.448  0.00  0.00    -0.328 N 
ATOM      6  H   LIG    1       26.682 -18.970   3.213  0.00  0.00    +0.168 HD
ENDROOT
BRANCH   2   7
ATOM      7  C   LIG    1       22.284 -18.362   4.187  0.00  0.00    +0.264 C 
ATOM      8  O   LIG    1       21.223 -18.923   3.946  0.00  0.00    -0.269 OA
ATOM      9  N   LIG    1       22.311 -17.115   4.749  0.00  0.00    -0.324 N 
ATOM     10  H   LIG    1       21.439 -16.659   4.966  0.00  0.00    +0.145 HD
ATOM     11  H   LIG    1       23.200 -16.672   4.945  0.00  0.00    +0.145 HD
ENDBRANCH   2   7
BRANCH   1  13
ATOM     12  N   LIG    1       26.208 -16.562   3.313  0.00  0.00    -0.077 NA
ATOM     13  N   LIG    1       25.021 -16.872   3.535  0.00  0.00    -0.113 NA
BRANCH  12  15
ATOM     14  C   LIG    1       25.270 -14.296   3.267  0.00  0.00    +0.153 C 
ATOM     15  N   LIG    1       26.411 -15.206   3.227  0.00  0.00    -0.243 N 
ATOM     16  C   LIG    1       27.635 -14.752   3.861  0.00  0.00    +0.153 C 
ENDBRANCH  12  15
ENDBRANCH   1  13
TORSDOF 3
ENDMDL
MODEL 6
REMARK VINA RESULT:      -3.0      3.536      5.729
REMARK  Name = *****
REMARK                            x       y       z     vdW  Elec       q    Type
REMARK                         _______ _______ _______ _____ _____    ______ ____
ROOT
ATOM      1  C   LIG    1       27.990 -18.246   4.813  0.00  0.00    +0.186 A 
ATOM      2  C   LIG    1       27.496 -19.478   5.218  0.00  0.00    +0.171 A 
ATOM      3  N   LIG    1       28.433 -20.148   6.004  0.00  0.00    -0.229 NA
ATOM      4  C   LIG    1       29.475 -19.349   6.050  0.00  0.00    +0.199 A 
ATOM      5  N   LIG    1       29.259 -18.204   5.343  0.00  0.00    -0.328 N 
ATOM      6  H   LIG    1       29.901 -17.435   5.219  0.00  0.00    +0.168 HD
ENDROOT
BRANCH   2   7
ATOM      7  C   LIG    1       26.183 -20.031   4.900  0.00  0.00    +0.264 C 
ATOM      8  O   LIG    1       25.541 -20.781   5.622  0.00  0.00    -0.269 OA
ATOM      9  N   LIG    1       25.699 -19.637   3.683  0.00  0.00    -0.324 N 
ATOM     10  H   LIG    1       24.797 -19.973   3.384  0.00  0.00    +0.145 HD
ATOM     11  H   LIG    1       26.245 -19.011   3.104  0.00  0.00    +0.145 HD
ENDBRANCH   2   7
BRANCH   1  13
ATOM     12  N   LIG    1       27.887 -16.096   4.319  0.00  0.00    -0.077 NA
ATOM     13  N   LIG    1       27.475 -17.244   4.060  0.00  0.00    -0.113 NA
BRANCH  12  15
ATOM     14  C   LIG    1       25.875 -15.121   3.308  0.00  0.00    +0.153 C 
ATOM     15  N   LIG    1       27.318 -15.123   3.534  0.00  0.00    -0.243 N 
ATOM     16  C   LIG    1       27.968 -13.829   3.636  0.00  0.00    +0.153 C 
ENDBRANCH  12  15
ENDBRANCH   1  13
TORSDOF 3
ENDMDL
MODEL 7
REMARK VINA RESULT:      -3.0      1.662      2.711
REMARK  Name = *****
REMARK                            x       y       z     vdW  Elec       q    Type
REMARK                         _______ _______ _______ _____ _____    ______ ____
ROOT
ATOM      1  C   LIG    1       25.065 -15.164   3.766  0.00  0.00    +0.186 A 
ATOM      2  C   LIG    1       26.047 -14.198   3.925  0.00  0.00    +0.171 A 
ATOM      3  N   LIG    1       25.475 -12.956   4.199  0.00  0.00    -0.229 NA
ATOM      4  C   LIG    1       24.178 -13.166   4.180  0.00  0.00    +0.199 A 
ATOM      5  N   LIG    1       23.886 -14.470   3.914  0.00  0.00    -0.328 N 
ATOM      6  H   LIG    1       22.969 -14.886   3.841  0.00  0.00    +0.168 HD
ENDROOT
BRANCH   2   7
ATOM      7  C   LIG    1       27.489 -14.407   3.839  0.00  0.00    +0.264 C 
ATOM      8  O   LIG    1       28.312 -13.543   3.569  0.00  0.00    -0.269 OA
ATOM      9  N   LIG    1       27.876 -15.695   4.092  0.00  0.00    -0.324 N 
ATOM     10  H   LIG    1       28.856 -15.926   4.055  0.00  0.00    +0.145 HD
ATOM     11  H   LIG    1       27.179 -16.392   4.320  0.00  0.00    +0.145 HD
ENDBRANCH   2   7
BRANCH   1  13
ATOM     12  N   LIG    1       24.147 -17.167   3.924  0.00  0.00    -0.077 NA
ATOM     13  N   LIG    1       25.107 -16.492   3.501  0.00  0.00    -0.113 NA
BRANCH  12  15
ATOM     14  C   LIG    1       25.568 -19.142   3.611  0.00  0.00    +0.153 C 
ATOM     15  N   LIG    1       24.254 -18.506   3.637  0.00  0.00    -0.243 N 
ATOM     16  C   LIG    1       23.148 -19.305   4.134  0.00  0.00    +0.153 C 
ENDBRANCH  12  15
ENDBRANCH   1  13
TORSDOF 3
ENDMDL
MODEL 8
REMARK VINA RESULT:      -2.9      3.268      6.210
REMARK  Name = *****
REMARK                            x       y       z     vdW  Elec       q    Type
REMARK                         _______ _______ _______ _____ _____    ______ ____
ROOT
ATOM      1  C   LIG    1       24.096 -18.626   3.975  0.00  0.00    +0.186 A 
ATOM      2  C   LIG    1       24.164 -19.857   4.611  0.00  0.00    +0.171 A 
ATOM      3  N   LIG    1       22.884 -20.340   4.883  0.00  0.00    -0.229 NA
ATOM      4  C   LIG    1       22.067 -19.411   4.443  0.00  0.00    +0.199 A 
ATOM      5  N   LIG    1       22.748 -18.362   3.902  0.00  0.00    -0.328 N 
ATOM      6  H   LIG    1       22.355 -17.524   3.500  0.00  0.00    +0.168 HD
ENDROOT
BRANCH   2   7
ATOM      7  C   LIG    1       25.380 -20.587   4.957  0.00  0.00    +0.264 C 
ATOM      8  O   LIG    1       25.429 -21.569   5.686  0.00  0.00    -0.269 OA
ATOM      9  N   LIG    1       26.512 -20.075   4.385  0.00  0.00    -0.324 N 
ATOM     10  H   LIG    1       27.397 -20.520   4.571  0.00  0.00    +0.145 HD
ATOM     11  H   LIG    1       26.447 -19.266   3.781  0.00  0.00    +0.145 HD
ENDBRANCH   2   7
BRANCH   1  13
ATOM     12  N   LIG    1       24.875 -16.568   3.790  0.00  0.00    -0.077 NA
ATOM     13  N   LIG    1       25.039 -17.772   3.509  0.00  0.00    -0.113 NA
BRANCH  12  15
ATOM     14  C   LIG    1       25.594 -14.324   3.109  0.00  0.00    +0.153 C 
ATOM     15  N   LIG    1       25.854 -15.751   3.278  0.00  0.00    -0.243 N 
ATOM     16  C   LIG    1       27.200 -16.132   3.664  0.00  0.00    +0.153 C 
ENDBRANCH  12  15
ENDBRANCH   1  13
TORSDOF 3
ENDMDL
MODEL 9
REMARK VINA RESULT:      -2.8      2.806      5.337
REMARK  Name = *****
REMARK                            x       y       z     vdW  Elec       q    Type
REMARK                         _______ _______ _______ _____ _____    ______ ____
ROOT
ATOM      1  C   LIG    1       24.875 -18.288   3.536  0.00  0.00    +0.186 A 
ATOM      2  C   LIG    1       23.935 -19.199   3.995  0.00  0.00    +0.171 A 
ATOM      3  N   LIG    1       24.301 -20.499   3.647  0.00  0.00    -0.229 NA
ATOM      4  C   LIG    1       25.421 -20.371   2.974  0.00  0.00    +0.199 A 
ATOM      5  N   LIG    1       25.797 -19.065   2.873  0.00  0.00    -0.328 N 
ATOM      6  H   LIG    1       26.614 -18.702   2.404  0.00  0.00    +0.168 HD
ENDROOT
BRANCH   2   7
ATOM      7  C   LIG    1       22.725 -18.888   4.749  0.00  0.00    +0.264 C 
ATOM      8  O   LIG    1       22.278 -19.556   5.672  0.00  0.00    -0.269 OA
ATOM      9  N   LIG    1       22.095 -17.746   4.335  0.00  0.00    -0.324 N 
ATOM     10  H   LIG    1       21.251 -17.457   4.803  0.00  0.00    +0.145 HD
ATOM     11  H   LIG    1       22.486 -17.206   3.573  0.00  0.00    +0.145 HD
ENDBRANCH   2   7
BRANCH   1  13
ATOM     12  N   LIG    1       26.060 -16.447   3.251  0.00  0.00    -0.077 NA
ATOM     13  N   LIG    1       24.977 -16.940   3.621  0.00  0.00    -0.113 NA
BRANCH  12  15
ATOM     14  C   LIG    1       26.795 -14.281   2.363  0.00  0.00    +0.153 C 
ATOM     15  N   LIG    1       26.108 -15.079   3.375  0.00  0.00    -0.243 N 
ATOM     16  C   LIG    1       24.918 -14.500   3.971  0.00  0.00    +0.153 C 
ENDBRANCH  12  15
ENDBRANCH   1  13
TORSDOF 3
ENDMDL
