MODEL 1
REMARK VINA RESULT:       8.8      0.000      0.000
REMARK  Name = *****
REMARK                            x       y       z     vdW  Elec       q    Type
REMARK                         _______ _______ _______ _____ _____    ______ ____
ROOT
ATOM      1  C   LIG    1       26.834 -20.322   5.536  0.00  0.00    +0.140 C 
ENDROOT
BRANCH   1   3
ATOM      2  C   LIG    1       24.334 -20.332   5.110  0.00  0.00    +0.238 C 
ATOM      3  N   LIG    1       25.454 -20.748   5.818  0.00  0.00    -0.184 N 
ATOM      4  O   LIG    1       24.381 -19.947   3.961  0.00  0.00    -0.274 OA
BRANCH   3   5
ATOM      5  O   LIG    1       25.282 -21.497   6.994  0.00  0.00    -0.292 OA
ATOM      6  H   LIG    1       26.210 -21.661   7.259  0.00  0.00    +0.242 HD
ENDBRANCH   3   5
BRANCH   2   7
ATOM      7  C   LIG    1       23.066 -20.212   5.969  0.00  0.00    +0.107 C 
BRANCH   7   8
ATOM      8  C   LIG    1       22.357 -18.890   5.805  0.00  0.00    +0.105 C 
BRANCH   8  11
ATOM      9  N   LIG    1       22.629 -17.007   4.073  0.00  0.00    -0.315 N 
ATOM     10  H   LIG    1       22.443 -16.885   3.083  0.00  0.00    +0.149 HD
ATOM     11  C   LIG    1       22.259 -18.260   4.423  0.00  0.00    +0.213 C 
ATOM     12  O   LIG    1       21.779 -18.939   3.511  0.00  0.00    -0.276 OA
BRANCH   9  13
ATOM     13  C   LIG    1       23.188 -15.848   4.755  0.00  0.00    +0.104 C 
BRANCH  13  14
ATOM     14  C   LIG    1       22.084 -14.985   5.401  0.00  0.00    +0.019 C 
BRANCH  14  15
ATOM     15  C   LIG    1       22.536 -14.079   6.567  0.00  0.00    +0.003 C 
BRANCH  15  16
ATOM     16  C   LIG    1       21.552 -12.960   6.920  0.00  0.00    +0.021 C 
BRANCH  16  17
ATOM     17  C   LIG    1       22.066 -11.539   6.626  0.00  0.00    +0.140 C 
BRANCH  17  20
ATOM     18  C   LIG    1       22.745 -11.483   3.721  0.00  0.00    +0.111 C 
ATOM     19  C   LIG    1       23.839 -11.483   4.761  0.00  0.00    +0.235 C 
ATOM     20  N   LIG    1       23.412 -11.451   6.074  0.00  0.00    -0.184 N 
ATOM     21  O   LIG    1       25.015 -11.499   4.430  0.00  0.00    -0.274 OA
BRANCH  20  22
ATOM     22  O   LIG    1       24.408 -11.635   7.060  0.00  0.00    -0.292 OA
ATOM     23  H   LIG    1       24.687 -12.559   6.906  0.00  0.00    +0.242 HD
ENDBRANCH  20  22
ENDBRANCH  17  20
ENDBRANCH  16  17
ENDBRANCH  15  16
ENDBRANCH  14  15
ENDBRANCH  13  14
ENDBRANCH   9  13
ENDBRANCH   8  11
ENDBRANCH   7   8
ENDBRANCH   2   7
ENDBRANCH   1   3
BRANCH   1  24
ATOM     24  C   LIG    1       27.931 -21.318   5.998  0.00  0.00    +0.021 C 
BRANCH  24  25
ATOM     25  C   LIG    1       28.877 -20.694   7.044  0.00  0.00    +0.003 C 
BRANCH  25  26
ATOM     26  C   LIG    1       29.209 -19.196   6.870  0.00  0.00    +0.019 C 
BRANCH  26  27
ATOM     27  C   LIG    1       29.398 -18.420   5.583  0.00  0.00    +0.104 C 
BRANCH  27  28
ATOM     28  N   LIG    1       28.513 -18.478   4.388  0.00  0.00    -0.315 N 
ATOM     29  H   LIG    1       28.538 -19.314   3.927  0.00  0.00    +0.149 HD
ATOM     30  C   LIG    1       27.356 -17.952   3.864  0.00  0.00    +0.213 C 
ATOM     31  O   LIG    1       26.829 -18.520   2.989  0.00  0.00    -0.276 OA
BRANCH  30  32
ATOM     32  C   LIG    1       26.765 -16.616   4.308  0.00  0.00    +0.105 C 
BRANCH  32  33
ATOM     33  C   LIG    1       26.506 -15.697   3.160  0.00  0.00    +0.107 C 
BRANCH  33  34
ATOM     34  C   LIG    1       26.872 -14.399   2.247  0.00  0.00    +0.238 C 
ATOM     35  N   LIG    1       25.825 -13.459   2.176  0.00  0.00    -0.184 N 
ATOM     36  O   LIG    1       28.022 -14.123   1.813  0.00  0.00    -0.274 OA
BRANCH  35  37
ATOM     37  O   LIG    1       24.603 -13.712   2.896  0.00  0.00    -0.292 OA
ATOM     38  H   LIG    1       24.063 -14.133   2.214  0.00  0.00    +0.242 HD
ENDBRANCH  35  37
BRANCH  35  39
ATOM     39  C   LIG    1       26.172 -12.032   2.253  0.00  0.00    +0.140 C 
BRANCH  39  40
ATOM     40  C   LIG    1       27.624 -11.720   2.623  0.00  0.00    +0.021 C 
BRANCH  40  41
ATOM     41  C   LIG    1       28.198 -12.009   4.044  0.00  0.00    +0.003 C 
BRANCH  41  42
ATOM     42  C   LIG    1       28.262 -13.424   4.635  0.00  0.00    +0.015 C 
BRANCH  42  43
ATOM     43  C   LIG    1       27.617 -13.460   5.977  0.00  0.00    +0.077 C 
BRANCH  43  44
ATOM     44  N   LIG    1       26.171 -13.527   5.866  0.00  0.00    -0.330 NA
ATOM     45  H   LIG    1       25.787 -12.614   5.608  0.00  0.00    +0.118 HD
ATOM     46  H   LIG    1       25.857 -14.182   5.149  0.00  0.00    +0.118 HD
ENDBRANCH  43  44
ENDBRANCH  42  43
ENDBRANCH  41  42
ENDBRANCH  40  41
ENDBRANCH  39  40
ENDBRANCH  35  39
ENDBRANCH  33  34
ENDBRANCH  32  33
ENDBRANCH  30  32
ENDBRANCH  27  28
ENDBRANCH  26  27
ENDBRANCH  25  26
ENDBRANCH  24  25
ENDBRANCH   1  24
TORSDOF 27
ENDMDL
MODEL 2
REMARK VINA RESULT:       9.1      1.848      5.853
REMARK  Name = *****
REMARK                            x       y       z     vdW  Elec       q    Type
REMARK                         _______ _______ _______ _____ _____    ______ ____
ROOT
ATOM      1  C   LIG    1       29.020 -17.305   4.734  0.00  0.00    +0.140 C 
ENDROOT
BRANCH   1   3
ATOM      2  C   LIG    1       26.708 -17.035   3.726  0.00  0.00    +0.238 C 
ATOM      3  N   LIG    1       27.930 -16.516   4.137  0.00  0.00    -0.184 N 
ATOM      4  O   LIG    1       26.230 -18.049   4.187  0.00  0.00    -0.274 OA
BRANCH   3   5
ATOM      5  O   LIG    1       28.248 -15.185   3.825  0.00  0.00    -0.292 OA
ATOM      6  H   LIG    1       28.850 -15.301   3.062  0.00  0.00    +0.242 HD
ENDBRANCH   3   5
BRANCH   2   7
ATOM      7  C   LIG    1       26.113 -16.324   2.502  0.00  0.00    +0.107 C 
BRANCH   7   8
ATOM      8  C   LIG    1       26.934 -15.146   2.037  0.00  0.00    +0.105 C 
BRANCH   8  11
ATOM      9  N   LIG    1       26.952 -12.588   2.308  0.00  0.00    -0.315 N 
ATOM     10  H   LIG    1       26.274 -11.835   2.237  0.00  0.00    +0.149 HD
ATOM     11  C   LIG    1       26.319 -13.755   2.048  0.00  0.00    +0.213 C 
ATOM     12  O   LIG    1       25.111 -13.655   1.814  0.00  0.00    -0.276 OA
BRANCH   9  13
ATOM     13  C   LIG    1       28.304 -12.185   2.665  0.00  0.00    +0.104 C 
BRANCH  13  14
ATOM     14  C   LIG    1       28.867 -13.046   3.815  0.00  0.00    +0.019 C 
BRANCH  14  15
ATOM     15  C   LIG    1       29.110 -12.307   5.150  0.00  0.00    +0.003 C 
BRANCH  15  16
ATOM     16  C   LIG    1       27.880 -12.213   6.057  0.00  0.00    +0.021 C 
BRANCH  16  17
ATOM     17  C   LIG    1       27.175 -13.556   6.321  0.00  0.00    +0.140 C 
BRANCH  17  20
ATOM     18  C   LIG    1       25.724 -11.456   4.778  0.00  0.00    +0.111 C 
ATOM     19  C   LIG    1       25.058 -12.775   5.084  0.00  0.00    +0.235 C 
ATOM     20  N   LIG    1       25.840 -13.696   5.753  0.00  0.00    -0.184 N 
ATOM     21  O   LIG    1       23.905 -12.987   4.739  0.00  0.00    -0.274 OA
BRANCH  20  22
ATOM     22  O   LIG    1       25.183 -14.861   6.209  0.00  0.00    -0.292 OA
ATOM     23  H   LIG    1       25.130 -14.708   7.172  0.00  0.00    +0.242 HD
ENDBRANCH  20  22
ENDBRANCH  17  20
ENDBRANCH  16  17
ENDBRANCH  15  16
ENDBRANCH  14  15
ENDBRANCH  13  14
ENDBRANCH   9  13
ENDBRANCH   8  11
ENDBRANCH   7   8
ENDBRANCH   2   7
ENDBRANCH   1   3
BRANCH   1  24
ATOM     24  C   LIG    1       28.584 -18.666   5.339  0.00  0.00    +0.021 C 
BRANCH  24  25
ATOM     25  C   LIG    1       29.469 -19.079   6.533  0.00  0.00    +0.003 C 
BRANCH  25  26
ATOM     26  C   LIG    1       29.309 -20.528   7.042  0.00  0.00    +0.019 C 
BRANCH  26  27
ATOM     27  C   LIG    1       28.128 -21.461   6.865  0.00  0.00    +0.104 C 
BRANCH  27  28
ATOM     28  N   LIG    1       27.051 -21.325   5.846  0.00  0.00    -0.315 N 
ATOM     29  H   LIG    1       27.355 -21.419   4.946  0.00  0.00    +0.149 HD
ATOM     30  C   LIG    1       25.700 -21.497   5.662  0.00  0.00    +0.213 C 
ATOM     31  O   LIG    1       25.289 -21.566   4.570  0.00  0.00    -0.276 OA
BRANCH  30  32
ATOM     32  C   LIG    1       24.693 -21.520   6.809  0.00  0.00    +0.105 C 
BRANCH  32  33
ATOM     33  C   LIG    1       23.279 -21.458   6.327  0.00  0.00    +0.107 C 
BRANCH  33  34
ATOM     34  C   LIG    1       22.126 -20.896   5.325  0.00  0.00    +0.238 C 
ATOM     35  N   LIG    1       21.970 -19.498   5.390  0.00  0.00    -0.184 N 
ATOM     36  O   LIG    1       21.563 -21.570   4.422  0.00  0.00    -0.274 OA
BRANCH  35  37
ATOM     37  O   LIG    1       22.814 -18.736   6.275  0.00  0.00    -0.292 OA
ATOM     38  H   LIG    1       22.830 -19.301   7.059  0.00  0.00    +0.242 HD
ENDBRANCH  35  37
BRANCH  35  39
ATOM     39  C   LIG    1       21.766 -18.766   4.131  0.00  0.00    +0.140 C 
BRANCH  39  40
ATOM     40  C   LIG    1       20.816 -17.568   4.207  0.00  0.00    +0.021 C 
BRANCH  40  41
ATOM     41  C   LIG    1       21.225 -16.227   4.890  0.00  0.00    +0.003 C 
BRANCH  41  42
ATOM     42  C   LIG    1       22.692 -15.815   5.084  0.00  0.00    +0.015 C 
BRANCH  42  43
ATOM     43  C   LIG    1       23.331 -15.523   3.771  0.00  0.00    +0.077 C 
BRANCH  43  44
ATOM     44  N   LIG    1       22.562 -14.549   3.016  0.00  0.00    -0.330 NA
ATOM     45  H   LIG    1       21.615 -14.468   3.393  0.00  0.00    +0.118 HD
ATOM     46  H   LIG    1       22.965 -13.612   3.049  0.00  0.00    +0.118 HD
ENDBRANCH  43  44
ENDBRANCH  42  43
ENDBRANCH  41  42
ENDBRANCH  40  41
ENDBRANCH  39  40
ENDBRANCH  35  39
ENDBRANCH  33  34
ENDBRANCH  32  33
ENDBRANCH  30  32
ENDBRANCH  27  28
ENDBRANCH  26  27
ENDBRANCH  25  26
ENDBRANCH  24  25
ENDBRANCH   1  24
TORSDOF 27
ENDMDL
MODEL 3
REMARK VINA RESULT:      10.2      1.676      6.210
REMARK  Name = *****
REMARK                            x       y       z     vdW  Elec       q    Type
REMARK                         _______ _______ _______ _____ _____    ______ ____
ROOT
ATOM      1  C   LIG    1       21.946 -16.224   4.351  0.00  0.00    +0.140 C 
ENDROOT
BRANCH   1   3
ATOM      2  C   LIG    1       22.097 -18.522   5.415  0.00  0.00    +0.238 C 
ATOM      3  N   LIG    1       21.668 -17.668   4.407  0.00  0.00    -0.184 N 
ATOM      4  O   LIG    1       22.351 -18.144   6.539  0.00  0.00    -0.274 OA
BRANCH   3   5
ATOM      5  O   LIG    1       21.067 -18.212   3.260  0.00  0.00    -0.292 OA
ATOM      6  H   LIG    1       20.685 -19.040   3.613  0.00  0.00    +0.242 HD
ENDBRANCH   3   5
BRANCH   2   7
ATOM      7  C   LIG    1       22.413 -19.944   4.932  0.00  0.00    +0.107 C 
BRANCH   7   8
ATOM      8  C   LIG    1       23.456 -20.643   5.771  0.00  0.00    +0.105 C 
BRANCH   8  11
ATOM      9  N   LIG    1       25.926 -21.361   5.714  0.00  0.00    -0.315 N 
ATOM     10  H   LIG    1       26.580 -21.692   5.013  0.00  0.00    +0.149 HD
ATOM     11  C   LIG    1       24.734 -21.141   5.113  0.00  0.00    +0.213 C 
ATOM     12  O   LIG    1       24.711 -21.361   3.899  0.00  0.00    -0.276 OA
BRANCH   9  13
ATOM     13  C   LIG    1       26.463 -21.222   7.060  0.00  0.00    +0.104 C 
BRANCH  13  14
ATOM     14  C   LIG    1       27.990 -21.001   7.040  0.00  0.00    +0.019 C 
BRANCH  14  15
ATOM     15  C   LIG    1       28.590 -20.581   5.680  0.00  0.00    +0.003 C 
BRANCH  15  16
ATOM     16  C   LIG    1       29.173 -19.165   5.653  0.00  0.00    +0.021 C 
BRANCH  16  17
ATOM     17  C   LIG    1       28.340 -18.145   4.856  0.00  0.00    +0.140 C 
BRANCH  17  20
ATOM     18  C   LIG    1       26.343 -16.549   3.319  0.00  0.00    +0.111 C 
ATOM     19  C   LIG    1       26.240 -18.054   3.371  0.00  0.00    +0.235 C 
ATOM     20  N   LIG    1       27.249 -18.696   4.062  0.00  0.00    -0.184 N 
ATOM     21  O   LIG    1       25.319 -18.637   2.819  0.00  0.00    -0.274 OA
BRANCH  20  22
ATOM     22  O   LIG    1       27.076 -20.081   4.279  0.00  0.00    -0.292 OA
ATOM     23  H   LIG    1       27.457 -20.470   3.468  0.00  0.00    +0.242 HD
ENDBRANCH  20  22
ENDBRANCH  17  20
ENDBRANCH  16  17
ENDBRANCH  15  16
ENDBRANCH  14  15
ENDBRANCH  13  14
ENDBRANCH   9  13
ENDBRANCH   8  11
ENDBRANCH   7   8
ENDBRANCH   2   7
ENDBRANCH   1   3
BRANCH   1  24
ATOM     24  C   LIG    1       23.414 -15.831   4.667  0.00  0.00    +0.021 C 
BRANCH  24  25
ATOM     25  C   LIG    1       24.066 -15.045   3.511  0.00  0.00    +0.003 C 
BRANCH  25  26
ATOM     26  C   LIG    1       23.202 -13.952   2.846  0.00  0.00    +0.019 C 
BRANCH  26  27
ATOM     27  C   LIG    1       23.122 -12.479   3.191  0.00  0.00    +0.104 C 
BRANCH  27  28
ATOM     28  N   LIG    1       23.023 -11.906   4.561  0.00  0.00    -0.315 N 
ATOM     29  H   LIG    1       22.160 -11.997   4.958  0.00  0.00    +0.149 HD
ATOM     30  C   LIG    1       23.770 -11.624   5.679  0.00  0.00    +0.213 C 
ATOM     31  O   LIG    1       23.217 -11.447   6.693  0.00  0.00    -0.276 OA
BRANCH  30  32
ATOM     32  C   LIG    1       25.287 -11.447   5.652  0.00  0.00    +0.105 C 
BRANCH  32  33
ATOM     33  C   LIG    1       25.872 -11.744   4.310  0.00  0.00    +0.107 C 
BRANCH  33  34
ATOM     34  C   LIG    1       27.135 -11.895   3.294  0.00  0.00    +0.238 C 
ATOM     35  N   LIG    1       28.381 -11.816   3.946  0.00  0.00    -0.184 N 
ATOM     36  O   LIG    1       27.055 -12.258   2.090  0.00  0.00    -0.274 OA
BRANCH  35  37
ATOM     37  O   LIG    1       28.418 -11.638   5.375  0.00  0.00    -0.292 OA
ATOM     38  H   LIG    1       28.334 -12.550   5.684  0.00  0.00    +0.242 HD
ENDBRANCH  35  37
BRANCH  35  39
ATOM     39  C   LIG    1       29.443 -12.743   3.525  0.00  0.00    +0.140 C 
BRANCH  39  40
ATOM     40  C   LIG    1       29.116 -14.232   3.663  0.00  0.00    +0.021 C 
BRANCH  40  41
ATOM     41  C   LIG    1       27.924 -14.743   4.530  0.00  0.00    +0.003 C 
BRANCH  41  42
ATOM     42  C   LIG    1       28.010 -14.861   6.059  0.00  0.00    +0.015 C 
BRANCH  42  43
ATOM     43  C   LIG    1       27.201 -13.794   6.712  0.00  0.00    +0.077 C 
BRANCH  43  44
ATOM     44  N   LIG    1       25.781 -14.094   6.646  0.00  0.00    -0.330 NA
ATOM     45  H   LIG    1       25.252 -13.269   6.355  0.00  0.00    +0.118 HD
ATOM     46  H   LIG    1       25.561 -14.828   5.971  0.00  0.00    +0.118 HD
ENDBRANCH  43  44
ENDBRANCH  42  43
ENDBRANCH  41  42
ENDBRANCH  40  41
ENDBRANCH  39  40
ENDBRANCH  35  39
ENDBRANCH  33  34
ENDBRANCH  32  33
ENDBRANCH  30  32
ENDBRANCH  27  28
ENDBRANCH  26  27
ENDBRANCH  25  26
ENDBRANCH  24  25
ENDBRANCH   1  24
TORSDOF 27
ENDMDL
MODEL 4
REMARK VINA RESULT:      10.7      1.963      5.945
REMARK  Name = *****
REMARK                            x       y       z     vdW  Elec       q    Type
REMARK                         _______ _______ _______ _____ _____    ______ ____
ROOT
ATOM      1  C   LIG    1       21.348 -17.725   3.234  0.00  0.00    +0.140 C 
ENDROOT
BRANCH   1   3
ATOM      2  C   LIG    1       20.555 -20.083   3.728  0.00  0.00    +0.238 C 
ATOM      3  N   LIG    1       21.533 -19.182   3.327  0.00  0.00    -0.184 N 
ATOM      4  O   LIG    1       19.367 -19.861   3.625  0.00  0.00    -0.274 OA
BRANCH   3   5
ATOM      5  O   LIG    1       22.850 -19.636   3.150  0.00  0.00    -0.292 OA
ATOM      6  H   LIG    1       23.338 -19.074   3.786  0.00  0.00    +0.242 HD
ENDBRANCH   3   5
BRANCH   2   7
ATOM      7  C   LIG    1       21.104 -21.296   4.493  0.00  0.00    +0.107 C 
BRANCH   7   8
ATOM      8  C   LIG    1       22.573 -21.182   4.819  0.00  0.00    +0.105 C 
BRANCH   8  11
ATOM      9  N   LIG    1       24.038 -20.519   6.828  0.00  0.00    -0.315 N 
ATOM     10  H   LIG    1       24.083 -19.743   7.481  0.00  0.00    +0.149 HD
ATOM     11  C   LIG    1       23.017 -20.291   5.970  0.00  0.00    +0.213 C 
ATOM     12  O   LIG    1       22.383 -19.252   6.174  0.00  0.00    -0.276 OA
BRANCH   9  13
ATOM     13  C   LIG    1       25.023 -21.571   7.031  0.00  0.00    +0.104 C 
BRANCH  13  14
ATOM     14  C   LIG    1       26.369 -21.224   6.360  0.00  0.00    +0.019 C 
BRANCH  14  15
ATOM     15  C   LIG    1       27.206 -20.133   7.062  0.00  0.00    +0.003 C 
BRANCH  15  16
ATOM     16  C   LIG    1       28.378 -19.599   6.231  0.00  0.00    +0.021 C 
BRANCH  16  17
ATOM     17  C   LIG    1       28.155 -19.642   4.709  0.00  0.00    +0.140 C 
BRANCH  17  20
ATOM     18  C   LIG    1       25.295 -19.461   3.879  0.00  0.00    +0.111 C 
ATOM     19  C   LIG    1       26.231 -18.299   3.652  0.00  0.00    +0.235 C 
ATOM     20  N   LIG    1       27.517 -18.469   4.126  0.00  0.00    -0.184 N 
ATOM     21  O   LIG    1       25.843 -17.285   3.092  0.00  0.00    -0.274 OA
BRANCH  20  22
ATOM     22  O   LIG    1       28.454 -17.475   3.764  0.00  0.00    -0.292 OA
ATOM     23  H   LIG    1       28.633 -17.034   4.618  0.00  0.00    +0.242 HD
ENDBRANCH  20  22
ENDBRANCH  17  20
ENDBRANCH  16  17
ENDBRANCH  15  16
ENDBRANCH  14  15
ENDBRANCH  13  14
ENDBRANCH   9  13
ENDBRANCH   8  11
ENDBRANCH   7   8
ENDBRANCH   2   7
ENDBRANCH   1   3
BRANCH   1  24
ATOM     24  C   LIG    1       21.260 -16.992   4.599  0.00  0.00    +0.021 C 
BRANCH  24  25
ATOM     25  C   LIG    1       21.956 -15.616   4.564  0.00  0.00    +0.003 C 
BRANCH  25  26
ATOM     26  C   LIG    1       23.487 -15.622   4.366  0.00  0.00    +0.019 C 
BRANCH  26  27
ATOM     27  C   LIG    1       24.307 -14.840   3.360  0.00  0.00    +0.104 C 
BRANCH  27  28
ATOM     28  N   LIG    1       23.946 -13.520   2.774  0.00  0.00    -0.315 N 
ATOM     29  H   LIG    1       23.705 -13.558   1.852  0.00  0.00    +0.149 HD
ATOM     30  C   LIG    1       23.436 -12.287   3.102  0.00  0.00    +0.213 C 
ATOM     31  O   LIG    1       23.011 -11.611   2.249  0.00  0.00    -0.276 OA
BRANCH  30  32
ATOM     32  C   LIG    1       23.468 -11.715   4.518  0.00  0.00    +0.105 C 
BRANCH  32  33
ATOM     33  C   LIG    1       24.783 -11.935   5.192  0.00  0.00    +0.107 C 
BRANCH  33  34
ATOM     34  C   LIG    1       26.376 -12.271   5.160  0.00  0.00    +0.238 C 
ATOM     35  N   LIG    1       26.902 -12.335   3.855  0.00  0.00    -0.184 N 
ATOM     36  O   LIG    1       27.135 -12.269   6.165  0.00  0.00    -0.274 OA
BRANCH  35  37
ATOM     37  O   LIG    1       26.032 -12.089   2.733  0.00  0.00    -0.292 OA
ATOM     38  H   LIG    1       26.641 -11.679   2.104  0.00  0.00    +0.242 HD
ENDBRANCH  35  37
BRANCH  35  39
ATOM     39  C   LIG    1       28.223 -11.734   3.611  0.00  0.00    +0.140 C 
BRANCH  39  40
ATOM     40  C   LIG    1       29.423 -12.553   4.095  0.00  0.00    +0.021 C 
BRANCH  40  41
ATOM     41  C   LIG    1       29.408 -14.112   4.116  0.00  0.00    +0.003 C 
BRANCH  41  42
ATOM     42  C   LIG    1       28.109 -14.925   4.019  0.00  0.00    +0.015 C 
BRANCH  42  43
ATOM     43  C   LIG    1       27.096 -14.197   3.207  0.00  0.00    +0.077 C 
BRANCH  43  44
ATOM     44  N   LIG    1       27.148 -14.601   1.813  0.00  0.00    -0.330 NA
ATOM     45  H   LIG    1       26.380 -14.178   1.286  0.00  0.00    +0.118 HD
ATOM     46  H   LIG    1       28.009 -14.311   1.347  0.00  0.00    +0.118 HD
ENDBRANCH  43  44
ENDBRANCH  42  43
ENDBRANCH  41  42
ENDBRANCH  40  41
ENDBRANCH  39  40
ENDBRANCH  35  39
ENDBRANCH  33  34
ENDBRANCH  32  33
ENDBRANCH  30  32
ENDBRANCH  27  28
ENDBRANCH  26  27
ENDBRANCH  25  26
ENDBRANCH  24  25
ENDBRANCH   1  24
TORSDOF 27
ENDMDL
