MODEL 1
REMARK VINA RESULT:       3.4      0.000      0.000
REMARK  Name = *****
REMARK                            x       y       z     vdW  Elec       q    Type
REMARK                         _______ _______ _______ _____ _____    ______ ____
ROOT
ATOM      1  C   LIG    1       25.010 -19.720   5.058  0.00  0.00    +0.064 A 
ATOM      2  C   LIG    1       26.182 -19.025   4.673  0.00  0.00    +0.057 A 
ATOM      3  I   LIG    1       26.175 -17.603   3.075  0.00  0.00    -0.040 I 
ATOM      4  C   LIG    1       27.434 -19.277   5.289  0.00  0.00    +0.053 A 
ATOM      5  C   LIG    1       27.522 -20.340   6.202  0.00  0.00    +0.036 A 
ATOM      6  I   LIG    1       29.363 -20.891   7.061  0.00  0.00    -0.042 I 
ATOM      7  C   LIG    1       26.388 -21.055   6.583  0.00  0.00    +0.032 A 
ATOM      8  C   LIG    1       25.130 -20.685   6.084  0.00  0.00    +0.037 A 
ATOM      9  I   LIG    1       23.489 -21.566   7.062  0.00  0.00    -0.042 I 
ENDROOT
BRANCH   1  12
ATOM     10  C   LIG    1       24.787 -20.347   2.269  0.00  0.00    +0.110 C 
ATOM     11  C   LIG    1       23.587 -19.844   3.042  0.00  0.00    +0.217 C 
ATOM     12  N   LIG    1       23.764 -19.483   4.383  0.00  0.00    -0.269 N 
ATOM     13  O   LIG    1       22.504 -19.760   2.461  0.00  0.00    -0.276 OA
BRANCH  12  14
ATOM     14  C   LIG    1       22.611 -19.011   5.194  0.00  0.00    +0.128 C 
BRANCH  14  15
ATOM     15  C   LIG    1       21.921 -17.717   4.694  0.00  0.00    +0.112 C 
ATOM     16  C   LIG    1       22.855 -16.622   4.173  0.00  0.00    +0.021 C 
BRANCH  15  17
ATOM     17  C   LIG    1       20.890 -18.059   3.624  0.00  0.00    +0.309 C 
ATOM     18  O   LIG    1       20.618 -17.377   2.662  0.00  0.00    -0.251 OA
BRANCH  17  19
ATOM     19  O   LIG    1       20.240 -19.225   3.877  0.00  0.00    -0.480 OA
ATOM     20  H   LIG    1       19.934 -19.712   3.091  0.00  0.00    +0.295 HD
ENDBRANCH  17  19
ENDBRANCH  15  17
ENDBRANCH  14  15
ENDBRANCH  12  14
ENDBRANCH   1  12
BRANCH   4  21
ATOM     21  N   LIG    1       28.473 -18.328   5.217  0.00  0.00    -0.356 N 
ATOM     22  H   LIG    1       29.228 -18.454   5.885  0.00  0.00    +0.142 HD
ATOM     23  H   LIG    1       28.162 -17.365   5.117  0.00  0.00    +0.142 HD
ENDBRANCH   4  21
TORSDOF 6
ENDMDL
MODEL 2
REMARK VINA RESULT:       3.9      2.784      4.797
REMARK  Name = *****
REMARK                            x       y       z     vdW  Elec       q    Type
REMARK                         _______ _______ _______ _____ _____    ______ ____
ROOT
ATOM      1  C   LIG    1       24.760 -17.557   4.016  0.00  0.00    +0.064 A 
ATOM      2  C   LIG    1       25.886 -16.711   3.868  0.00  0.00    +0.057 A 
ATOM      3  I   LIG    1       27.884 -17.461   4.016  0.00  0.00    -0.040 I 
ATOM      4  C   LIG    1       25.748 -15.314   3.673  0.00  0.00    +0.053 A 
ATOM      5  C   LIG    1       24.464 -14.754   3.768  0.00  0.00    +0.036 A 
ATOM      6  I   LIG    1       24.168 -12.675   3.639  0.00  0.00    -0.042 I 
ATOM      7  C   LIG    1       23.341 -15.561   3.934  0.00  0.00    +0.032 A 
ATOM      8  C   LIG    1       23.482 -16.957   3.964  0.00  0.00    +0.037 A 
ATOM      9  I   LIG    1       21.685 -18.039   3.793  0.00  0.00    -0.042 I 
ENDROOT
BRANCH   1  12
ATOM     10  C   LIG    1       25.278 -19.316   1.812  0.00  0.00    +0.110 C 
ATOM     11  C   LIG    1       25.256 -19.847   3.229  0.00  0.00    +0.217 C 
ATOM     12  N   LIG    1       24.928 -18.963   4.264  0.00  0.00    -0.269 N 
ATOM     13  O   LIG    1       25.517 -21.035   3.419  0.00  0.00    -0.276 OA
BRANCH  12  14
ATOM     14  C   LIG    1       24.921 -19.426   5.677  0.00  0.00    +0.128 C 
BRANCH  14  15
ATOM     15  C   LIG    1       24.722 -20.947   5.885  0.00  0.00    +0.112 C 
ATOM     16  C   LIG    1       25.483 -21.565   7.061  0.00  0.00    +0.021 C 
BRANCH  15  17
ATOM     17  C   LIG    1       23.235 -21.262   6.020  0.00  0.00    +0.309 C 
ATOM     18  O   LIG    1       22.630 -21.378   7.062  0.00  0.00    -0.251 OA
BRANCH  17  19
ATOM     19  O   LIG    1       22.631 -21.457   4.819  0.00  0.00    -0.480 OA
ATOM     20  H   LIG    1       22.315 -22.364   4.653  0.00  0.00    +0.295 HD
ENDBRANCH  17  19
ENDBRANCH  15  17
ENDBRANCH  14  15
ENDBRANCH  12  14
ENDBRANCH   1  12
BRANCH   4  21
ATOM     21  N   LIG    1       26.802 -14.560   3.117  0.00  0.00    -0.356 N 
ATOM     22  H   LIG    1       27.063 -13.726   3.635  0.00  0.00    +0.142 HD
ATOM     23  H   LIG    1       26.742 -14.423   2.112  0.00  0.00    +0.142 HD
ENDBRANCH   4  21
TORSDOF 6
ENDMDL
MODEL 3
REMARK VINA RESULT:       4.8      5.002      6.905
REMARK  Name = *****
REMARK                            x       y       z     vdW  Elec       q    Type
REMARK                         _______ _______ _______ _____ _____    ______ ____
ROOT
ATOM      1  C   LIG    1       24.788 -15.017   4.048  0.00  0.00    +0.064 A 
ATOM      2  C   LIG    1       23.709 -15.779   4.559  0.00  0.00    +0.057 A 
ATOM      3  I   LIG    1       22.222 -14.914   5.830  0.00  0.00    -0.040 I 
ATOM      4  C   LIG    1       23.591 -17.168   4.302  0.00  0.00    +0.053 A 
ATOM      5  C   LIG    1       24.648 -17.813   3.640  0.00  0.00    +0.036 A 
ATOM      6  I   LIG    1       24.637 -19.896   3.339  0.00  0.00    -0.042 I 
ATOM      7  C   LIG    1       25.731 -17.091   3.145  0.00  0.00    +0.032 A 
ATOM      8  C   LIG    1       25.752 -15.693   3.268  0.00  0.00    +0.037 A 
ATOM      9  I   LIG    1       27.219 -14.719   2.115  0.00  0.00    -0.042 I 
ENDROOT
BRANCH   1  12
ATOM     10  C   LIG    1       23.625 -13.072   2.291  0.00  0.00    +0.110 C 
ATOM     11  C   LIG    1       24.297 -12.641   3.577  0.00  0.00    +0.217 C 
ATOM     12  N   LIG    1       24.913 -13.621   4.366  0.00  0.00    -0.269 N 
ATOM     13  O   LIG    1       24.287 -11.447   3.877  0.00  0.00    -0.276 OA
BRANCH  12  14
ATOM     14  C   LIG    1       25.561 -13.254   5.652  0.00  0.00    +0.128 C 
BRANCH  14  15
ATOM     15  C   LIG    1       27.083 -13.522   5.739  0.00  0.00    +0.112 C 
ATOM     16  C   LIG    1       27.540 -14.921   5.320  0.00  0.00    +0.021 C 
BRANCH  15  17
ATOM     17  C   LIG    1       27.842 -12.475   4.930  0.00  0.00    +0.309 C 
ATOM     18  O   LIG    1       27.646 -12.205   3.766  0.00  0.00    -0.251 OA
BRANCH  17  19
ATOM     19  O   LIG    1       28.831 -11.877   5.644  0.00  0.00    -0.480 OA
ATOM     20  H   LIG    1       29.731 -12.208   5.468  0.00  0.00    +0.295 HD
ENDBRANCH  17  19
ENDBRANCH  15  17
ENDBRANCH  14  15
ENDBRANCH  12  14
ENDBRANCH   1  12
BRANCH   4  21
ATOM     21  N   LIG    1       22.348 -17.819   4.438  0.00  0.00    -0.356 N 
ATOM     22  H   LIG    1       21.538 -17.208   4.490  0.00  0.00    +0.142 HD
ATOM     23  H   LIG    1       22.339 -18.580   5.112  0.00  0.00    +0.142 HD
ENDBRANCH   4  21
TORSDOF 6
ENDMDL
MODEL 4
REMARK VINA RESULT:       5.3      4.649      6.234
REMARK  Name = *****
REMARK                            x       y       z     vdW  Elec       q    Type
REMARK                         _______ _______ _______ _____ _____    ______ ____
ROOT
ATOM      1  C   LIG    1       24.043 -15.837   4.305  0.00  0.00    +0.064 A 
ATOM      2  C   LIG    1       24.843 -16.884   3.787  0.00  0.00    +0.057 A 
ATOM      3  I   LIG    1       26.675 -16.496   2.753  0.00  0.00    -0.040 I 
ATOM      4  C   LIG    1       24.442 -18.241   3.875  0.00  0.00    +0.053 A 
ATOM      5  C   LIG    1       23.157 -18.523   4.367  0.00  0.00    +0.036 A 
ATOM      6  I   LIG    1       22.411 -20.490   4.403  0.00  0.00    -0.042 I 
ATOM      7  C   LIG    1       22.341 -17.509   4.864  0.00  0.00    +0.032 A 
ATOM      8  C   LIG    1       22.820 -16.191   4.917  0.00  0.00    +0.037 A 
ATOM      9  I   LIG    1       21.657 -14.866   6.066  0.00  0.00    -0.042 I 
ENDROOT
BRANCH   1  12
ATOM     10  C   LIG    1       22.709 -14.185   2.379  0.00  0.00    +0.110 C 
ATOM     11  C   LIG    1       23.774 -13.603   3.283  0.00  0.00    +0.217 C 
ATOM     12  N   LIG    1       24.447 -14.465   4.157  0.00  0.00    -0.269 N 
ATOM     13  O   LIG    1       24.017 -12.398   3.210  0.00  0.00    -0.276 OA
BRANCH  12  14
ATOM     14  C   LIG    1       25.481 -13.939   5.086  0.00  0.00    +0.128 C 
BRANCH  14  15
ATOM     15  C   LIG    1       26.898 -13.763   4.488  0.00  0.00    +0.112 C 
ATOM     16  C   LIG    1       26.975 -12.986   3.171  0.00  0.00    +0.021 C 
BRANCH  15  17
ATOM     17  C   LIG    1       27.819 -13.114   5.516  0.00  0.00    +0.309 C 
ATOM     18  O   LIG    1       28.696 -12.317   5.274  0.00  0.00    -0.251 OA
BRANCH  17  19
ATOM     19  O   LIG    1       27.591 -13.563   6.778  0.00  0.00    -0.480 OA
ATOM     20  H   LIG    1       27.339 -14.502   6.848  0.00  0.00    +0.295 HD
ENDBRANCH  17  19
ENDBRANCH  15  17
ENDBRANCH  14  15
ENDBRANCH  12  14
ENDBRANCH   1  12
BRANCH   4  21
ATOM     21  N   LIG    1       25.389 -19.278   3.755  0.00  0.00    -0.356 N 
ATOM     22  H   LIG    1       25.043 -20.141   3.346  0.00  0.00    +0.142 HD
ATOM     23  H   LIG    1       25.978 -19.412   4.572  0.00  0.00    +0.142 HD
ENDBRANCH   4  21
TORSDOF 6
ENDMDL
MODEL 5
REMARK VINA RESULT:       5.4      5.003      6.565
REMARK  Name = *****
REMARK                            x       y       z     vdW  Elec       q    Type
REMARK                         _______ _______ _______ _____ _____    ______ ____
ROOT
ATOM      1  C   LIG    1       24.548 -14.913   4.148  0.00  0.00    +0.064 A 
ATOM      2  C   LIG    1       25.472 -15.757   3.485  0.00  0.00    +0.057 A 
ATOM      3  I   LIG    1       27.191 -14.975   2.480  0.00  0.00    -0.040 I 
ATOM      4  C   LIG    1       25.275 -17.159   3.402  0.00  0.00    +0.053 A 
ATOM      5  C   LIG    1       24.063 -17.687   3.874  0.00  0.00    +0.036 A 
ATOM      6  I   LIG    1       23.611 -19.732   3.667  0.00  0.00    -0.042 I 
ATOM      7  C   LIG    1       23.127 -16.876   4.512  0.00  0.00    +0.032 A 
ATOM      8  C   LIG    1       23.411 -15.519   4.728  0.00  0.00    +0.037 A 
ATOM      9  I   LIG    1       22.110 -14.537   6.059  0.00  0.00    -0.042 I 
ENDROOT
BRANCH   1  12
ATOM     10  C   LIG    1       23.703 -13.345   1.902  0.00  0.00    +0.110 C 
ATOM     11  C   LIG    1       24.279 -12.677   3.132  0.00  0.00    +0.217 C 
ATOM     12  N   LIG    1       24.744 -13.490   4.173  0.00  0.00    -0.269 N 
ATOM     13  O   LIG    1       24.328 -11.447   3.167  0.00  0.00    -0.276 OA
BRANCH  12  14
ATOM     14  C   LIG    1       25.292 -12.883   5.414  0.00  0.00    +0.128 C 
BRANCH  14  15
ATOM     15  C   LIG    1       26.783 -13.180   5.708  0.00  0.00    +0.112 C 
ATOM     16  C   LIG    1       27.184 -14.658   5.691  0.00  0.00    +0.021 C 
BRANCH  15  17
ATOM     17  C   LIG    1       27.668 -12.402   4.740  0.00  0.00    +0.309 C 
ATOM     18  O   LIG    1       27.469 -12.267   3.555  0.00  0.00    -0.251 OA
BRANCH  17  19
ATOM     19  O   LIG    1       28.773 -11.888   5.341  0.00  0.00    -0.480 OA
ATOM     20  H   LIG    1       29.339 -12.536   5.798  0.00  0.00    +0.295 HD
ENDBRANCH  17  19
ENDBRANCH  15  17
ENDBRANCH  14  15
ENDBRANCH  12  14
ENDBRANCH   1  12
BRANCH   4  21
ATOM     21  N   LIG    1       26.357 -18.020   3.133  0.00  0.00    -0.356 N 
ATOM     22  H   LIG    1       26.953 -18.236   3.927  0.00  0.00    +0.142 HD
ATOM     23  H   LIG    1       26.865 -17.809   2.277  0.00  0.00    +0.142 HD
ENDBRANCH   4  21
TORSDOF 6
ENDMDL
MODEL 6
REMARK VINA RESULT:       5.6      5.083      6.896
REMARK  Name = *****
REMARK                            x       y       z     vdW  Elec       q    Type
REMARK                         _______ _______ _______ _____ _____    ______ ____
ROOT
ATOM      1  C   LIG    1       24.883 -15.631   3.848  0.00  0.00    +0.064 A 
ATOM      2  C   LIG    1       25.125 -17.020   3.720  0.00  0.00    +0.057 A 
ATOM      3  I   LIG    1       27.035 -17.781   3.129  0.00  0.00    -0.040 I 
ATOM      4  C   LIG    1       24.098 -17.977   3.919  0.00  0.00    +0.053 A 
ATOM      5  C   LIG    1       22.787 -17.513   4.112  0.00  0.00    +0.036 A 
ATOM      6  I   LIG    1       21.169 -18.849   4.272  0.00  0.00    -0.042 I 
ATOM      7  C   LIG    1       22.517 -16.150   4.221  0.00  0.00    +0.032 A 
ATOM      8  C   LIG    1       23.571 -15.225   4.182  0.00  0.00    +0.037 A 
ATOM      9  I   LIG    1       23.066 -13.271   4.779  0.00  0.00    -0.042 I 
ENDROOT
BRANCH   1  12
ATOM     10  C   LIG    1       24.499 -13.648   1.814  0.00  0.00    +0.110 C 
ATOM     11  C   LIG    1       25.755 -13.648   2.659  0.00  0.00    +0.217 C 
ATOM     12  N   LIG    1       25.929 -14.679   3.590  0.00  0.00    -0.269 N 
ATOM     13  O   LIG    1       26.580 -12.750   2.490  0.00  0.00    -0.276 OA
BRANCH  12  14
ATOM     14  C   LIG    1       27.130 -14.709   4.465  0.00  0.00    +0.128 C 
BRANCH  14  15
ATOM     15  C   LIG    1       27.389 -13.430   5.298  0.00  0.00    +0.112 C 
ATOM     16  C   LIG    1       27.467 -13.626   6.814  0.00  0.00    +0.021 C 
BRANCH  15  17
ATOM     17  C   LIG    1       28.657 -12.739   4.807  0.00  0.00    +0.309 C 
ATOM     18  O   LIG    1       29.207 -11.807   5.348  0.00  0.00    -0.251 OA
BRANCH  17  19
ATOM     19  O   LIG    1       29.112 -13.253   3.635  0.00  0.00    -0.480 OA
ATOM     20  H   LIG    1       30.058 -13.487   3.621  0.00  0.00    +0.295 HD
ENDBRANCH  17  19
ENDBRANCH  15  17
ENDBRANCH  14  15
ENDBRANCH  12  14
ENDBRANCH   1  12
BRANCH   4  21
ATOM     21  N   LIG    1       24.414 -19.320   4.206  0.00  0.00    -0.356 N 
ATOM     22  H   LIG    1       24.574 -19.914   3.397  0.00  0.00    +0.142 HD
ATOM     23  H   LIG    1       23.841 -19.747   4.928  0.00  0.00    +0.142 HD
ENDBRANCH   4  21
TORSDOF 6
ENDMDL
MODEL 7
REMARK VINA RESULT:       5.7      3.310      5.464
REMARK  Name = *****
REMARK                            x       y       z     vdW  Elec       q    Type
REMARK                         _______ _______ _______ _____ _____    ______ ____
ROOT
ATOM      1  C   LIG    1       24.746 -17.731   3.952  0.00  0.00    +0.064 A 
ATOM      2  C   LIG    1       25.819 -16.828   3.755  0.00  0.00    +0.057 A 
ATOM      3  I   LIG    1       27.846 -17.498   3.633  0.00  0.00    -0.040 I 
ATOM      4  C   LIG    1       25.611 -15.427   3.686  0.00  0.00    +0.053 A 
ATOM      5  C   LIG    1       24.325 -14.933   3.959  0.00  0.00    +0.036 A 
ATOM      6  I   LIG    1       23.943 -12.865   4.026  0.00  0.00    -0.042 I 
ATOM      7  C   LIG    1       23.256 -15.798   4.178  0.00  0.00    +0.032 A 
ATOM      8  C   LIG    1       23.449 -17.185   4.082  0.00  0.00    +0.037 A 
ATOM      9  I   LIG    1       21.684 -18.329   4.015  0.00  0.00    -0.042 I 
ENDROOT
BRANCH   1  12
ATOM     10  C   LIG    1       22.868 -19.575   2.817  0.00  0.00    +0.110 C 
ATOM     11  C   LIG    1       24.139 -20.076   3.467  0.00  0.00    +0.217 C 
ATOM     12  N   LIG    1       24.989 -19.142   4.071  0.00  0.00    -0.269 N 
ATOM     13  O   LIG    1       24.374 -21.285   3.451  0.00  0.00    -0.276 OA
BRANCH  12  14
ATOM     14  C   LIG    1       26.264 -19.580   4.697  0.00  0.00    +0.128 C 
BRANCH  14  15
ATOM     15  C   LIG    1       26.174 -20.005   6.183  0.00  0.00    +0.112 C 
ATOM     16  C   LIG    1       25.132 -21.080   6.507  0.00  0.00    +0.021 C 
BRANCH  15  17
ATOM     17  C   LIG    1       27.543 -20.459   6.678  0.00  0.00    +0.309 C 
ATOM     18  O   LIG    1       27.822 -21.572   7.062  0.00  0.00    -0.251 OA
BRANCH  17  19
ATOM     19  O   LIG    1       28.453 -19.450   6.695  0.00  0.00    -0.480 OA
ATOM     20  H   LIG    1       28.246 -18.711   7.296  0.00  0.00    +0.295 HD
ENDBRANCH  17  19
ENDBRANCH  15  17
ENDBRANCH  14  15
ENDBRANCH  12  14
ENDBRANCH   1  12
BRANCH   4  21
ATOM     21  N   LIG    1       26.571 -14.589   3.085  0.00  0.00    -0.356 N 
ATOM     22  H   LIG    1       26.724 -14.741   2.092  0.00  0.00    +0.142 HD
ATOM     23  H   LIG    1       27.424 -14.465   3.623  0.00  0.00    +0.142 HD
ENDBRANCH   4  21
TORSDOF 6
ENDMDL
MODEL 8
REMARK VINA RESULT:       6.3      2.765      4.749
REMARK  Name = *****
REMARK                            x       y       z     vdW  Elec       q    Type
REMARK                         _______ _______ _______ _____ _____    ______ ____
ROOT
ATOM      1  C   LIG    1       26.452 -18.343   4.469  0.00  0.00    +0.064 A 
ATOM      2  C   LIG    1       25.371 -17.521   4.067  0.00  0.00    +0.057 A 
ATOM      3  I   LIG    1       23.377 -18.279   3.910  0.00  0.00    -0.040 I 
ATOM      4  C   LIG    1       25.564 -16.167   3.693  0.00  0.00    +0.053 A 
ATOM      5  C   LIG    1       26.880 -15.688   3.592  0.00  0.00    +0.036 A 
ATOM      6  I   LIG    1       27.282 -13.740   2.905  0.00  0.00    -0.042 I 
ATOM      7  C   LIG    1       27.963 -16.483   3.960  0.00  0.00    +0.032 A 
ATOM      8  C   LIG    1       27.741 -17.766   4.482  0.00  0.00    +0.037 A 
ATOM      9  I   LIG    1       29.419 -18.667   5.378  0.00  0.00    -0.042 I 
ENDROOT
BRANCH   1  12
ATOM     10  C   LIG    1       27.778 -19.468   6.748  0.00  0.00    +0.110 C 
ATOM     11  C   LIG    1       26.804 -20.298   5.939  0.00  0.00    +0.217 C 
ATOM     12  N   LIG    1       26.237 -19.727   4.794  0.00  0.00    -0.269 N 
ATOM     13  O   LIG    1       26.555 -21.445   6.311  0.00  0.00    -0.276 OA
BRANCH  12  14
ATOM     14  C   LIG    1       25.253 -20.489   3.981  0.00  0.00    +0.128 C 
BRANCH  14  15
ATOM     15  C   LIG    1       24.231 -21.335   4.780  0.00  0.00    +0.112 C 
ATOM     16  C   LIG    1       23.901 -20.830   6.187  0.00  0.00    +0.021 C 
BRANCH  15  17
ATOM     17  C   LIG    1       22.943 -21.487   3.978  0.00  0.00    +0.309 C 
ATOM     18  O   LIG    1       21.829 -21.570   4.442  0.00  0.00    -0.251 OA
BRANCH  17  19
ATOM     19  O   LIG    1       23.167 -21.572   2.641  0.00  0.00    -0.480 OA
ATOM     20  H   LIG    1       23.575 -22.403   2.338  0.00  0.00    +0.295 HD
ENDBRANCH  17  19
ENDBRANCH  15  17
ENDBRANCH  14  15
ENDBRANCH  12  14
ENDBRANCH   1  12
BRANCH   4  21
ATOM     21  N   LIG    1       24.487 -15.259   3.707  0.00  0.00    -0.356 N 
ATOM     22  H   LIG    1       24.518 -14.533   2.997  0.00  0.00    +0.142 HD
ATOM     23  H   LIG    1       24.224 -14.925   4.631  0.00  0.00    +0.142 HD
ENDBRANCH   4  21
TORSDOF 6
ENDMDL
