MODEL 1
REMARK VINA RESULT:      -5.3      0.000      0.000
REMARK  Name = *****
REMARK                            x       y       z     vdW  Elec       q    Type
REMARK                         _______ _______ _______ _____ _____    ______ ____
ROOT
ATOM      1  C   LIG    1       25.215 -18.276   3.685  0.00  0.00    -0.014 A 
ATOM      2  C   LIG    1       25.759 -19.438   4.258  0.00  0.00    +0.055 A 
ATOM      3  C   LIG    1       24.920 -20.433   4.740  0.00  0.00    +0.159 A 
ATOM      4  C   LIG    1       23.541 -20.286   4.699  0.00  0.00    +0.158 A 
ATOM      5  C   LIG    1       22.974 -19.130   4.184  0.00  0.00    +0.049 A 
ATOM      6  C   LIG    1       23.814 -18.127   3.685  0.00  0.00    +0.010 A 
ENDROOT
BRANCH   3   7
ATOM      7  O   LIG    1       25.478 -21.572   5.246  0.00  0.00    -0.503 OA
ATOM      8  H   LIG    1       25.559 -21.395   6.206  0.00  0.00    +0.292 HD
ENDBRANCH   3   7
BRANCH   4   9
ATOM      9  O   LIG    1       22.778 -21.315   5.181  0.00  0.00    -0.503 OA
ATOM     10  H   LIG    1       22.103 -21.525   4.514  0.00  0.00    +0.292 HD
ENDBRANCH   4   9
BRANCH   1  11
ATOM     11  C   LIG    1       26.106 -17.186   3.112  0.00  0.00    +0.158 C 
BRANCH  11  12
ATOM     12  O   LIG    1       27.415 -17.300   3.689  0.00  0.00    -0.386 OA
ATOM     13  H   LIG    1       27.703 -18.206   3.459  0.00  0.00    +0.210 HD
ENDBRANCH  11  12
BRANCH  11  14
ATOM     14  C   LIG    1       25.625 -15.723   3.328  0.00  0.00    +0.117 C 
BRANCH  14  15
ATOM     15  N   LIG    1       26.481 -14.752   2.611  0.00  0.00    -0.311 NA
ATOM     16  H   LIG    1       27.347 -15.223   2.334  0.00  0.00    +0.122 HD
BRANCH  15  18
ATOM     17  C   LIG    1       26.098 -13.699   4.775  0.00  0.00    +0.024 C 
ATOM     18  C   LIG    1       26.836 -13.587   3.438  0.00  0.00    +0.048 C 
ATOM     19  C   LIG    1       28.342 -13.490   3.687  0.00  0.00    +0.024 C 
ENDBRANCH  15  18
ENDBRANCH  14  15
ENDBRANCH  11  14
ENDBRANCH   1  11
TORSDOF 7
ENDMDL
MODEL 2
REMARK VINA RESULT:      -5.2      1.088      1.903
REMARK  Name = *****
REMARK                            x       y       z     vdW  Elec       q    Type
REMARK                         _______ _______ _______ _____ _____    ______ ____
ROOT
ATOM      1  C   LIG    1       25.178 -18.838   3.862  0.00  0.00    -0.014 A 
ATOM      2  C   LIG    1       23.793 -18.607   3.847  0.00  0.00    +0.055 A 
ATOM      3  C   LIG    1       22.928 -19.534   4.413  0.00  0.00    +0.159 A 
ATOM      4  C   LIG    1       23.407 -20.712   4.967  0.00  0.00    +0.158 A 
ATOM      5  C   LIG    1       24.766 -20.992   4.954  0.00  0.00    +0.049 A 
ATOM      6  C   LIG    1       25.645 -20.055   4.396  0.00  0.00    +0.010 A 
ENDROOT
BRANCH   3   7
ATOM      7  O   LIG    1       21.591 -19.259   4.426  0.00  0.00    -0.503 OA
ATOM      8  H   LIG    1       21.414 -18.873   3.544  0.00  0.00    +0.292 HD
ENDBRANCH   3   7
BRANCH   4   9
ATOM      9  O   LIG    1       22.496 -21.571   5.518  0.00  0.00    -0.503 OA
ATOM     10  H   LIG    1       22.396 -22.328   4.917  0.00  0.00    +0.292 HD
ENDBRANCH   4   9
BRANCH   1  11
ATOM     11  C   LIG    1       26.154 -17.824   3.287  0.00  0.00    +0.158 C 
BRANCH  11  12
ATOM     12  O   LIG    1       27.373 -17.868   4.043  0.00  0.00    -0.386 OA
ATOM     13  H   LIG    1       27.432 -16.984   4.459  0.00  0.00    +0.210 HD
ENDBRANCH  11  12
BRANCH  11  14
ATOM     14  C   LIG    1       25.671 -16.346   3.262  0.00  0.00    +0.117 C 
BRANCH  14  15
ATOM     15  N   LIG    1       26.808 -15.398   3.254  0.00  0.00    -0.311 NA
ATOM     16  H   LIG    1       27.509 -15.724   3.924  0.00  0.00    +0.122 HD
BRANCH  15  18
ATOM     17  C   LIG    1       24.899 -14.016   3.875  0.00  0.00    +0.024 C 
ATOM     18  C   LIG    1       26.410 -14.032   3.632  0.00  0.00    +0.048 C 
ATOM     19  C   LIG    1       27.139 -13.542   4.885  0.00  0.00    +0.024 C 
ENDBRANCH  15  18
ENDBRANCH  14  15
ENDBRANCH  11  14
ENDBRANCH   1  11
TORSDOF 7
ENDMDL
MODEL 3
REMARK VINA RESULT:      -4.6      3.613      5.297
REMARK  Name = *****
REMARK                            x       y       z     vdW  Elec       q    Type
REMARK                         _______ _______ _______ _____ _____    ______ ____
ROOT
ATOM      1  C   LIG    1       25.296 -20.901   5.169  0.00  0.00    -0.014 A 
ATOM      2  C   LIG    1       26.156 -19.912   4.663  0.00  0.00    +0.055 A 
ATOM      3  C   LIG    1       27.349 -19.630   5.314  0.00  0.00    +0.159 A 
ATOM      4  C   LIG    1       27.697 -20.288   6.485  0.00  0.00    +0.158 A 
ATOM      5  C   LIG    1       26.847 -21.235   7.035  0.00  0.00    +0.049 A 
ATOM      6  C   LIG    1       25.647 -21.534   6.378  0.00  0.00    +0.010 A 
ENDROOT
BRANCH   3   7
ATOM      7  O   LIG    1       28.187 -18.698   4.771  0.00  0.00    -0.503 OA
ATOM      8  H   LIG    1       29.012 -18.783   5.291  0.00  0.00    +0.292 HD
ENDBRANCH   3   7
BRANCH   4   9
ATOM      9  O   LIG    1       28.895 -19.966   7.062  0.00  0.00    -0.503 OA
ATOM     10  H   LIG    1       28.778 -19.134   7.550  0.00  0.00    +0.292 HD
ENDBRANCH   4   9
BRANCH   1  11
ATOM     11  C   LIG    1       24.002 -21.262   4.458  0.00  0.00    +0.158 C 
BRANCH  11  12
ATOM     12  O   LIG    1       24.017 -20.690   3.141  0.00  0.00    -0.386 OA
ATOM     13  H   LIG    1       23.417 -19.920   3.205  0.00  0.00    +0.210 HD
ENDBRANCH  11  12
BRANCH  11  14
ATOM     14  C   LIG    1       22.688 -20.803   5.152  0.00  0.00    +0.117 C 
BRANCH  14  15
ATOM     15  N   LIG    1       22.730 -19.368   5.511  0.00  0.00    -0.311 NA
ATOM     16  H   LIG    1       22.041 -19.196   6.250  0.00  0.00    +0.122 HD
BRANCH  15  18
ATOM     17  C   LIG    1       21.074 -18.930   3.778  0.00  0.00    +0.024 C 
ATOM     18  C   LIG    1       22.413 -18.489   4.374  0.00  0.00    +0.048 C 
ATOM     19  C   LIG    1       22.336 -17.017   4.783  0.00  0.00    +0.024 C 
ENDBRANCH  15  18
ENDBRANCH  14  15
ENDBRANCH  11  14
ENDBRANCH   1  11
TORSDOF 7
ENDMDL
MODEL 4
REMARK VINA RESULT:      -4.4      2.758      6.247
REMARK  Name = *****
REMARK                            x       y       z     vdW  Elec       q    Type
REMARK                         _______ _______ _______ _____ _____    ______ ____
ROOT
ATOM      1  C   LIG    1       26.228 -15.496   3.486  0.00  0.00    -0.014 A 
ATOM      2  C   LIG    1       24.903 -15.032   3.496  0.00  0.00    +0.055 A 
ATOM      3  C   LIG    1       24.613 -13.750   3.049  0.00  0.00    +0.159 A 
ATOM      4  C   LIG    1       25.620 -12.898   2.619  0.00  0.00    +0.158 A 
ATOM      5  C   LIG    1       26.944 -13.311   2.642  0.00  0.00    +0.049 A 
ATOM      6  C   LIG    1       27.243 -14.607   3.080  0.00  0.00    +0.010 A 
ENDROOT
BRANCH   3   7
ATOM      7  O   LIG    1       23.309 -13.344   3.026  0.00  0.00    -0.503 OA
ATOM      8  H   LIG    1       22.844 -13.988   3.599  0.00  0.00    +0.292 HD
ENDBRANCH   3   7
BRANCH   4   9
ATOM      9  O   LIG    1       25.255 -11.655   2.180  0.00  0.00    -0.503 OA
ATOM     10  H   LIG    1       24.825 -11.191   2.918  0.00  0.00    +0.292 HD
ENDBRANCH   4   9
BRANCH   1  11
ATOM     11  C   LIG    1       26.574 -16.908   3.931  0.00  0.00    +0.158 C 
BRANCH  11  12
ATOM     12  O   LIG    1       27.980 -17.127   3.743  0.00  0.00    -0.386 OA
ATOM     13  H   LIG    1       28.098 -17.119   2.772  0.00  0.00    +0.210 HD
ENDBRANCH  11  12
BRANCH  11  14
ATOM     14  C   LIG    1       25.820 -18.059   3.205  0.00  0.00    +0.117 C 
BRANCH  14  15
ATOM     15  N   LIG    1       25.974 -19.348   3.916  0.00  0.00    -0.311 NA
ATOM     16  H   LIG    1       26.593 -19.952   3.367  0.00  0.00    +0.122 HD
BRANCH  15  18
ATOM     17  C   LIG    1       24.655 -20.621   5.522  0.00  0.00    +0.024 C 
ATOM     18  C   LIG    1       24.694 -20.051   4.102  0.00  0.00    +0.048 C 
ATOM     19  C   LIG    1       23.491 -19.132   3.882  0.00  0.00    +0.024 C 
ENDBRANCH  15  18
ENDBRANCH  14  15
ENDBRANCH  11  14
ENDBRANCH   1  11
TORSDOF 7
ENDMDL
MODEL 5
REMARK VINA RESULT:      -4.4      2.796      6.116
REMARK  Name = *****
REMARK                            x       y       z     vdW  Elec       q    Type
REMARK                         _______ _______ _______ _____ _____    ______ ____
ROOT
ATOM      1  C   LIG    1       25.631 -15.570   3.560  0.00  0.00    -0.014 A 
ATOM      2  C   LIG    1       26.352 -14.553   2.913  0.00  0.00    +0.055 A 
ATOM      3  C   LIG    1       25.789 -13.294   2.757  0.00  0.00    +0.159 A 
ATOM      4  C   LIG    1       24.503 -13.026   3.202  0.00  0.00    +0.158 A 
ATOM      5  C   LIG    1       23.747 -14.023   3.802  0.00  0.00    +0.049 A 
ATOM      6  C   LIG    1       24.313 -15.293   3.973  0.00  0.00    +0.010 A 
ENDROOT
BRANCH   3   7
ATOM      7  O   LIG    1       26.533 -12.312   2.168  0.00  0.00    -0.503 OA
ATOM      8  H   LIG    1       27.179 -12.797   1.614  0.00  0.00    +0.292 HD
ENDBRANCH   3   7
BRANCH   4   9
ATOM      9  O   LIG    1       24.021 -11.758   3.026  0.00  0.00    -0.503 OA
ATOM     10  H   LIG    1       23.089 -11.751   3.302  0.00  0.00    +0.292 HD
ENDBRANCH   4   9
BRANCH   1  11
ATOM     11  C   LIG    1       26.235 -16.948   3.781  0.00  0.00    +0.158 C 
BRANCH  11  12
ATOM     12  O   LIG    1       27.594 -16.942   3.321  0.00  0.00    -0.386 OA
ATOM     13  H   LIG    1       28.127 -16.929   4.142  0.00  0.00    +0.210 HD
ENDBRANCH  11  12
BRANCH  11  14
ATOM     14  C   LIG    1       25.509 -18.134   3.084  0.00  0.00    +0.117 C 
BRANCH  14  15
ATOM     15  N   LIG    1       25.761 -19.416   3.779  0.00  0.00    -0.311 NA
ATOM     16  H   LIG    1       26.277 -20.034   3.147  0.00  0.00    +0.122 HD
BRANCH  15  18
ATOM     17  C   LIG    1       24.681 -20.596   5.618  0.00  0.00    +0.024 C 
ATOM     18  C   LIG    1       24.520 -20.099   4.179  0.00  0.00    +0.048 C 
ATOM     19  C   LIG    1       23.298 -19.183   4.084  0.00  0.00    +0.024 C 
ENDBRANCH  15  18
ENDBRANCH  14  15
ENDBRANCH  11  14
ENDBRANCH   1  11
TORSDOF 7
ENDMDL
MODEL 6
REMARK VINA RESULT:      -4.3      2.726      6.535
REMARK  Name = *****
REMARK                            x       y       z     vdW  Elec       q    Type
REMARK                         _______ _______ _______ _____ _____    ______ ____
ROOT
ATOM      1  C   LIG    1       26.269 -14.819   3.869  0.00  0.00    -0.014 A 
ATOM      2  C   LIG    1       27.458 -14.464   3.211  0.00  0.00    +0.055 A 
ATOM      3  C   LIG    1       28.301 -13.511   3.766  0.00  0.00    +0.159 A 
ATOM      4  C   LIG    1       27.972 -12.871   4.952  0.00  0.00    +0.158 A 
ATOM      5  C   LIG    1       26.782 -13.165   5.601  0.00  0.00    +0.049 A 
ATOM      6  C   LIG    1       25.933 -14.134   5.053  0.00  0.00    +0.010 A 
ENDROOT
BRANCH   3   7
ATOM      7  O   LIG    1       29.473 -13.221   3.128  0.00  0.00    -0.503 OA
ATOM      8  H   LIG    1       30.161 -13.353   3.813  0.00  0.00    +0.292 HD
ENDBRANCH   3   7
BRANCH   4   9
ATOM      9  O   LIG    1       28.859 -11.953   5.446  0.00  0.00    -0.503 OA
ATOM     10  H   LIG    1       28.389 -11.108   5.547  0.00  0.00    +0.292 HD
ENDBRANCH   4   9
BRANCH   1  11
ATOM     11  C   LIG    1       25.345 -15.888   3.307  0.00  0.00    +0.158 C 
BRANCH  11  12
ATOM     12  O   LIG    1       24.085 -15.822   3.990  0.00  0.00    -0.386 OA
ATOM     13  H   LIG    1       23.900 -16.747   4.248  0.00  0.00    +0.210 HD
ENDBRANCH  11  12
BRANCH  11  14
ATOM     14  C   LIG    1       25.854 -17.354   3.405  0.00  0.00    +0.117 C 
BRANCH  14  15
ATOM     15  N   LIG    1       24.737 -18.324   3.388  0.00  0.00    -0.311 NA
ATOM     16  H   LIG    1       23.994 -17.979   4.002  0.00  0.00    +0.122 HD
BRANCH  15  18
ATOM     17  C   LIG    1       26.464 -19.532   4.612  0.00  0.00    +0.024 C 
ATOM     18  C   LIG    1       25.138 -19.661   3.858  0.00  0.00    +0.048 C 
ATOM     19  C   LIG    1       24.086 -20.294   4.770  0.00  0.00    +0.024 C 
ENDBRANCH  15  18
ENDBRANCH  14  15
ENDBRANCH  11  14
ENDBRANCH   1  11
TORSDOF 7
ENDMDL
MODEL 7
REMARK VINA RESULT:      -4.1      2.792      6.086
REMARK  Name = *****
REMARK                            x       y       z     vdW  Elec       q    Type
REMARK                         _______ _______ _______ _____ _____    ______ ____
ROOT
ATOM      1  C   LIG    1       25.256 -17.257   3.538  0.00  0.00    -0.014 A 
ATOM      2  C   LIG    1       24.320 -16.248   3.820  0.00  0.00    +0.055 A 
ATOM      3  C   LIG    1       24.728 -14.923   3.892  0.00  0.00    +0.159 A 
ATOM      4  C   LIG    1       26.061 -14.576   3.722  0.00  0.00    +0.158 A 
ATOM      5  C   LIG    1       27.016 -15.555   3.490  0.00  0.00    +0.049 A 
ATOM      6  C   LIG    1       26.610 -16.892   3.405  0.00  0.00    +0.010 A 
ENDROOT
BRANCH   3   7
ATOM      7  O   LIG    1       23.788 -13.960   4.120  0.00  0.00    -0.503 OA
ATOM      8  H   LIG    1       23.706 -13.927   5.095  0.00  0.00    +0.292 HD
ENDBRANCH   3   7
BRANCH   4   9
ATOM      9  O   LIG    1       26.385 -13.249   3.793  0.00  0.00    -0.503 OA
ATOM     10  H   LIG    1       26.589 -12.942   2.894  0.00  0.00    +0.292 HD
ENDBRANCH   4   9
BRANCH   1  11
ATOM     11  C   LIG    1       24.834 -18.713   3.413  0.00  0.00    +0.158 C 
BRANCH  11  12
ATOM     12  O   LIG    1       23.438 -18.824   3.728  0.00  0.00    -0.386 OA
ATOM     13  H   LIG    1       23.422 -19.242   4.612  0.00  0.00    +0.210 HD
ENDBRANCH  11  12
BRANCH  11  14
ATOM     14  C   LIG    1       25.598 -19.727   4.311  0.00  0.00    +0.117 C 
BRANCH  14  15
ATOM     15  N   LIG    1       24.772 -20.914   4.623  0.00  0.00    -0.311 NA
ATOM     16  H   LIG    1       23.814 -20.737   4.307  0.00  0.00    +0.122 HD
BRANCH  15  18
ATOM     17  C   LIG    1       25.947 -20.564   6.729  0.00  0.00    +0.024 C 
ATOM     18  C   LIG    1       24.733 -21.217   6.063  0.00  0.00    +0.048 C 
ATOM     19  C   LIG    1       23.449 -20.715   6.726  0.00  0.00    +0.024 C 
ENDBRANCH  15  18
ENDBRANCH  14  15
ENDBRANCH  11  14
ENDBRANCH   1  11
TORSDOF 7
ENDMDL
MODEL 8
REMARK VINA RESULT:      -4.0      2.663      5.838
REMARK  Name = *****
REMARK                            x       y       z     vdW  Elec       q    Type
REMARK                         _______ _______ _______ _____ _____    ______ ____
ROOT
ATOM      1  C   LIG    1       24.556 -17.375   3.683  0.00  0.00    -0.014 A 
ATOM      2  C   LIG    1       25.754 -16.787   3.245  0.00  0.00    +0.055 A 
ATOM      3  C   LIG    1       25.937 -15.416   3.359  0.00  0.00    +0.159 A 
ATOM      4  C   LIG    1       24.937 -14.602   3.870  0.00  0.00    +0.158 A 
ATOM      5  C   LIG    1       23.724 -15.146   4.266  0.00  0.00    +0.049 A 
ATOM      6  C   LIG    1       23.537 -16.530   4.165  0.00  0.00    +0.010 A 
ENDROOT
BRANCH   3   7
ATOM      7  O   LIG    1       27.132 -14.880   2.970  0.00  0.00    -0.503 OA
ATOM      8  H   LIG    1       27.114 -14.935   1.993  0.00  0.00    +0.292 HD
ENDBRANCH   3   7
BRANCH   4   9
ATOM      9  O   LIG    1       25.196 -13.261   3.965  0.00  0.00    -0.503 OA
ATOM     10  H   LIG    1       24.581 -12.796   3.373  0.00  0.00    +0.292 HD
ENDBRANCH   4   9
BRANCH   1  11
ATOM     11  C   LIG    1       24.340 -18.878   3.608  0.00  0.00    +0.158 C 
BRANCH  11  12
ATOM     12  O   LIG    1       23.133 -19.212   4.308  0.00  0.00    -0.386 OA
ATOM     13  H   LIG    1       22.505 -18.503   4.061  0.00  0.00    +0.210 HD
ENDBRANCH  11  12
BRANCH  11  14
ATOM     14  C   LIG    1       25.479 -19.763   4.191  0.00  0.00    +0.117 C 
BRANCH  14  15
ATOM     15  N   LIG    1       24.965 -21.059   4.689  0.00  0.00    -0.311 NA
ATOM     16  H   LIG    1       23.943 -21.050   4.627  0.00  0.00    +0.122 HD
BRANCH  15  18
ATOM     17  C   LIG    1       26.570 -20.471   6.427  0.00  0.00    +0.024 C 
ATOM     18  C   LIG    1       25.339 -21.317   6.089  0.00  0.00    +0.048 C 
ATOM     19  C   LIG    1       24.205 -20.989   7.062  0.00  0.00    +0.024 C 
ENDBRANCH  15  18
ENDBRANCH  14  15
ENDBRANCH  11  14
ENDBRANCH   1  11
TORSDOF 7
ENDMDL
MODEL 9
REMARK VINA RESULT:      -4.0      1.763      2.525
REMARK  Name = *****
REMARK                            x       y       z     vdW  Elec       q    Type
REMARK                         _______ _______ _______ _____ _____    ______ ____
ROOT
ATOM      1  C   LIG    1       26.671 -17.249   3.681  0.00  0.00    -0.014 A 
ATOM      2  C   LIG    1       27.516 -18.110   4.400  0.00  0.00    +0.055 A 
ATOM      3  C   LIG    1       27.099 -19.399   4.704  0.00  0.00    +0.159 A 
ATOM      4  C   LIG    1       25.839 -19.847   4.338  0.00  0.00    +0.158 A 
ATOM      5  C   LIG    1       24.963 -19.005   3.668  0.00  0.00    +0.049 A 
ATOM      6  C   LIG    1       25.381 -17.708   3.348  0.00  0.00    +0.010 A 
ENDROOT
BRANCH   3   7
ATOM      7  O   LIG    1       27.962 -20.228   5.362  0.00  0.00    -0.503 OA
ATOM      8  H   LIG    1       27.379 -20.845   5.851  0.00  0.00    +0.292 HD
ENDBRANCH   3   7
BRANCH   4   9
ATOM      9  O   LIG    1       25.503 -21.134   4.660  0.00  0.00    -0.503 OA
ATOM     10  H   LIG    1       26.251 -21.706   4.422  0.00  0.00    +0.292 HD
ENDBRANCH   4   9
BRANCH   1  11
ATOM     11  C   LIG    1       27.114 -15.846   3.297  0.00  0.00    +0.158 C 
BRANCH  11  12
ATOM     12  O   LIG    1       27.971 -15.329   4.325  0.00  0.00    -0.386 OA
ATOM     13  H   LIG    1       28.634 -14.795   3.842  0.00  0.00    +0.210 HD
ENDBRANCH  11  12
BRANCH  11  14
ATOM     14  C   LIG    1       25.978 -14.808   3.068  0.00  0.00    +0.117 C 
BRANCH  14  15
ATOM     15  N   LIG    1       25.774 -13.949   4.256  0.00  0.00    -0.311 NA
ATOM     16  H   LIG    1       26.044 -14.477   5.091  0.00  0.00    +0.122 HD
BRANCH  15  18
ATOM     17  C   LIG    1       24.038 -12.537   3.290  0.00  0.00    +0.024 C 
ATOM     18  C   LIG    1       24.374 -13.521   4.414  0.00  0.00    +0.048 C 
ATOM     19  C   LIG    1       23.401 -14.700   4.376  0.00  0.00    +0.024 C 
ENDBRANCH  15  18
ENDBRANCH  14  15
ENDBRANCH  11  14
ENDBRANCH   1  11
TORSDOF 7
ENDMDL
