MODEL 1
REMARK VINA RESULT:       8.3      0.000      0.000
REMARK  Name = *****
REMARK                            x       y       z     vdW  Elec       q    Type
REMARK                         _______ _______ _______ _____ _____    ______ ____
ROOT
ATOM      1  C   LIG    1       26.004 -30.132   8.763  0.00  0.00    +0.150 C 
ATOM      2  C   LIG    1       25.021 -31.399   8.775  0.00  0.00    +0.060 C 
ATOM      3  C   LIG    1       25.861 -32.636   9.205  0.00  0.00    +0.014 C 
ATOM      4  C   LIG    1       24.171 -31.805   7.503  0.00  0.00    +0.187 C 
ATOM      5  C   LIG    1       23.253 -33.114   7.771  0.00  0.00    +0.056 C 
ATOM      6  C   LIG    1       22.949 -33.824   6.458  0.00  0.00    +0.014 C 
ATOM      7  C   LIG    1       22.043 -32.822   8.737  0.00  0.00    +0.126 C 
ATOM      8  C   LIG    1       20.519 -33.254   8.580  0.00  0.00    +0.044 C 
ATOM      9  C   LIG    1       19.998 -33.690   7.213  0.00  0.00    +0.013 C 
ATOM     10  C   LIG    1       19.599 -32.098   9.152  0.00  0.00    +0.126 C 
ATOM     11  C   LIG    1       18.664 -32.361  10.398  0.00  0.00    +0.037 C 
ATOM     12  C   LIG    1       18.621 -33.777  10.951  0.00  0.00    +0.014 C 
ATOM     13  C   LIG    1       19.035 -31.304  11.435  0.00  0.00    -0.021 C 
ATOM     14  C   LIG    1       20.200 -31.356  12.114  0.00  0.00    -0.003 C 
ATOM     15  C   LIG    1       21.058 -30.192  11.982  0.00  0.00    +0.008 C 
ATOM     16  C   LIG    1       22.391 -30.074  12.160  0.00  0.00    +0.011 C 
ATOM     17  C   LIG    1       22.995 -29.125  11.164  0.00  0.00    +0.049 C 
ATOM     18  C   LIG    1       23.226 -30.986  13.018  0.00  0.00    +0.244 C 
ATOM     19  O   LIG    1       22.777 -32.078  13.385  0.00  0.00    -0.270 OA
ATOM     20  N   LIG    1       24.515 -30.752  13.427  0.00  0.00    -0.278 N 
ATOM     21  H   LIG    1       24.879 -31.627  13.780  0.00  0.00    +0.155 HD
ATOM     22  C   LIG    1       25.442 -29.688  13.343  0.00  0.00    +0.089 A 
ATOM     23  C   LIG    1       27.182 -30.171  13.127  0.00  0.00    +0.150 A 
ATOM     24  C   LIG    1       28.455 -28.982  12.581  0.00  0.00    +0.071 A 
ATOM     25  C   LIG    1       27.944 -27.211  12.457  0.00  0.00    +0.046 A 
ATOM     26  C   LIG    1       26.176 -26.753  12.592  0.00  0.00    +0.136 A 
ATOM     27  C   LIG    1       28.683 -26.485  13.313  0.00  0.00    +0.079 A 
ATOM     28  C   LIG    1       27.683 -26.544  14.382  0.00  0.00    +0.251 C 
ATOM     29  C   LIG    1       27.147 -28.032  14.205  0.00  0.00    +0.314 C 
ATOM     30  O   LIG    1       28.706 -28.289  14.745  0.00  0.00    -0.444 OA
ATOM     31  C   LIG    1       26.384 -28.498  15.495  0.00  0.00    +0.114 C 
ATOM     32  O   LIG    1       26.621 -28.574  12.368  0.00  0.00    -0.453 OA
ATOM     33  C   LIG    1       26.603 -28.632  10.886  0.00  0.00    +0.190 C 
ATOM     34  O   LIG    1       27.403 -25.697  15.184  0.00  0.00    -0.284 OA
ATOM     35  C   LIG    1       29.687 -27.269  13.884  0.00  0.00    +0.143 A 
ATOM     36  C   LIG    1       30.510 -28.209  13.192  0.00  0.00    +0.034 A 
ATOM     37  C   LIG    1       31.980 -28.224  13.442  0.00  0.00    +0.051 C 
ATOM     38  C   LIG    1       29.812 -29.228  12.604  0.00  0.00    +0.135 A 
ATOM     39  C   LIG    1       24.974 -27.965  13.130  0.00  0.00    +0.061 A 
ATOM     40  C   LIG    1       26.315 -29.776  10.230  0.00  0.00    +0.042 C 
ENDROOT
BRANCH   1  42
ATOM     41  C   LIG    1       26.265 -27.843   8.099  0.00  0.00    +0.194 C 
ATOM     42  O   LIG    1       25.452 -29.018   8.063  0.00  0.00    -0.375 OA
ENDBRANCH   1  42
BRANCH   7  43
ATOM     43  O   LIG    1       22.451 -33.346  10.032  0.00  0.00    -0.391 OA
ATOM     44  H   LIG    1       21.729 -33.190  10.668  0.00  0.00    +0.210 HD
ENDBRANCH   7  43
BRANCH  10  45
ATOM     45  O   LIG    1       18.819 -31.475   8.112  0.00  0.00    -0.391 OA
ATOM     46  H   LIG    1       18.150 -30.909   8.530  0.00  0.00    +0.210 HD
ENDBRANCH  10  45
BRANCH  26  47
ATOM     47  O   LIG    1       25.865 -25.418  12.550  0.00  0.00    -0.505 OA
ATOM     48  H   LIG    1       25.004 -25.304  13.015  0.00  0.00    +0.292 HD
ENDBRANCH  26  47
BRANCH  38  49
ATOM     49  O   LIG    1       30.362 -30.444  12.401  0.00  0.00    -0.506 OA
ATOM     50  H   LIG    1       31.025 -30.574  13.105  0.00  0.00    +0.292 HD
ENDBRANCH  38  49
BRANCH  23  51
ATOM     51  O   LIG    1       27.589 -31.475  13.244  0.00  0.00    -0.504 OA
ATOM     52  H   LIG    1       28.275 -31.521  13.927  0.00  0.00    +0.292 HD
ENDBRANCH  23  51
BRANCH  39  53
ATOM     53  C   LIG    1       23.689 -27.467  13.634  0.00  0.00    +0.143 C 
ATOM     54  N   LIG    1       22.988 -26.641  12.924  0.00  0.00    -0.192 NA
BRANCH  54  55
ATOM     55  N   LIG    1       21.796 -26.323  13.512  0.00  0.00    -0.253 N 
ATOM     56  C   LIG    1       21.612 -26.925  14.855  0.00  0.00    +0.141 C 
ATOM     57  C   LIG    1       20.228 -26.696  15.484  0.00  0.00    +0.104 C 
ATOM     58  N   LIG    1       19.103 -27.103  14.628  0.00  0.00    -0.302 NA
ATOM     59  C   LIG    1       19.074 -28.554  14.427  0.00  0.00    +0.105 C 
ATOM     60  C   LIG    1       19.237 -26.389  13.345  0.00  0.00    +0.104 C 
ATOM     61  C   LIG    1       20.609 -26.554  12.651  0.00  0.00    +0.141 C 
ENDBRANCH  54  55
ENDBRANCH  39  53
BRANCH   4  62
ATOM     62  O   LIG    1       23.270 -30.751   7.084  0.00  0.00    -0.461 OA
BRANCH  62  63
ATOM     63  C   LIG    1       23.527 -30.134   5.889  0.00  0.00    +0.304 C 
ATOM     64  O   LIG    1       22.932 -29.171   5.439  0.00  0.00    -0.251 OA
ATOM     65  C   LIG    1       24.749 -30.740   5.252  0.00  0.00    +0.136 C 
ENDBRANCH  62  63
ENDBRANCH   4  62
TORSDOF 10
ENDMDL
