MODEL 1
REMARK VINA RESULT:      -2.6      0.000      0.000
REMARK  Name = *****
REMARK                            x       y       z     vdW  Elec       q    Type
REMARK                         _______ _______ _______ _____ _____    ______ ____
ROOT
ATOM      1  C   LIG    1       29.095 -20.889   5.161  0.00  0.00    +0.105 C 
ATOM      2  N   LIG    1       28.638 -19.673   5.833  0.00  0.00    -0.301 NA
ATOM      3  C   LIG    1       27.847 -18.816   4.922  0.00  0.00    +0.116 C 
ATOM      4  C   LIG    1       26.411 -19.216   4.814  0.00  0.00    -0.040 C 
ATOM      5  C   LIG    1       25.480 -18.723   3.725  0.00  0.00    +0.077 C 
ATOM      6  C   LIG    1       24.209 -19.453   4.109  0.00  0.00    -0.029 A 
ATOM      7  C   LIG    1       24.436 -20.242   5.251  0.00  0.00    -0.018 A 
ATOM      8  C   LIG    1       23.425 -21.014   5.794  0.00  0.00    +0.008 A 
ATOM      9  C   LIG    1       22.172 -20.993   5.177  0.00  0.00    +0.001 A 
ATOM     10  C   LIG    1       21.946 -20.208   4.032  0.00  0.00    +0.000 A 
ATOM     11  C   LIG    1       22.970 -19.430   3.488  0.00  0.00    +0.005 A 
ATOM     12  C   LIG    1       25.816 -20.065   5.669  0.00  0.00    -0.037 C 
ATOM     13  C   LIG    1       26.507 -20.671   6.835  0.00  0.00    +0.051 C 
ATOM     14  C   LIG    1       27.874 -19.985   7.062  0.00  0.00    +0.089 C 
ENDROOT
BRANCH   5  15
ATOM     15  C   LIG    1       25.356 -17.212   3.666  0.00  0.00    -0.036 A 
ATOM     16  C   LIG    1       24.166 -16.553   4.020  0.00  0.00    +0.004 A 
ATOM     17  C   LIG    1       24.083 -15.160   3.972  0.00  0.00    +0.000 A 
ATOM     18  C   LIG    1       25.186 -14.407   3.577  0.00  0.00    +0.000 A 
ATOM     19  C   LIG    1       26.373 -15.046   3.228  0.00  0.00    +0.000 A 
ATOM     20  C   LIG    1       26.459 -16.439   3.274  0.00  0.00    +0.004 A 
ENDBRANCH   5  15
TORSDOF 1
ENDMDL
MODEL 2
REMARK VINA RESULT:      -1.9      1.816      5.455
REMARK  Name = *****
REMARK                            x       y       z     vdW  Elec       q    Type
REMARK                         _______ _______ _______ _____ _____    ______ ____
ROOT
ATOM      1  C   LIG    1       22.409 -19.901   2.671  0.00  0.00    +0.105 C 
ATOM      2  N   LIG    1       22.952 -19.874   4.028  0.00  0.00    -0.301 NA
ATOM      3  C   LIG    1       24.423 -19.713   4.020  0.00  0.00    +0.116 C 
ATOM      4  C   LIG    1       24.872 -18.294   3.885  0.00  0.00    -0.040 C 
ATOM      5  C   LIG    1       26.288 -17.890   3.528  0.00  0.00    +0.077 C 
ATOM      6  C   LIG    1       26.142 -16.381   3.521  0.00  0.00    -0.029 A 
ATOM      7  C   LIG    1       24.816 -16.028   3.828  0.00  0.00    -0.018 A 
ATOM      8  C   LIG    1       24.428 -14.701   3.876  0.00  0.00    +0.008 A 
ATOM      9  C   LIG    1       25.387 -13.720   3.609  0.00  0.00    +0.001 A 
ATOM     10  C   LIG    1       26.711 -14.074   3.298  0.00  0.00    +0.000 A 
ATOM     11  C   LIG    1       27.098 -15.415   3.250  0.00  0.00    +0.005 A 
ATOM     12  C   LIG    1       24.053 -17.242   4.056  0.00  0.00    -0.037 C 
ATOM     13  C   LIG    1       22.623 -17.370   4.433  0.00  0.00    +0.051 C 
ATOM     14  C   LIG    1       22.310 -18.826   4.852  0.00  0.00    +0.089 C 
ENDROOT
BRANCH   5  15
ATOM     15  C   LIG    1       27.336 -18.426   4.483  0.00  0.00    -0.036 A 
ATOM     16  C   LIG    1       28.532 -17.732   4.737  0.00  0.00    +0.004 A 
ATOM     17  C   LIG    1       29.473 -18.240   5.633  0.00  0.00    +0.000 A 
ATOM     18  C   LIG    1       29.233 -19.442   6.294  0.00  0.00    +0.000 A 
ATOM     19  C   LIG    1       28.050 -20.139   6.058  0.00  0.00    +0.000 A 
ATOM     20  C   LIG    1       27.107 -19.634   5.160  0.00  0.00    +0.004 A 
ENDBRANCH   5  15
TORSDOF 1
ENDMDL
MODEL 3
REMARK VINA RESULT:      -1.6      2.100      5.726
REMARK  Name = *****
REMARK                            x       y       z     vdW  Elec       q    Type
REMARK                         _______ _______ _______ _____ _____    ______ ____
ROOT
ATOM      1  C   LIG    1       21.447 -18.541   2.888  0.00  0.00    +0.105 C 
ATOM      2  N   LIG    1       22.111 -18.680   4.183  0.00  0.00    -0.301 NA
ATOM      3  C   LIG    1       23.576 -18.825   4.028  0.00  0.00    +0.116 C 
ATOM      4  C   LIG    1       24.296 -17.524   3.873  0.00  0.00    -0.040 C 
ATOM      5  C   LIG    1       25.724 -17.407   3.381  0.00  0.00    +0.077 C 
ATOM      6  C   LIG    1       25.896 -15.902   3.417  0.00  0.00    -0.029 A 
ATOM      7  C   LIG    1       24.709 -15.295   3.864  0.00  0.00    -0.018 A 
ATOM      8  C   LIG    1       24.613 -13.919   3.976  0.00  0.00    +0.008 A 
ATOM      9  C   LIG    1       25.725 -13.147   3.630  0.00  0.00    +0.001 A 
ATOM     10  C   LIG    1       26.911 -13.754   3.179  0.00  0.00    +0.000 A 
ATOM     11  C   LIG    1       27.003 -15.143   3.067  0.00  0.00    +0.005 A 
ATOM     12  C   LIG    1       23.735 -16.334   4.146  0.00  0.00    -0.037 C 
ATOM     13  C   LIG    1       22.352 -16.180   4.665  0.00  0.00    +0.051 C 
ATOM     14  C   LIG    1       21.784 -17.555   5.087  0.00  0.00    +0.089 C 
ENDROOT
BRANCH   5  15
ATOM     15  C   LIG    1       26.724 -18.184   4.214  0.00  0.00    -0.036 A 
ATOM     16  C   LIG    1       26.443 -19.475   4.695  0.00  0.00    +0.004 A 
ATOM     17  C   LIG    1       27.387 -20.176   5.447  0.00  0.00    +0.000 A 
ATOM     18  C   LIG    1       28.626 -19.602   5.724  0.00  0.00    +0.000 A 
ATOM     19  C   LIG    1       28.921 -18.326   5.251  0.00  0.00    +0.000 A 
ATOM     20  C   LIG    1       27.977 -17.622   4.499  0.00  0.00    +0.004 A 
ENDBRANCH   5  15
TORSDOF 1
ENDMDL
MODEL 4
REMARK VINA RESULT:      -0.4      1.990      5.261
REMARK  Name = *****
REMARK                            x       y       z     vdW  Elec       q    Type
REMARK                         _______ _______ _______ _____ _____    ______ ____
ROOT
ATOM      1  C   LIG    1       26.918 -14.082   1.818  0.00  0.00    +0.105 C 
ATOM      2  N   LIG    1       25.985 -14.250   2.932  0.00  0.00    -0.301 NA
ATOM      3  C   LIG    1       25.413 -15.616   2.958  0.00  0.00    +0.116 C 
ATOM      4  C   LIG    1       26.290 -16.623   3.628  0.00  0.00    -0.040 C 
ATOM      5  C   LIG    1       26.098 -18.120   3.505  0.00  0.00    +0.077 C 
ATOM      6  C   LIG    1       27.253 -18.609   4.356  0.00  0.00    -0.029 A 
ATOM      7  C   LIG    1       27.973 -17.512   4.861  0.00  0.00    -0.018 A 
ATOM      8  C   LIG    1       29.084 -17.700   5.663  0.00  0.00    +0.008 A 
ATOM      9  C   LIG    1       29.474 -19.009   5.958  0.00  0.00    +0.001 A 
ATOM     10  C   LIG    1       28.757 -20.106   5.450  0.00  0.00    +0.000 A 
ATOM     11  C   LIG    1       27.636 -19.911   4.639  0.00  0.00    +0.005 A 
ATOM     12  C   LIG    1       27.343 -16.289   4.394  0.00  0.00    -0.037 C 
ATOM     13  C   LIG    1       27.730 -14.887   4.690  0.00  0.00    +0.051 C 
ATOM     14  C   LIG    1       26.617 -13.917   4.227  0.00  0.00    +0.089 C 
ENDROOT
BRANCH   5  15
ATOM     15  C   LIG    1       24.730 -18.599   3.950  0.00  0.00    -0.036 A 
ATOM     16  C   LIG    1       23.623 -17.735   4.002  0.00  0.00    +0.004 A 
ATOM     17  C   LIG    1       22.370 -18.204   4.400  0.00  0.00    +0.000 A 
ATOM     18  C   LIG    1       22.203 -19.543   4.745  0.00  0.00    +0.000 A 
ATOM     19  C   LIG    1       23.289 -20.414   4.694  0.00  0.00    +0.000 A 
ATOM     20  C   LIG    1       24.544 -19.946   4.297  0.00  0.00    +0.004 A 
ENDBRANCH   5  15
TORSDOF 1
ENDMDL
