MODEL 1
REMARK VINA RESULT:     -10.5      0.000      0.000
REMARK  Name = *****
REMARK                            x       y       z     vdW  Elec       q    Type
REMARK                         _______ _______ _______ _____ _____    ______ ____
ROOT
ATOM      1  C   LIG    1       26.476 -20.885   6.258  0.00  0.00    +0.323 C 
ATOM      2  C   LIG    1       25.374 -20.354   5.388  0.00  0.00    +0.087 A 
ATOM      3  C   LIG    1       24.026 -20.653   5.612  0.00  0.00    +0.046 A 
ATOM      4  C   LIG    1       23.055 -19.982   4.842  0.00  0.00    +0.024 A 
ATOM      5  C   LIG    1       23.418 -19.068   3.850  0.00  0.00    +0.002 A 
ATOM      6  C   LIG    1       24.760 -18.808   3.607  0.00  0.00    +0.001 A 
ATOM      7  N   LIG    1       23.590 -21.634   6.526  0.00  0.00    -0.310 N 
ATOM      8  H   LIG    1       22.581 -21.678   6.603  0.00  0.00    +0.152 HD
ATOM      9  C   LIG    1       24.190 -22.915   6.592  0.00  0.00    +0.083 A 
ATOM     10  C   LIG    1       25.585 -23.106   6.581  0.00  0.00    +0.199 A 
ATOM     11  C   LIG    1       26.093 -24.413   6.570  0.00  0.00    +0.077 A 
ATOM     12  C   LIG    1       25.243 -25.515   6.564  0.00  0.00    +0.045 A 
ATOM     13  C   LIG    1       23.866 -25.335   6.589  0.00  0.00    +0.022 A 
ATOM     14 CL   LIG    1       25.897 -27.106   6.548  0.00  0.00    -0.083 Cl
ATOM     15  C   LIG    1       23.344 -24.042   6.606  0.00  0.00    +0.029 A 
ATOM     16  C   LIG    1       25.734 -19.445   4.374  0.00  0.00    +0.018 A 
ATOM     17  N   LIG    1       26.541 -22.095   6.738  0.00  0.00    -0.040 NA
ENDROOT
BRANCH   1  22
ATOM     18  C   LIG    1       31.184 -19.551   7.112  0.00  0.00    +0.105 C 
ATOM     19  N   LIG    1       30.082 -18.591   7.148  0.00  0.00    -0.298 NA
ATOM     20  C   LIG    1       29.394 -18.507   5.840  0.00  0.00    +0.127 C 
ATOM     21  C   LIG    1       28.508 -19.720   5.478  0.00  0.00    +0.241 C 
ATOM     22  N   LIG    1       27.533 -20.008   6.554  0.00  0.00    -0.218 N 
ATOM     23  C   LIG    1       28.197 -20.161   7.869  0.00  0.00    +0.241 C 
ATOM     24  C   LIG    1       29.090 -18.940   8.187  0.00  0.00    +0.127 C 
ENDBRANCH   1  22
TORSDOF 1
ENDMDL
MODEL 2
REMARK VINA RESULT:      -9.5      2.406      5.919
REMARK  Name = *****
REMARK                            x       y       z     vdW  Elec       q    Type
REMARK                         _______ _______ _______ _____ _____    ______ ____
ROOT
ATOM      1  C   LIG    1       25.939 -21.831   6.399  0.00  0.00    +0.323 C 
ATOM      2  C   LIG    1       25.154 -20.804   5.636  0.00  0.00    +0.087 A 
ATOM      3  C   LIG    1       25.741 -19.956   4.690  0.00  0.00    +0.046 A 
ATOM      4  C   LIG    1       24.899 -19.138   3.912  0.00  0.00    +0.024 A 
ATOM      5  C   LIG    1       23.514 -19.135   4.096  0.00  0.00    +0.002 A 
ATOM      6  C   LIG    1       22.944 -19.950   5.065  0.00  0.00    +0.001 A 
ATOM      7  N   LIG    1       27.135 -19.834   4.518  0.00  0.00    -0.310 N 
ATOM      8  H   LIG    1       27.383 -19.219   3.751  0.00  0.00    +0.152 HD
ATOM      9  C   LIG    1       28.018 -19.704   5.617  0.00  0.00    +0.083 A 
ATOM     10  C   LIG    1       27.922 -20.505   6.771  0.00  0.00    +0.199 A 
ATOM     11  C   LIG    1       28.788 -20.256   7.846  0.00  0.00    +0.077 A 
ATOM     12  C   LIG    1       29.729 -19.232   7.789  0.00  0.00    +0.045 A 
ATOM     13  C   LIG    1       29.838 -18.446   6.650  0.00  0.00    +0.022 A 
ATOM     14 CL   LIG    1       30.774 -18.950   9.126  0.00  0.00    -0.083 Cl
ATOM     15  C   LIG    1       28.989 -18.684   5.569  0.00  0.00    +0.029 A 
ATOM     16  C   LIG    1       23.759 -20.783   5.829  0.00  0.00    +0.018 A 
ATOM     17  N   LIG    1       27.131 -21.654   6.895  0.00  0.00    -0.040 NA
ENDROOT
BRANCH   1  22
ATOM     18  C   LIG    1       24.210 -26.330   5.195  0.00  0.00    +0.105 C 
ATOM     19  N   LIG    1       24.103 -25.789   6.549  0.00  0.00    -0.298 NA
ATOM     20  C   LIG    1       25.436 -25.513   7.129  0.00  0.00    +0.127 C 
ATOM     21  C   LIG    1       26.171 -24.285   6.548  0.00  0.00    +0.241 C 
ATOM     22  N   LIG    1       25.321 -23.075   6.615  0.00  0.00    -0.218 N 
ATOM     23  C   LIG    1       23.999 -23.297   5.986  0.00  0.00    +0.241 C 
ATOM     24  C   LIG    1       23.305 -24.545   6.576  0.00  0.00    +0.127 C 
ENDBRANCH   1  22
TORSDOF 1
ENDMDL
MODEL 3
REMARK VINA RESULT:      -8.3      2.534      5.908
REMARK  Name = *****
REMARK                            x       y       z     vdW  Elec       q    Type
REMARK                         _______ _______ _______ _____ _____    ______ ____
ROOT
ATOM      1  C   LIG    1       25.544 -21.070   5.756  0.00  0.00    +0.323 C 
ATOM      2  C   LIG    1       25.511 -22.549   6.012  0.00  0.00    +0.087 A 
ATOM      3  C   LIG    1       25.980 -23.119   7.201  0.00  0.00    +0.046 A 
ATOM      4  C   LIG    1       25.761 -24.494   7.415  0.00  0.00    +0.024 A 
ATOM      5  C   LIG    1       25.127 -25.288   6.456  0.00  0.00    +0.002 A 
ATOM      6  C   LIG    1       24.701 -24.722   5.262  0.00  0.00    +0.001 A 
ATOM      7  N   LIG    1       26.713 -22.402   8.168  0.00  0.00    -0.310 N 
ATOM      8  H   LIG    1       26.922 -22.954   8.991  0.00  0.00    +0.152 HD
ATOM      9  C   LIG    1       27.780 -21.541   7.814  0.00  0.00    +0.083 A 
ATOM     10  C   LIG    1       27.698 -20.623   6.749  0.00  0.00    +0.199 A 
ATOM     11  C   LIG    1       28.830 -19.865   6.417  0.00  0.00    +0.077 A 
ATOM     12  C   LIG    1       30.025 -20.011   7.115  0.00  0.00    +0.045 A 
ATOM     13  C   LIG    1       30.110 -20.905   8.174  0.00  0.00    +0.022 A 
ATOM     14 CL   LIG    1       31.397 -19.069   6.680  0.00  0.00    -0.083 Cl
ATOM     15  C   LIG    1       28.991 -21.663   8.523  0.00  0.00    +0.029 A 
ATOM     16  C   LIG    1       24.889 -23.359   5.041  0.00  0.00    +0.018 A 
ATOM     17  N   LIG    1       26.524 -20.272   6.072  0.00  0.00    -0.040 NA
ENDROOT
BRANCH   1  22
ATOM     18  C   LIG    1       22.187 -17.582   4.641  0.00  0.00    +0.105 C 
ATOM     19  N   LIG    1       22.186 -18.898   4.003  0.00  0.00    -0.298 NA
ATOM     20  C   LIG    1       23.445 -19.141   3.262  0.00  0.00    +0.127 C 
ATOM     21  C   LIG    1       24.688 -19.413   4.138  0.00  0.00    +0.241 C 
ATOM     22  N   LIG    1       24.435 -20.512   5.096  0.00  0.00    -0.218 N 
ATOM     23  C   LIG    1       23.215 -20.271   5.900  0.00  0.00    +0.241 C 
ATOM     24  C   LIG    1       21.999 -19.982   4.991  0.00  0.00    +0.127 C 
ENDBRANCH   1  22
TORSDOF 1
ENDMDL
MODEL 4
REMARK VINA RESULT:      -8.3      2.355      5.853
REMARK  Name = *****
REMARK                            x       y       z     vdW  Elec       q    Type
REMARK                         _______ _______ _______ _____ _____    ______ ____
ROOT
ATOM      1  C   LIG    1       25.489 -21.871   5.784  0.00  0.00    +0.323 C 
ATOM      2  C   LIG    1       24.754 -20.693   5.214  0.00  0.00    +0.087 A 
ATOM      3  C   LIG    1       25.385 -19.714   4.438  0.00  0.00    +0.046 A 
ATOM      4  C   LIG    1       24.585 -18.736   3.815  0.00  0.00    +0.024 A 
ATOM      5  C   LIG    1       23.199 -18.710   3.990  0.00  0.00    +0.002 A 
ATOM      6  C   LIG    1       22.586 -19.662   4.795  0.00  0.00    +0.001 A 
ATOM      7  N   LIG    1       26.784 -19.620   4.296  0.00  0.00    -0.310 N 
ATOM      8  H   LIG    1       27.065 -18.889   3.653  0.00  0.00    +0.152 HD
ATOM      9  C   LIG    1       27.659 -19.725   5.405  0.00  0.00    +0.083 A 
ATOM     10  C   LIG    1       27.518 -20.715   6.397  0.00  0.00    +0.199 A 
ATOM     11  C   LIG    1       28.380 -20.697   7.503  0.00  0.00    +0.077 A 
ATOM     12  C   LIG    1       29.361 -19.719   7.634  0.00  0.00    +0.045 A 
ATOM     13  C   LIG    1       29.514 -18.747   6.655  0.00  0.00    +0.022 A 
ATOM     14 CL   LIG    1       30.401 -19.723   9.005  0.00  0.00    -0.083 Cl
ATOM     15  C   LIG    1       28.669 -18.753   5.545  0.00  0.00    +0.029 A 
ATOM     16  C   LIG    1       23.359 -20.650   5.401  0.00  0.00    +0.018 A 
ATOM     17  N   LIG    1       26.681 -21.834   6.310  0.00  0.00    -0.040 NA
ENDROOT
BRANCH   1  22
ATOM     18  C   LIG    1       24.748 -26.661   6.872  0.00  0.00    +0.105 C 
ATOM     19  N   LIG    1       23.817 -25.896   6.046  0.00  0.00    -0.298 NA
ATOM     20  C   LIG    1       23.245 -24.751   6.791  0.00  0.00    +0.127 C 
ATOM     21  C   LIG    1       24.212 -23.572   7.039  0.00  0.00    +0.241 C 
ATOM     22  N   LIG    1       24.820 -23.107   5.772  0.00  0.00    -0.218 N 
ATOM     23  C   LIG    1       25.457 -24.218   5.028  0.00  0.00    +0.241 C 
ATOM     24  C   LIG    1       24.468 -25.387   4.820  0.00  0.00    +0.127 C 
ENDBRANCH   1  22
TORSDOF 1
ENDMDL
