MODEL 1
REMARK VINA RESULT:      -7.6      0.000      0.000
REMARK  Name = *****
REMARK                            x       y       z     vdW  Elec       q    Type
REMARK                         _______ _______ _______ _____ _____    ______ ____
ROOT
ATOM      1  C   LIG    1       27.270 -21.093   7.295  0.00  0.00    +0.080 A 
ATOM      2  C   LIG    1       26.919 -20.491   6.082  0.00  0.00    +0.134 A 
ATOM      3  C   LIG    1       27.781 -19.531   5.520  0.00  0.00    +0.071 A 
ATOM      4  C   LIG    1       28.983 -19.140   6.135  0.00  0.00    +0.053 A 
ATOM      5  C   LIG    1       29.359 -19.813   7.295  0.00  0.00    +0.110 A 
ATOM      6  C   LIG    1       28.504 -20.761   7.879  0.00  0.00    +0.045 A 
ENDROOT
BRANCH   1   9
ATOM      7  N   LIG    1       26.356 -23.357   7.246  0.00  0.00    -0.310 N 
ATOM      8  H   LIG    1       27.002 -23.536   6.496  0.00  0.00    +0.149 HD
ATOM      9  C   LIG    1       26.396 -22.145   7.928  0.00  0.00    +0.248 C 
ATOM     10  O   LIG    1       25.739 -21.918   8.929  0.00  0.00    -0.270 OA
BRANCH   7  11
ATOM     11  C   LIG    1       25.440 -24.434   7.603  0.00  0.00    +0.123 C 
BRANCH  11  13
ATOM     12  N   LIG    1       24.177 -25.828   5.786  0.00  0.00    -0.298 NA
ATOM     13  C   LIG    1       24.207 -24.645   6.668  0.00  0.00    +0.074 C 
ATOM     14  C   LIG    1       24.033 -23.534   5.632  0.00  0.00    +0.021 C 
ATOM     15  C   LIG    1       24.807 -24.014   4.410  0.00  0.00    +0.017 C 
ATOM     16  C   LIG    1       25.010 -25.509   4.630  0.00  0.00    +0.085 C 
BRANCH  12  18
ATOM     17  C   LIG    1       24.485 -28.246   5.358  0.00  0.00    +0.020 C 
ATOM     18  C   LIG    1       24.482 -27.120   6.386  0.00  0.00    +0.081 C 
ENDBRANCH  12  18
ENDBRANCH  11  13
ENDBRANCH   7  11
ENDBRANCH   1   9
BRANCH   4  19
ATOM     19  N   LIG    1       29.834 -18.285   5.418  0.00  0.00    -0.356 N 
ATOM     20  H   LIG    1       29.442 -17.957   4.537  0.00  0.00    +0.142 HD
ATOM     21  H   LIG    1       30.181 -17.491   5.969  0.00  0.00    +0.142 HD
ENDBRANCH   4  19
BRANCH   5  22
ATOM     22  S   LIG    1       30.877 -19.442   8.165  0.00  0.00    -0.002 S 
ATOM     23  O   LIG    1       31.941 -19.448   7.179  0.00  0.00    -0.169 OA
ATOM     24  O   LIG    1       30.937 -20.326   9.322  0.00  0.00    -0.169 OA
BRANCH  22  25
ATOM     25  C   LIG    1       30.642 -17.772   8.737  0.00  0.00    +0.168 C 
ATOM     26  C   LIG    1       30.428 -17.716  10.238  0.00  0.00    +0.028 C 
ENDBRANCH  22  25
ENDBRANCH   5  22
BRANCH   2  27
ATOM     27  O   LIG    1       25.707 -20.798   5.523  0.00  0.00    -0.494 OA
ATOM     28  C   LIG    1       25.360 -20.083   4.342  0.00  0.00    +0.277 C 
ENDBRANCH   2  27
TORSDOF 8
ENDMDL
MODEL 2
REMARK VINA RESULT:      -7.1      3.024      7.407
REMARK  Name = *****
REMARK                            x       y       z     vdW  Elec       q    Type
REMARK                         _______ _______ _______ _____ _____    ______ ____
ROOT
ATOM      1  C   LIG    1       25.475 -22.979   7.269  0.00  0.00    +0.080 A 
ATOM      2  C   LIG    1       24.109 -22.854   6.996  0.00  0.00    +0.134 A 
ATOM      3  C   LIG    1       23.439 -23.916   6.360  0.00  0.00    +0.071 A 
ATOM      4  C   LIG    1       24.090 -25.101   5.976  0.00  0.00    +0.053 A 
ATOM      5  C   LIG    1       25.428 -25.244   6.336  0.00  0.00    +0.110 A 
ATOM      6  C   LIG    1       26.118 -24.189   6.955  0.00  0.00    +0.045 A 
ENDROOT
BRANCH   1   9
ATOM      7  N   LIG    1       26.897 -20.998   7.125  0.00  0.00    -0.310 N 
ATOM      8  H   LIG    1       26.718 -21.017   6.135  0.00  0.00    +0.149 HD
ATOM      9  C   LIG    1       26.236 -21.883   7.971  0.00  0.00    +0.248 C 
ATOM     10  O   LIG    1       26.302 -21.823   9.187  0.00  0.00    -0.270 OA
BRANCH   7  11
ATOM     11  C   LIG    1       27.821 -19.981   7.612  0.00  0.00    +0.123 C 
BRANCH  11  13
ATOM     12  N   LIG    1       30.377 -20.441   7.919  0.00  0.00    -0.298 NA
ATOM     13  C   LIG    1       29.272 -20.018   7.037  0.00  0.00    +0.074 C 
ATOM     14  C   LIG    1       29.788 -18.646   6.601  0.00  0.00    +0.021 C 
ATOM     15  C   LIG    1       30.489 -18.083   7.832  0.00  0.00    +0.017 C 
ATOM     16  C   LIG    1       30.723 -19.284   8.741  0.00  0.00    +0.085 C 
BRANCH  12  18
ATOM     17  C   LIG    1       31.516 -22.249   9.169  0.00  0.00    +0.020 C 
ATOM     18  C   LIG    1       30.192 -21.666   8.686  0.00  0.00    +0.081 C 
ENDBRANCH  12  18
ENDBRANCH  11  13
ENDBRANCH   7  11
ENDBRANCH   1   9
BRANCH   4  19
ATOM     19  N   LIG    1       23.298 -26.150   5.483  0.00  0.00    -0.356 N 
ATOM     20  H   LIG    1       22.929 -25.982   4.548  0.00  0.00    +0.142 HD
ATOM     21  H   LIG    1       23.757 -27.068   5.524  0.00  0.00    +0.142 HD
ENDBRANCH   4  19
BRANCH   5  22
ATOM     22  S   LIG    1       26.372 -26.710   5.941  0.00  0.00    -0.002 S 
ATOM     23  O   LIG    1       27.763 -26.307   5.856  0.00  0.00    -0.169 OA
ATOM     24  O   LIG    1       25.717 -27.353   4.809  0.00  0.00    -0.169 OA
BRANCH  22  25
ATOM     25  C   LIG    1       26.169 -27.746   7.377  0.00  0.00    +0.168 C 
ATOM     26  C   LIG    1       25.029 -28.733   7.202  0.00  0.00    +0.028 C 
ENDBRANCH  22  25
ENDBRANCH   5  22
BRANCH   2  27
ATOM     27  O   LIG    1       23.488 -21.668   7.283  0.00  0.00    -0.494 OA
ATOM     28  C   LIG    1       23.245 -20.801   6.181  0.00  0.00    +0.277 C 
ENDBRANCH   2  27
TORSDOF 8
ENDMDL
MODEL 3
REMARK VINA RESULT:      -6.8      2.878      8.725
REMARK  Name = *****
REMARK                            x       y       z     vdW  Elec       q    Type
REMARK                         _______ _______ _______ _____ _____    ______ ____
ROOT
ATOM      1  C   LIG    1       28.979 -19.463   8.028  0.00  0.00    +0.080 A 
ATOM      2  C   LIG    1       29.367 -19.047   6.750  0.00  0.00    +0.134 A 
ATOM      3  C   LIG    1       28.564 -19.392   5.646  0.00  0.00    +0.071 A 
ATOM      4  C   LIG    1       27.388 -20.150   5.772  0.00  0.00    +0.053 A 
ATOM      5  C   LIG    1       26.971 -20.479   7.060  0.00  0.00    +0.110 A 
ATOM      6  C   LIG    1       27.767 -20.159   8.172  0.00  0.00    +0.045 A 
ENDROOT
BRANCH   1   9
ATOM      7  N   LIG    1       29.638 -17.786   9.677  0.00  0.00    -0.310 N 
ATOM      8  H   LIG    1       28.912 -17.207   9.287  0.00  0.00    +0.149 HD
ATOM      9  C   LIG    1       29.788 -19.100   9.248  0.00  0.00    +0.248 C 
ATOM     10  O   LIG    1       30.552 -19.893   9.772  0.00  0.00    -0.270 OA
BRANCH   7  11
ATOM     11  C   LIG    1       30.461 -17.199  10.727  0.00  0.00    +0.123 C 
BRANCH  11  13
ATOM     12  N   LIG    1       32.885 -16.787  11.617  0.00  0.00    -0.298 NA
ATOM     13  C   LIG    1       32.005 -17.394  10.600  0.00  0.00    +0.074 C 
ATOM     14  C   LIG    1       32.593 -16.773   9.332  0.00  0.00    +0.021 C 
ATOM     15  C   LIG    1       32.992 -15.359   9.738  0.00  0.00    +0.017 C 
ATOM     16  C   LIG    1       33.025 -15.378  11.262  0.00  0.00    +0.085 C 
BRANCH  12  18
ATOM     17  C   LIG    1       32.319 -15.695  13.765  0.00  0.00    +0.020 C 
ATOM     18  C   LIG    1       32.543 -17.004  13.016  0.00  0.00    +0.081 C 
ENDBRANCH  12  18
ENDBRANCH  11  13
ENDBRANCH   7  11
ENDBRANCH   1   9
BRANCH   4  19
ATOM     19  N   LIG    1       26.590 -20.312   4.629  0.00  0.00    -0.356 N 
ATOM     20  H   LIG    1       25.744 -20.855   4.791  0.00  0.00    +0.142 HD
ATOM     21  H   LIG    1       26.360 -19.429   4.157  0.00  0.00    +0.142 HD
ENDBRANCH   4  19
BRANCH   5  22
ATOM     22  S   LIG    1       25.478 -21.413   7.372  0.00  0.00    -0.002 S 
ATOM     23  O   LIG    1       24.479 -20.938   6.434  0.00  0.00    -0.169 OA
ATOM     24  O   LIG    1       25.229 -21.360   8.807  0.00  0.00    -0.169 OA
BRANCH  22  25
ATOM     25  C   LIG    1       25.921 -23.082   6.933  0.00  0.00    +0.168 C 
ATOM     26  C   LIG    1       24.735 -23.851   6.380  0.00  0.00    +0.028 C 
ENDBRANCH  22  25
ENDBRANCH   5  22
BRANCH   2  27
ATOM     27  O   LIG    1       30.558 -18.387   6.607  0.00  0.00    -0.494 OA
ATOM     28  C   LIG    1       31.721 -19.201   6.512  0.00  0.00    +0.277 C 
ENDBRANCH   2  27
TORSDOF 8
ENDMDL
MODEL 4
REMARK VINA RESULT:      -6.8      1.832      2.335
REMARK  Name = *****
REMARK                            x       y       z     vdW  Elec       q    Type
REMARK                         _______ _______ _______ _____ _____    ______ ____
ROOT
ATOM      1  C   LIG    1       27.581 -20.024   7.775  0.00  0.00    +0.080 A 
ATOM      2  C   LIG    1       27.870 -20.065   6.406  0.00  0.00    +0.134 A 
ATOM      3  C   LIG    1       29.157 -19.699   5.968  0.00  0.00    +0.071 A 
ATOM      4  C   LIG    1       30.167 -19.282   6.851  0.00  0.00    +0.053 A 
ATOM      5  C   LIG    1       29.890 -19.333   8.215  0.00  0.00    +0.110 A 
ATOM      6  C   LIG    1       28.607 -19.679   8.670  0.00  0.00    +0.045 A 
ENDROOT
BRANCH   1   9
ATOM      7  N   LIG    1       25.267 -20.660   7.322  0.00  0.00    -0.310 N 
ATOM      8  H   LIG    1       25.536 -20.712   6.353  0.00  0.00    +0.149 HD
ATOM      9  C   LIG    1       26.228 -20.429   8.301  0.00  0.00    +0.248 C 
ATOM     10  O   LIG    1       25.995 -20.491   9.495  0.00  0.00    -0.270 OA
BRANCH   7  11
ATOM     11  C   LIG    1       23.862 -20.892   7.634  0.00  0.00    +0.123 C 
BRANCH  11  13
ATOM     12  N   LIG    1       23.783 -22.914   5.977  0.00  0.00    -0.298 NA
ATOM     13  C   LIG    1       23.069 -21.815   6.655  0.00  0.00    +0.074 C 
ATOM     14  C   LIG    1       22.506 -21.074   5.442  0.00  0.00    +0.021 C 
ATOM     15  C   LIG    1       23.590 -21.188   4.376  0.00  0.00    +0.017 C 
ATOM     16  C   LIG    1       24.496 -22.318   4.851  0.00  0.00    +0.085 C 
BRANCH  12  18
ATOM     17  C   LIG    1       25.414 -24.777   5.965  0.00  0.00    +0.020 C 
ATOM     18  C   LIG    1       24.615 -23.782   6.801  0.00  0.00    +0.081 C 
ENDBRANCH  12  18
ENDBRANCH  11  13
ENDBRANCH   7  11
ENDBRANCH   1   9
BRANCH   4  19
ATOM     19  N   LIG    1       31.453 -19.081   6.323  0.00  0.00    -0.356 N 
ATOM     20  H   LIG    1       32.090 -19.860   6.483  0.00  0.00    +0.142 HD
ATOM     21  H   LIG    1       31.455 -18.819   5.330  0.00  0.00    +0.142 HD
ENDBRANCH   4  19
BRANCH   5  22
ATOM     22  S   LIG    1       31.092 -18.863   9.453  0.00  0.00    -0.002 S 
ATOM     23  O   LIG    1       32.242 -19.729   9.275  0.00  0.00    -0.169 OA
ATOM     24  O   LIG    1       30.396 -18.813  10.733  0.00  0.00    -0.169 OA
BRANCH  22  25
ATOM     25  C   LIG    1       31.552 -17.206   8.990  0.00  0.00    +0.168 C 
ATOM     26  C   LIG    1       32.700 -16.684   9.835  0.00  0.00    +0.028 C 
ENDBRANCH  22  25
ENDBRANCH   5  22
BRANCH   2  27
ATOM     27  O   LIG    1       26.865 -20.381   5.532  0.00  0.00    -0.494 OA
ATOM     28  C   LIG    1       26.642 -19.460   4.470  0.00  0.00    +0.277 C 
ENDBRANCH   2  27
TORSDOF 8
ENDMDL
MODEL 5
REMARK VINA RESULT:      -6.7      2.673      4.452
REMARK  Name = *****
REMARK                            x       y       z     vdW  Elec       q    Type
REMARK                         _______ _______ _______ _____ _____    ______ ____
ROOT
ATOM      1  C   LIG    1       28.226 -20.258   6.528  0.00  0.00    +0.080 A 
ATOM      2  C   LIG    1       27.984 -21.486   7.154  0.00  0.00    +0.134 A 
ATOM      3  C   LIG    1       28.859 -21.921   8.167  0.00  0.00    +0.071 A 
ATOM      4  C   LIG    1       29.979 -21.175   8.573  0.00  0.00    +0.053 A 
ATOM      5  C   LIG    1       30.154 -19.916   8.002  0.00  0.00    +0.110 A 
ATOM      6  C   LIG    1       29.301 -19.473   6.977  0.00  0.00    +0.045 A 
ENDROOT
BRANCH   1   9
ATOM      7  N   LIG    1       26.150 -20.480   5.261  0.00  0.00    -0.310 N 
ATOM      8  H   LIG    1       25.899 -21.202   5.916  0.00  0.00    +0.149 HD
ATOM      9  C   LIG    1       27.307 -19.733   5.455  0.00  0.00    +0.248 C 
ATOM     10  O   LIG    1       27.596 -18.759   4.781  0.00  0.00    -0.270 OA
BRANCH   7  11
ATOM     11  C   LIG    1       25.226 -20.234   4.160  0.00  0.00    +0.123 C 
BRANCH  11  13
ATOM     12  N   LIG    1       22.653 -20.023   4.576  0.00  0.00    -0.298 NA
ATOM     13  C   LIG    1       23.811 -20.885   4.273  0.00  0.00    +0.074 C 
ATOM     14  C   LIG    1       23.697 -21.897   5.413  0.00  0.00    +0.021 C 
ATOM     15  C   LIG    1       23.214 -21.086   6.610  0.00  0.00    +0.017 C 
ATOM     16  C   LIG    1       22.670 -19.791   6.017  0.00  0.00    +0.085 C 
BRANCH  12  18
ATOM     17  C   LIG    1       22.210 -17.589   4.665  0.00  0.00    +0.020 C 
ATOM     18  C   LIG    1       22.500 -18.805   3.791  0.00  0.00    +0.081 C 
ENDBRANCH  12  18
ENDBRANCH  11  13
ENDBRANCH   7  11
ENDBRANCH   1   9
BRANCH   4  19
ATOM     19  N   LIG    1       30.698 -21.632   9.688  0.00  0.00    -0.356 N 
ATOM     20  H   LIG    1       31.694 -21.422   9.650  0.00  0.00    +0.142 HD
ATOM     21  H   LIG    1       30.306 -21.327  10.586  0.00  0.00    +0.142 HD
ENDBRANCH   4  19
BRANCH   5  22
ATOM     22  S   LIG    1       31.515 -18.846   8.446  0.00  0.00    -0.002 S 
ATOM     23  O   LIG    1       32.210 -18.515   7.217  0.00  0.00    -0.169 OA
ATOM     24  O   LIG    1       32.224 -19.485   9.547  0.00  0.00    -0.169 OA
BRANCH  22  25
ATOM     25  C   LIG    1       30.718 -17.376   9.061  0.00  0.00    +0.168 C 
ATOM     26  C   LIG    1       30.300 -17.528  10.512  0.00  0.00    +0.028 C 
ENDBRANCH  22  25
ENDBRANCH   5  22
BRANCH   2  27
ATOM     27  O   LIG    1       26.950 -22.261   6.703  0.00  0.00    -0.494 OA
ATOM     28  C   LIG    1       26.227 -22.984   7.693  0.00  0.00    +0.277 C 
ENDBRANCH   2  27
TORSDOF 8
ENDMDL
MODEL 6
REMARK VINA RESULT:      -6.7      4.684      8.348
REMARK  Name = *****
REMARK                            x       y       z     vdW  Elec       q    Type
REMARK                         _______ _______ _______ _____ _____    ______ ____
ROOT
ATOM      1  C   LIG    1       25.771 -27.633   7.432  0.00  0.00    +0.080 A 
ATOM      2  C   LIG    1       24.752 -28.450   6.932  0.00  0.00    +0.134 A 
ATOM      3  C   LIG    1       24.392 -29.609   7.646  0.00  0.00    +0.071 A 
ATOM      4  C   LIG    1       25.025 -29.989   8.841  0.00  0.00    +0.053 A 
ATOM      5  C   LIG    1       25.975 -29.118   9.371  0.00  0.00    +0.110 A 
ATOM      6  C   LIG    1       26.358 -27.966   8.664  0.00  0.00    +0.045 A 
ENDROOT
BRANCH   1   9
ATOM      7  N   LIG    1       25.606 -25.205   7.228  0.00  0.00    -0.310 N 
ATOM      8  H   LIG    1       25.106 -25.227   8.101  0.00  0.00    +0.149 HD
ATOM      9  C   LIG    1       26.178 -26.367   6.722  0.00  0.00    +0.248 C 
ATOM     10  O   LIG    1       26.910 -26.384   5.747  0.00  0.00    -0.270 OA
BRANCH   7  11
ATOM     11  C   LIG    1       25.740 -23.909   6.573  0.00  0.00    +0.123 C 
BRANCH  11  13
ATOM     12  N   LIG    1       24.793 -21.472   6.544  0.00  0.00    -0.298 NA
ATOM     13  C   LIG    1       25.133 -22.680   7.320  0.00  0.00    +0.074 C 
ATOM     14  C   LIG    1       26.077 -22.073   8.358  0.00  0.00    +0.021 C 
ATOM     15  C   LIG    1       26.850 -20.997   7.604  0.00  0.00    +0.017 C 
ATOM     16  C   LIG    1       26.040 -20.742   6.338  0.00  0.00    +0.085 C 
BRANCH  12  18
ATOM     17  C   LIG    1       22.744 -20.815   5.321  0.00  0.00    +0.020 C 
ATOM     18  C   LIG    1       24.016 -21.655   5.325  0.00  0.00    +0.081 C 
ENDBRANCH  12  18
ENDBRANCH  11  13
ENDBRANCH   7  11
ENDBRANCH   1   9
BRANCH   4  19
ATOM     19  N   LIG    1       24.491 -31.081   9.544  0.00  0.00    -0.356 N 
ATOM     20  H   LIG    1       24.386 -31.922   8.979  0.00  0.00    +0.142 HD
ATOM     21  H   LIG    1       24.992 -31.297  10.414  0.00  0.00    +0.142 HD
ENDBRANCH   4  19
BRANCH   5  22
ATOM     22  S   LIG    1       26.835 -29.457  10.901  0.00  0.00    -0.002 S 
ATOM     23  O   LIG    1       28.090 -30.093  10.548  0.00  0.00    -0.169 OA
ATOM     24  O   LIG    1       25.891 -30.126  11.787  0.00  0.00    -0.169 OA
BRANCH  22  25
ATOM     25  C   LIG    1       27.185 -27.839  11.560  0.00  0.00    +0.168 C 
ATOM     26  C   LIG    1       26.214 -27.460  12.663  0.00  0.00    +0.028 C 
ENDBRANCH  22  25
ENDBRANCH   5  22
BRANCH   2  27
ATOM     27  O   LIG    1       24.193 -28.137   5.722  0.00  0.00    -0.494 OA
ATOM     28  C   LIG    1       24.567 -28.963   4.624  0.00  0.00    +0.277 C 
ENDBRANCH   2  27
TORSDOF 8
ENDMDL
MODEL 7
REMARK VINA RESULT:      -6.3      5.927      9.493
REMARK  Name = *****
REMARK                            x       y       z     vdW  Elec       q    Type
REMARK                         _______ _______ _______ _____ _____    ______ ____
ROOT
ATOM      1  C   LIG    1       25.906 -28.969   8.677  0.00  0.00    +0.080 A 
ATOM      2  C   LIG    1       25.198 -30.112   8.289  0.00  0.00    +0.134 A 
ATOM      3  C   LIG    1       24.432 -30.074   7.109  0.00  0.00    +0.071 A 
ATOM      4  C   LIG    1       24.337 -28.926   6.304  0.00  0.00    +0.053 A 
ATOM      5  C   LIG    1       25.118 -27.827   6.657  0.00  0.00    +0.110 A 
ATOM      6  C   LIG    1       25.874 -27.841   7.840  0.00  0.00    +0.045 A 
ENDROOT
BRANCH   1   9
ATOM      7  N   LIG    1       26.318 -28.116  10.929  0.00  0.00    -0.310 N 
ATOM      8  H   LIG    1       25.406 -27.694  10.869  0.00  0.00    +0.149 HD
ATOM      9  C   LIG    1       26.762 -28.962   9.918  0.00  0.00    +0.248 C 
ATOM     10  O   LIG    1       27.791 -29.611   9.991  0.00  0.00    -0.270 OA
BRANCH   7  11
ATOM     11  C   LIG    1       27.098 -27.843  12.129  0.00  0.00    +0.123 C 
BRANCH  11  13
ATOM     12  N   LIG    1       25.951 -26.993  14.320  0.00  0.00    -0.298 NA
ATOM     13  C   LIG    1       26.404 -28.132  13.498  0.00  0.00    +0.074 C 
ATOM     14  C   LIG    1       27.312 -28.842  14.501  0.00  0.00    +0.021 C 
ATOM     15  C   LIG    1       27.980 -27.720  15.288  0.00  0.00    +0.017 C 
ATOM     16  C   LIG    1       27.130 -26.484  15.015  0.00  0.00    +0.085 C 
BRANCH  12  18
ATOM     17  C   LIG    1       23.680 -26.275  13.647  0.00  0.00    +0.020 C 
ATOM     18  C   LIG    1       25.171 -25.956  13.658  0.00  0.00    +0.081 C 
ENDBRANCH  12  18
ENDBRANCH  11  13
ENDBRANCH   7  11
ENDBRANCH   1   9
BRANCH   4  19
ATOM     19  N   LIG    1       23.665 -29.044   5.077  0.00  0.00    -0.356 N 
ATOM     20  H   LIG    1       23.914 -29.879   4.550  0.00  0.00    +0.142 HD
ATOM     21  H   LIG    1       22.644 -28.965   5.156  0.00  0.00    +0.142 HD
ENDBRANCH   4  19
BRANCH   5  22
ATOM     22  S   LIG    1       25.121 -26.313   5.707  0.00  0.00    -0.002 S 
ATOM     23  O   LIG    1       23.743 -25.870   5.613  0.00  0.00    -0.169 OA
ATOM     24  O   LIG    1       25.901 -26.562   4.501  0.00  0.00    -0.169 OA
BRANCH  22  25
ATOM     25  C   LIG    1       26.017 -25.167   6.736  0.00  0.00    +0.168 C 
ATOM     26  C   LIG    1       25.349 -23.805   6.774  0.00  0.00    +0.028 C 
ENDBRANCH  22  25
ENDBRANCH   5  22
BRANCH   2  27
ATOM     27  O   LIG    1       25.212 -31.204   9.115  0.00  0.00    -0.494 OA
ATOM     28  C   LIG    1       24.004 -31.476   9.818  0.00  0.00    +0.277 C 
ENDBRANCH   2  27
TORSDOF 8
ENDMDL
MODEL 8
REMARK VINA RESULT:      -6.3      3.095      7.473
REMARK  Name = *****
REMARK                            x       y       z     vdW  Elec       q    Type
REMARK                         _______ _______ _______ _____ _____    ______ ____
ROOT
ATOM      1  C   LIG    1       25.990 -20.123   5.109  0.00  0.00    +0.080 A 
ATOM      2  C   LIG    1       25.282 -19.485   4.085  0.00  0.00    +0.134 A 
ATOM      3  C   LIG    1       23.927 -19.810   3.886  0.00  0.00    +0.071 A 
ATOM      4  C   LIG    1       23.253 -20.761   4.670  0.00  0.00    +0.053 A 
ATOM      5  C   LIG    1       23.948 -21.320   5.740  0.00  0.00    +0.110 A 
ATOM      6  C   LIG    1       25.305 -21.021   5.944  0.00  0.00    +0.045 A 
ENDROOT
BRANCH   1   9
ATOM      7  N   LIG    1       28.082 -20.676   6.242  0.00  0.00    -0.310 N 
ATOM      8  H   LIG    1       27.640 -21.544   6.500  0.00  0.00    +0.149 HD
ATOM      9  C   LIG    1       27.436 -19.794   5.383  0.00  0.00    +0.248 C 
ATOM     10  O   LIG    1       27.966 -18.798   4.923  0.00  0.00    -0.270 OA
BRANCH   7  11
ATOM     11  C   LIG    1       29.422 -20.434   6.761  0.00  0.00    +0.123 C 
BRANCH  11  13
ATOM     12  N   LIG    1       30.353 -19.395   8.973  0.00  0.00    -0.298 NA
ATOM     13  C   LIG    1       29.592 -20.473   8.313  0.00  0.00    +0.074 C 
ATOM     14  C   LIG    1       30.369 -21.692   8.809  0.00  0.00    +0.021 C 
ATOM     15  C   LIG    1       31.824 -21.240   8.848  0.00  0.00    +0.017 C 
ATOM     16  C   LIG    1       31.767 -19.717   8.802  0.00  0.00    +0.085 C 
BRANCH  12  18
ATOM     17  C   LIG    1       30.394 -17.035   9.716  0.00  0.00    +0.020 C 
ATOM     18  C   LIG    1       30.020 -18.023   8.616  0.00  0.00    +0.081 C 
ENDBRANCH  12  18
ENDBRANCH  11  13
ENDBRANCH   7  11
ENDBRANCH   1   9
BRANCH   4  19
ATOM     19  N   LIG    1       21.869 -20.901   4.480  0.00  0.00    -0.356 N 
ATOM     20  H   LIG    1       21.342 -20.993   5.346  0.00  0.00    +0.142 HD
ATOM     21  H   LIG    1       21.457 -20.169   3.890  0.00  0.00    +0.142 HD
ENDBRANCH   4  19
BRANCH   5  22
ATOM     22  S   LIG    1       23.205 -22.518   6.840  0.00  0.00    -0.002 S 
ATOM     23  O   LIG    1       22.057 -23.072   6.148  0.00  0.00    -0.169 OA
ATOM     24  O   LIG    1       23.046 -21.873   8.137  0.00  0.00    -0.169 OA
BRANCH  22  25
ATOM     25  C   LIG    1       24.447 -23.788   6.985  0.00  0.00    +0.168 C 
ATOM     26  C   LIG    1       24.021 -25.072   6.297  0.00  0.00    +0.028 C 
ENDBRANCH  22  25
ENDBRANCH   5  22
BRANCH   2  27
ATOM     27  O   LIG    1       25.954 -18.625   3.258  0.00  0.00    -0.494 OA
ATOM     28  C   LIG    1       25.537 -17.265   3.292  0.00  0.00    +0.277 C 
ENDBRANCH   2  27
TORSDOF 8
ENDMDL
MODEL 9
REMARK VINA RESULT:      -6.3      0.993      1.962
REMARK  Name = *****
REMARK                            x       y       z     vdW  Elec       q    Type
REMARK                         _______ _______ _______ _____ _____    ______ ____
ROOT
ATOM      1  C   LIG    1       26.947 -21.370   6.910  0.00  0.00    +0.080 A 
ATOM      2  C   LIG    1       26.629 -20.597   5.787  0.00  0.00    +0.134 A 
ATOM      3  C   LIG    1       27.516 -19.582   5.383  0.00  0.00    +0.071 A 
ATOM      4  C   LIG    1       28.710 -19.302   6.069  0.00  0.00    +0.053 A 
ATOM      5  C   LIG    1       29.053 -20.138   7.129  0.00  0.00    +0.110 A 
ATOM      6  C   LIG    1       28.173 -21.145   7.558  0.00  0.00    +0.045 A 
ENDROOT
BRANCH   1   9
ATOM      7  N   LIG    1       26.481 -23.764   7.035  0.00  0.00    -0.310 N 
ATOM      8  H   LIG    1       27.408 -23.901   6.669  0.00  0.00    +0.149 HD
ATOM      9  C   LIG    1       26.045 -22.487   7.371  0.00  0.00    +0.248 C 
ATOM     10  O   LIG    1       24.992 -22.267   7.944  0.00  0.00    -0.270 OA
BRANCH   7  11
ATOM     11  C   LIG    1       25.666 -24.955   7.241  0.00  0.00    +0.123 C 
BRANCH  11  13
ATOM     12  N   LIG    1       25.121 -27.014   5.723  0.00  0.00    -0.298 NA
ATOM     13  C   LIG    1       26.120 -26.252   6.498  0.00  0.00    +0.074 C 
ATOM     14  C   LIG    1       26.621 -27.347   7.439  0.00  0.00    +0.021 C 
ATOM     15  C   LIG    1       25.388 -28.185   7.757  0.00  0.00    +0.017 C 
ATOM     16  C   LIG    1       24.370 -27.817   6.683  0.00  0.00    +0.085 C 
BRANCH  12  18
ATOM     17  C   LIG    1       24.961 -25.006   4.284  0.00  0.00    +0.020 C 
ATOM     18  C   LIG    1       24.277 -26.268   4.800  0.00  0.00    +0.081 C 
ENDBRANCH  12  18
ENDBRANCH  11  13
ENDBRANCH   7  11
ENDBRANCH   1   9
BRANCH   4  19
ATOM     19  N   LIG    1       29.588 -18.368   5.497  0.00  0.00    -0.356 N 
ATOM     20  H   LIG    1       30.509 -18.747   5.283  0.00  0.00    +0.142 HD
ATOM     21  H   LIG    1       29.202 -17.888   4.675  0.00  0.00    +0.142 HD
ENDBRANCH   4  19
BRANCH   5  22
ATOM     22  S   LIG    1       30.557 -19.919   8.071  0.00  0.00    -0.002 S 
ATOM     23  O   LIG    1       31.626 -19.699   7.115  0.00  0.00    -0.169 OA
ATOM     24  O   LIG    1       30.634 -21.020   9.024  0.00  0.00    -0.169 OA
BRANCH  22  25
ATOM     25  C   LIG    1       30.279 -18.407   8.971  0.00  0.00    +0.168 C 
ATOM     26  C   LIG    1       31.514 -17.524   8.981  0.00  0.00    +0.028 C 
ENDBRANCH  22  25
ENDBRANCH   5  22
BRANCH   2  27
ATOM     27  O   LIG    1       25.426 -20.802   5.168  0.00  0.00    -0.494 OA
ATOM     28  C   LIG    1       25.147 -19.974   4.044  0.00  0.00    +0.277 C 
ENDBRANCH   2  27
TORSDOF 8
ENDMDL
