MODEL 1
REMARK VINA RESULT:      57.0      0.000      0.000
REMARK  Name = *****
REMARK                            x       y       z     vdW  Elec       q    Type
REMARK                         _______ _______ _______ _____ _____    ______ ____
ROOT
ATOM      1  C   LIG    1       20.282 -30.379  12.409  0.00  0.00    +0.014 C 
ATOM      2  C   LIG    1       21.647 -30.107  11.763  0.00  0.00    +0.056 C 
ATOM      3  C   LIG    1       22.660 -29.758  12.906  0.00  0.00    +0.179 C 
ATOM      4  C   LIG    1       24.139 -30.044  12.673  0.00  0.00    +0.052 C 
ATOM      5  O   LIG    1       22.472 -28.385  13.363  0.00  0.00    -0.461 OA
ATOM      6  C   LIG    1       22.925 -27.360  12.581  0.00  0.00    +0.310 C 
ATOM      7  O   LIG    1       23.466 -27.490  11.491  0.00  0.00    -0.251 OA
ATOM      8  C   LIG    1       22.643 -26.026  13.233  0.00  0.00    +0.152 C 
ATOM      9  C   LIG    1       23.919 -25.270  13.607  0.00  0.00    +0.128 C 
ATOM     10  C   LIG    1       24.673 -25.919  14.781  0.00  0.00    +0.063 C 
ATOM     11  C   LIG    1       26.121 -25.441  15.042  0.00  0.00    +0.117 C 
ATOM     12  C   LIG    1       27.166 -26.558  14.848  0.00  0.00    +0.034 C 
ATOM     13  C   LIG    1       27.236 -27.073  13.404  0.00  0.00    +0.036 C 
ATOM     14  C   LIG    1       28.165 -28.289  13.218  0.00  0.00    +0.143 C 
ATOM     15  C   LIG    1       28.405 -28.636  11.721  0.00  0.00    +0.145 C 
ATOM     16  C   LIG    1       27.087 -28.893  10.967  0.00  0.00    +0.065 C 
ATOM     17  C   LIG    1       27.155 -29.055   9.439  0.00  0.00    +0.122 C 
ATOM     18  C   LIG    1       25.748 -28.971   8.784  0.00  0.00    +0.096 C 
ATOM     19  C   LIG    1       25.199 -27.553   8.493  0.00  0.00    +0.172 C 
ATOM     20  C   LIG    1       23.689 -27.554   8.277  0.00  0.00    +0.097 C 
ATOM     21  C   LIG    1       23.207 -26.145   7.927  0.00  0.00    +0.136 C 
ATOM     22  C   LIG    1       23.944 -25.653   6.697  0.00  0.00    +0.155 C 
ATOM     23  C   LIG    1       25.468 -25.815   6.778  0.00  0.00    +0.141 C 
ATOM     24  C   LIG    1       26.395 -24.760   7.432  0.00  0.00    +0.068 C 
ATOM     25  C   LIG    1       27.670 -24.518   6.566  0.00  0.00    +0.147 C 
ATOM     26  C   LIG    1       28.331 -25.819   6.189  0.00  0.00    +0.004 C 
ATOM     27  C   LIG    1       28.313 -26.306   4.936  0.00  0.00    -0.002 C 
ATOM     28  C   LIG    1       28.515 -27.715   4.694  0.00  0.00    -0.000 C 
ATOM     29  C   LIG    1       27.885 -28.351   3.692  0.00  0.00    +0.000 C 
ATOM     30  C   LIG    1       27.720 -29.787   3.729  0.00  0.00    +0.000 C 
ATOM     31  C   LIG    1       26.691 -30.404   3.124  0.00  0.00    +0.000 C 
ATOM     32  C   LIG    1       26.285 -31.728   3.548  0.00  0.00    +0.000 C 
ATOM     33  C   LIG    1       25.025 -32.167   3.400  0.00  0.00    +0.000 C 
ATOM     34  C   LIG    1       24.518 -33.211   4.269  0.00  0.00    +0.000 C 
ATOM     35  C   LIG    1       23.226 -33.228   4.636  0.00  0.00    +0.000 C 
ATOM     36  C   LIG    1       22.829 -33.825   5.898  0.00  0.00    +0.000 C 
ATOM     37  C   LIG    1       21.859 -33.246   6.623  0.00  0.00    -0.000 C 
ATOM     38  C   LIG    1       21.726 -33.439   8.052  0.00  0.00    -0.004 C 
ATOM     39  C   LIG    1       21.131 -32.493   8.797  0.00  0.00    -0.021 C 
ATOM     40  C   LIG    1       21.147 -32.325  10.305  0.00  0.00    +0.037 C 
ATOM     41  C   LIG    1       21.459 -33.619  11.073  0.00  0.00    +0.014 C 
ATOM     42  O   LIG    1       25.823 -27.119   7.277  0.00  0.00    -0.344 OA
ATOM     43  C   LIG    1       22.147 -31.202  10.769  0.00  0.00    +0.127 C 
ENDROOT
BRANCH   9  44
ATOM     44  O   LIG    1       24.730 -25.124  12.448  0.00  0.00    -0.391 OA
ATOM     45  H   LIG    1       24.687 -24.171  12.212  0.00  0.00    +0.210 HD
ENDBRANCH   9  44
BRANCH  11  46
ATOM     46  O   LIG    1       26.447 -24.310  14.236  0.00  0.00    -0.392 OA
ATOM     47  H   LIG    1       26.081 -23.519  14.673  0.00  0.00    +0.210 HD
ENDBRANCH  11  46
BRANCH  14  48
ATOM     48  O   LIG    1       27.603 -29.421  13.887  0.00  0.00    -0.389 OA
ATOM     49  H   LIG    1       27.798 -29.320  14.834  0.00  0.00    +0.210 HD
ENDBRANCH  14  48
BRANCH  15  50
ATOM     50  O   LIG    1       29.161 -27.573  11.144  0.00  0.00    -0.389 OA
ATOM     51  H   LIG    1       28.513 -26.994  10.688  0.00  0.00    +0.210 HD
ENDBRANCH  15  50
BRANCH  17  52
ATOM     52  O   LIG    1       28.060 -28.116   8.872  0.00  0.00    -0.392 OA
ATOM     53  H   LIG    1       28.619 -28.629   8.247  0.00  0.00    +0.210 HD
ENDBRANCH  17  52
BRANCH  19  54
ATOM     54  O   LIG    1       25.532 -26.683   9.558  0.00  0.00    -0.364 OA
ATOM     55  H   LIG    1       25.956 -25.879   9.186  0.00  0.00    +0.213 HD
ENDBRANCH  19  54
BRANCH  21  56
ATOM     56  O   LIG    1       21.808 -26.225   7.615  0.00  0.00    -0.391 OA
ATOM     57  H   LIG    1       21.334 -26.196   8.469  0.00  0.00    +0.210 HD
ENDBRANCH  21  56
BRANCH  22  58
ATOM     58  C   LIG    1       23.472 -24.287   6.250  0.00  0.00    +0.313 C 
ATOM     59  O   LIG    1       22.495 -23.686   6.684  0.00  0.00    -0.251 OA
BRANCH  58  60
ATOM     60  O   LIG    1       24.258 -23.738   5.295  0.00  0.00    -0.480 OA
ATOM     61  H   LIG    1       25.090 -23.373   5.662  0.00  0.00    +0.295 HD
ENDBRANCH  58  60
ENDBRANCH  22  58
BRANCH  43  62
ATOM     62  O   LIG    1       22.661 -30.469   9.639  0.00  0.00    -0.391 OA
ATOM     63  H   LIG    1       23.618 -30.348   9.774  0.00  0.00    +0.210 HD
ENDBRANCH  43  62
BRANCH  25  64
ATOM     64  O   LIG    1       28.550 -23.657   7.292  0.00  0.00    -0.341 OA
BRANCH  64  65
ATOM     65  C   LIG    1       28.870 -22.413   6.662  0.00  0.00    +0.281 C 
ATOM     66  C   LIG    1       27.775 -21.318   6.722  0.00  0.00    +0.189 C 
ATOM     67  C   LIG    1       27.513 -20.892   8.182  0.00  0.00    +0.116 C 
ATOM     68  C   LIG    1       28.843 -20.418   8.793  0.00  0.00    +0.162 C 
ATOM     69  C   LIG    1       30.026 -21.383   8.564  0.00  0.00    +0.148 C 
ATOM     70  C   LIG    1       30.155 -22.487   9.608  0.00  0.00    +0.040 C 
ATOM     71  O   LIG    1       30.094 -21.880   7.217  0.00  0.00    -0.343 OA
BRANCH  67  72
ATOM     72  N   LIG    1       26.833 -21.913   8.998  0.00  0.00    -0.323 NA
ATOM     73  H   LIG    1       26.272 -22.512   8.387  0.00  0.00    +0.119 HD
ATOM     74  H   LIG    1       27.527 -22.557   9.392  0.00  0.00    +0.119 HD
ENDBRANCH  67  72
BRANCH  66  75
ATOM     75  O   LIG    1       26.547 -21.659   6.070  0.00  0.00    -0.385 OA
ATOM     76  H   LIG    1       25.822 -21.393   6.663  0.00  0.00    +0.210 HD
ENDBRANCH  66  75
BRANCH  68  77
ATOM     77  O   LIG    1       29.160 -19.144   8.187  0.00  0.00    -0.388 OA
ATOM     78  H   LIG    1       30.049 -18.883   8.490  0.00  0.00    +0.210 HD
ENDBRANCH  68  77
ENDBRANCH  64  65
ENDBRANCH  25  64
TORSDOF 15
ENDMDL
MODEL 2
REMARK VINA RESULT:      59.9      0.831      1.353
REMARK  Name = *****
REMARK                            x       y       z     vdW  Elec       q    Type
REMARK                         _______ _______ _______ _____ _____    ______ ____
ROOT
ATOM      1  C   LIG    1       20.272 -30.263  12.681  0.00  0.00    +0.014 C 
ATOM      2  C   LIG    1       21.618 -30.018  11.986  0.00  0.00    +0.056 C 
ATOM      3  C   LIG    1       22.673 -29.669  13.089  0.00  0.00    +0.179 C 
ATOM      4  C   LIG    1       24.140 -29.979  12.811  0.00  0.00    +0.052 C 
ATOM      5  O   LIG    1       22.519 -28.288  13.535  0.00  0.00    -0.461 OA
ATOM      6  C   LIG    1       22.959 -27.279  12.725  0.00  0.00    +0.310 C 
ATOM      7  O   LIG    1       23.462 -27.430  11.619  0.00  0.00    -0.251 OA
ATOM      8  C   LIG    1       22.717 -25.933  13.368  0.00  0.00    +0.152 C 
ATOM      9  C   LIG    1       24.015 -25.191  13.690  0.00  0.00    +0.128 C 
ATOM     10  C   LIG    1       24.800 -25.835  14.846  0.00  0.00    +0.063 C 
ATOM     11  C   LIG    1       26.262 -25.374  15.053  0.00  0.00    +0.117 C 
ATOM     12  C   LIG    1       27.284 -26.508  14.838  0.00  0.00    +0.034 C 
ATOM     13  C   LIG    1       27.299 -27.041  13.400  0.00  0.00    +0.036 C 
ATOM     14  C   LIG    1       28.205 -28.273  13.199  0.00  0.00    +0.143 C 
ATOM     15  C   LIG    1       28.389 -28.641  11.699  0.00  0.00    +0.145 C 
ATOM     16  C   LIG    1       27.044 -28.890  10.992  0.00  0.00    +0.065 C 
ATOM     17  C   LIG    1       27.058 -29.072   9.466  0.00  0.00    +0.122 C 
ATOM     18  C   LIG    1       25.632 -28.977   8.857  0.00  0.00    +0.096 C 
ATOM     19  C   LIG    1       25.092 -27.555   8.566  0.00  0.00    +0.172 C 
ATOM     20  C   LIG    1       23.576 -27.537   8.401  0.00  0.00    +0.097 C 
ATOM     21  C   LIG    1       23.101 -26.126   8.049  0.00  0.00    +0.136 C 
ATOM     22  C   LIG    1       23.803 -25.660   6.789  0.00  0.00    +0.155 C 
ATOM     23  C   LIG    1       25.327 -25.842   6.820  0.00  0.00    +0.141 C 
ATOM     24  C   LIG    1       26.289 -24.792   7.430  0.00  0.00    +0.068 C 
ATOM     25  C   LIG    1       27.537 -24.578   6.518  0.00  0.00    +0.147 C 
ATOM     26  C   LIG    1       28.168 -25.893   6.137  0.00  0.00    +0.004 C 
ATOM     27  C   LIG    1       28.101 -26.395   4.891  0.00  0.00    -0.002 C 
ATOM     28  C   LIG    1       28.276 -27.810   4.661  0.00  0.00    -0.000 C 
ATOM     29  C   LIG    1       27.604 -28.449   3.688  0.00  0.00    +0.000 C 
ATOM     30  C   LIG    1       27.421 -29.882   3.750  0.00  0.00    +0.000 C 
ATOM     31  C   LIG    1       26.364 -30.492   3.187  0.00  0.00    +0.000 C 
ATOM     32  C   LIG    1       25.955 -31.805   3.642  0.00  0.00    +0.000 C 
ATOM     33  C   LIG    1       24.685 -32.229   3.541  0.00  0.00    +0.000 C 
ATOM     34  C   LIG    1       24.193 -33.255   4.440  0.00  0.00    +0.000 C 
ATOM     35  C   LIG    1       22.914 -33.249   4.851  0.00  0.00    +0.000 C 
ATOM     36  C   LIG    1       22.552 -33.825   6.133  0.00  0.00    +0.000 C 
ATOM     37  C   LIG    1       21.614 -33.223   6.883  0.00  0.00    -0.000 C 
ATOM     38  C   LIG    1       21.527 -33.397   8.318  0.00  0.00    -0.004 C 
ATOM     39  C   LIG    1       20.971 -32.433   9.069  0.00  0.00    -0.021 C 
ATOM     40  C   LIG    1       21.039 -32.247  10.574  0.00  0.00    +0.037 C 
ATOM     41  C   LIG    1       21.359 -33.535  11.348  0.00  0.00    +0.014 C 
ATOM     42  O   LIG    1       25.680 -27.145   7.324  0.00  0.00    -0.344 OA
ATOM     43  C   LIG    1       22.070 -31.132  10.989  0.00  0.00    +0.127 C 
ENDROOT
BRANCH   9  44
ATOM     44  O   LIG    1       24.788 -25.070  12.503  0.00  0.00    -0.391 OA
ATOM     45  H   LIG    1       24.761 -25.955  12.077  0.00  0.00    +0.210 HD
ENDBRANCH   9  44
BRANCH  11  46
ATOM     46  O   LIG    1       26.576 -24.258  14.222  0.00  0.00    -0.392 OA
ATOM     47  H   LIG    1       27.529 -24.074  14.321  0.00  0.00    +0.210 HD
ENDBRANCH  11  46
BRANCH  14  48
ATOM     48  O   LIG    1       27.650 -29.389  13.900  0.00  0.00    -0.389 OA
ATOM     49  H   LIG    1       26.828 -29.633  13.444  0.00  0.00    +0.210 HD
ENDBRANCH  14  48
BRANCH  15  50
ATOM     50  O   LIG    1       29.140 -27.597  11.083  0.00  0.00    -0.389 OA
ATOM     51  H   LIG    1       29.572 -27.104  11.814  0.00  0.00    +0.210 HD
ENDBRANCH  15  50
BRANCH  17  52
ATOM     52  O   LIG    1       27.956 -28.152   8.857  0.00  0.00    -0.392 OA
ATOM     53  H   LIG    1       28.251 -27.551   9.576  0.00  0.00    +0.210 HD
ENDBRANCH  17  52
BRANCH  19  54
ATOM     54  O   LIG    1       25.472 -26.677   9.608  0.00  0.00    -0.364 OA
ATOM     55  H   LIG    1       26.431 -26.481   9.520  0.00  0.00    +0.213 HD
ENDBRANCH  19  54
BRANCH  21  56
ATOM     56  O   LIG    1       21.691 -26.191   7.785  0.00  0.00    -0.391 OA
ATOM     57  H   LIG    1       21.245 -26.053   8.642  0.00  0.00    +0.210 HD
ENDBRANCH  21  56
BRANCH  22  58
ATOM     58  C   LIG    1       23.335 -24.293   6.340  0.00  0.00    +0.313 C 
ATOM     59  O   LIG    1       22.431 -23.639   6.850  0.00  0.00    -0.251 OA
BRANCH  58  60
ATOM     60  O   LIG    1       24.034 -23.809   5.287  0.00  0.00    -0.480 OA
ATOM     61  H   LIG    1       23.632 -24.057   4.429  0.00  0.00    +0.295 HD
ENDBRANCH  58  60
ENDBRANCH  22  58
BRANCH  43  62
ATOM     62  O   LIG    1       22.554 -30.420   9.834  0.00  0.00    -0.391 OA
ATOM     63  H   LIG    1       22.636 -29.481  10.078  0.00  0.00    +0.210 HD
ENDBRANCH  43  62
BRANCH  25  64
ATOM     64  O   LIG    1       28.453 -23.721   7.204  0.00  0.00    -0.341 OA
BRANCH  64  65
ATOM     65  C   LIG    1       27.934 -23.037   8.349  0.00  0.00    +0.281 C 
ATOM     66  C   LIG    1       28.779 -21.847   8.871  0.00  0.00    +0.189 C 
ATOM     67  C   LIG    1       28.843 -20.724   7.817  0.00  0.00    +0.116 C 
ATOM     68  C   LIG    1       27.404 -20.305   7.467  0.00  0.00    +0.162 C 
ATOM     69  C   LIG    1       26.460 -21.486   7.152  0.00  0.00    +0.148 C 
ATOM     70  C   LIG    1       26.481 -21.944   5.698  0.00  0.00    +0.040 C 
ATOM     71  O   LIG    1       26.591 -22.575   8.081  0.00  0.00    -0.343 OA
BRANCH  67  72
ATOM     72  N   LIG    1       29.654 -21.052   6.631  0.00  0.00    -0.323 NA
ATOM     73  H   LIG    1       30.196 -21.899   6.819  0.00  0.00    +0.119 HD
ATOM     74  H   LIG    1       29.040 -21.328   5.859  0.00  0.00    +0.119 HD
ENDBRANCH  67  72
BRANCH  66  75
ATOM     75  O   LIG    1       30.094 -22.194   9.318  0.00  0.00    -0.385 OA
ATOM     76  H   LIG    1       30.159 -23.166   9.293  0.00  0.00    +0.210 HD
ENDBRANCH  66  75
BRANCH  68  77
ATOM     77  O   LIG    1       26.881 -19.585   8.606  0.00  0.00    -0.388 OA
ATOM     78  H   LIG    1       27.096 -20.097   9.407  0.00  0.00    +0.210 HD
ENDBRANCH  68  77
ENDBRANCH  64  65
ENDBRANCH  25  64
TORSDOF 15
ENDMDL
