MODEL 1
REMARK VINA RESULT:      -3.3      0.000      0.000
REMARK  Name = *****
REMARK                            x       y       z     vdW  Elec       q    Type
REMARK                         _______ _______ _______ _____ _____    ______ ____
ROOT
ATOM      1  C   LIG    1       25.500 -19.202   3.834  0.00  0.00    +0.213 C 
ENDROOT
BRANCH   1   2
ATOM      2  C   LIG    1       23.996 -19.375   4.138  0.00  0.00    -0.001 A 
ATOM      3  C   LIG    1       23.089 -18.333   3.850  0.00  0.00    +0.007 A 
ATOM      4  C   LIG    1       21.717 -18.487   4.070  0.00  0.00    +0.000 A 
ATOM      5  C   LIG    1       21.219 -19.691   4.557  0.00  0.00    +0.000 A 
ATOM      6  C   LIG    1       22.092 -20.739   4.831  0.00  0.00    +0.000 A 
ATOM      7  C   LIG    1       23.466 -20.586   4.622  0.00  0.00    +0.007 A 
ENDBRANCH   1   2
BRANCH   1   8
ATOM      8  C   LIG    1       26.396 -19.683   4.996  0.00  0.00    -0.001 A 
ATOM      9  C   LIG    1       25.888 -20.493   6.028  0.00  0.00    +0.007 A 
ATOM     10  C   LIG    1       26.721 -20.985   7.038  0.00  0.00    +0.000 A 
ATOM     11  C   LIG    1       28.070 -20.643   7.062  0.00  0.00    +0.000 A 
ATOM     12  C   LIG    1       28.586 -19.799   6.083  0.00  0.00    +0.000 A 
ATOM     13  C   LIG    1       27.758 -19.326   5.060  0.00  0.00    +0.007 A 
ENDBRANCH   1   8
BRANCH   1  14
ATOM     14  C   LIG    1       25.876 -17.771   3.327  0.00  0.00    +0.349 C 
ATOM     15  O   LIG    1       26.772 -17.517   2.531  0.00  0.00    -0.247 OA
BRANCH  14  16
ATOM     16  O   LIG    1       25.177 -16.787   3.985  0.00  0.00    -0.454 OA
BRANCH  16  20
ATOM     17  C   LIG    1       27.977 -13.308   3.252  0.00  0.00    +0.192 C 
ATOM     18  N   LIG    1       26.907 -14.198   3.899  0.00  0.00    +0.242 N 
ATOM     19  C   LIG    1       26.138 -14.920   2.763  0.00  0.00    +0.178 C 
ATOM     20  C   LIG    1       24.838 -15.612   3.221  0.00  0.00    +0.221 C 
ATOM     21  C   LIG    1       23.971 -14.664   4.046  0.00  0.00    +0.055 C 
ATOM     22  C   LIG    1       24.748 -14.069   5.213  0.00  0.00    +0.055 C 
ATOM     23  C   LIG    1       25.979 -13.312   4.732  0.00  0.00    +0.133 C 
ATOM     24  C   LIG    1       27.641 -15.195   4.799  0.00  0.00    +0.192 C 
ENDBRANCH  16  20
ENDBRANCH  14  16
ENDBRANCH   1  14
BRANCH   1  25
ATOM     25  O   LIG    1       25.805 -20.015   2.669  0.00  0.00    -0.370 OA
ATOM     26  H   LIG    1       26.698 -19.750   2.379  0.00  0.00    +0.212 HD
ENDBRANCH   1  25
TORSDOF 6
ENDMDL
MODEL 2
REMARK VINA RESULT:      -3.0      1.257      2.450
REMARK  Name = *****
REMARK                            x       y       z     vdW  Elec       q    Type
REMARK                         _______ _______ _______ _____ _____    ______ ____
ROOT
ATOM      1  C   LIG    1       25.555 -18.530   3.676  0.00  0.00    +0.213 C 
ENDROOT
BRANCH   1   2
ATOM      2  C   LIG    1       24.042 -18.285   3.865  0.00  0.00    -0.001 A 
ATOM      3  C   LIG    1       23.118 -19.319   3.605  0.00  0.00    +0.007 A 
ATOM      4  C   LIG    1       21.748 -19.136   3.819  0.00  0.00    +0.000 A 
ATOM      5  C   LIG    1       21.276 -17.927   4.319  0.00  0.00    +0.000 A 
ATOM      6  C   LIG    1       22.169 -16.899   4.600  0.00  0.00    +0.000 A 
ATOM      7  C   LIG    1       23.539 -17.074   4.378  0.00  0.00    +0.007 A 
ENDBRANCH   1   2
BRANCH   1   8
ATOM      8  C   LIG    1       26.146 -19.441   4.773  0.00  0.00    -0.001 A 
ATOM      9  C   LIG    1       27.505 -19.373   5.131  0.00  0.00    +0.007 A 
ATOM     10  C   LIG    1       28.018 -20.149   6.175  0.00  0.00    +0.000 A 
ATOM     11  C   LIG    1       27.194 -21.040   6.856  0.00  0.00    +0.000 A 
ATOM     12  C   LIG    1       25.858 -21.165   6.486  0.00  0.00    +0.000 A 
ATOM     13  C   LIG    1       25.339 -20.373   5.457  0.00  0.00    +0.007 A 
ENDBRANCH   1   8
BRANCH   1  14
ATOM     14  C   LIG    1       26.380 -17.219   3.462  0.00  0.00    +0.349 C 
ATOM     15  O   LIG    1       27.575 -17.172   3.195  0.00  0.00    -0.247 OA
BRANCH  14  16
ATOM     16  O   LIG    1       25.646 -16.092   3.747  0.00  0.00    -0.454 OA
BRANCH  16  20
ATOM     17  C   LIG    1       23.845 -11.994   4.418  0.00  0.00    +0.192 C 
ATOM     18  N   LIG    1       24.536 -13.181   3.733  0.00  0.00    +0.242 N 
ATOM     19  C   LIG    1       25.387 -13.917   4.799  0.00  0.00    +0.178 C 
ATOM     20  C   LIG    1       26.380 -14.942   4.216  0.00  0.00    +0.221 C 
ATOM     21  C   LIG    1       27.203 -14.330   3.085  0.00  0.00    +0.055 C 
ATOM     22  C   LIG    1       26.311 -13.720   2.012  0.00  0.00    +0.055 C 
ATOM     23  C   LIG    1       25.403 -12.644   2.592  0.00  0.00    +0.133 C 
ATOM     24  C   LIG    1       23.429 -14.083   3.181  0.00  0.00    +0.192 C 
ENDBRANCH  16  20
ENDBRANCH  14  16
ENDBRANCH   1  14
BRANCH   1  25
ATOM     25  O   LIG    1       25.731 -19.199   2.398  0.00  0.00    -0.370 OA
ATOM     26  H   LIG    1       26.242 -18.585   1.837  0.00  0.00    +0.212 HD
ENDBRANCH   1  25
TORSDOF 6
ENDMDL
MODEL 3
REMARK VINA RESULT:      -2.9      1.139      1.927
REMARK  Name = *****
REMARK                            x       y       z     vdW  Elec       q    Type
REMARK                         _______ _______ _______ _____ _____    ______ ____
ROOT
ATOM      1  C   LIG    1       25.549 -19.104   4.120  0.00  0.00    +0.213 C 
ENDROOT
BRANCH   1   2
ATOM      2  C   LIG    1       24.524 -20.015   4.830  0.00  0.00    -0.001 A 
ATOM      3  C   LIG    1       24.639 -20.269   6.213  0.00  0.00    +0.007 A 
ATOM      4  C   LIG    1       23.694 -21.050   6.886  0.00  0.00    +0.000 A 
ATOM      5  C   LIG    1       22.603 -21.571   6.199  0.00  0.00    +0.000 A 
ATOM      6  C   LIG    1       22.458 -21.319   4.838  0.00  0.00    +0.000 A 
ATOM      7  C   LIG    1       23.407 -20.548   4.160  0.00  0.00    +0.007 A 
ENDBRANCH   1   2
BRANCH   1   8
ATOM      8  C   LIG    1       26.932 -19.126   4.807  0.00  0.00    -0.001 A 
ATOM      9  C   LIG    1       27.933 -18.196   4.473  0.00  0.00    +0.007 A 
ATOM     10  C   LIG    1       29.157 -18.176   5.150  0.00  0.00    +0.000 A 
ATOM     11  C   LIG    1       29.422 -19.113   6.145  0.00  0.00    +0.000 A 
ATOM     12  C   LIG    1       28.470 -20.078   6.457  0.00  0.00    +0.000 A 
ATOM     13  C   LIG    1       27.237 -20.084   5.796  0.00  0.00    +0.007 A 
ENDBRANCH   1   8
BRANCH   1  14
ATOM     14  C   LIG    1       25.023 -17.655   3.858  0.00  0.00    +0.349 C 
ATOM     15  O   LIG    1       23.847 -17.346   3.711  0.00  0.00    -0.247 OA
BRANCH  14  16
ATOM     16  O   LIG    1       26.048 -16.759   3.665  0.00  0.00    -0.454 OA
BRANCH  16  20
ATOM     17  C   LIG    1       28.497 -12.953   3.641  0.00  0.00    +0.192 C 
ATOM     18  N   LIG    1       27.424 -13.985   4.012  0.00  0.00    +0.242 N 
ATOM     19  C   LIG    1       27.028 -14.746   2.720  0.00  0.00    +0.178 C 
ATOM     20  C   LIG    1       25.752 -15.600   2.857  0.00  0.00    +0.221 C 
ATOM     21  C   LIG    1       24.612 -14.793   3.470  0.00  0.00    +0.055 C 
ATOM     22  C   LIG    1       25.024 -14.159   4.793  0.00  0.00    +0.055 C 
ATOM     23  C   LIG    1       26.230 -13.247   4.618  0.00  0.00    +0.133 C 
ATOM     24  C   LIG    1       28.049 -14.926   5.045  0.00  0.00    +0.192 C 
ENDBRANCH  16  20
ENDBRANCH  14  16
ENDBRANCH   1  14
BRANCH   1  25
ATOM     25  O   LIG    1       25.714 -19.606   2.767  0.00  0.00    -0.370 OA
ATOM     26  H   LIG    1       24.919 -20.138   2.575  0.00  0.00    +0.212 HD
ENDBRANCH   1  25
TORSDOF 6
ENDMDL
MODEL 4
REMARK VINA RESULT:      -0.5      2.156      6.305
REMARK  Name = *****
REMARK                            x       y       z     vdW  Elec       q    Type
REMARK                         _______ _______ _______ _____ _____    ______ ____
ROOT
ATOM      1  C   LIG    1       26.355 -17.800   3.498  0.00  0.00    +0.213 C 
ENDROOT
BRANCH   1   2
ATOM      2  C   LIG    1       27.477 -18.266   4.452  0.00  0.00    -0.001 A 
ATOM      3  C   LIG    1       28.457 -17.352   4.895  0.00  0.00    +0.007 A 
ATOM      4  C   LIG    1       29.451 -17.740   5.798  0.00  0.00    +0.000 A 
ATOM      5  C   LIG    1       29.473 -19.038   6.297  0.00  0.00    +0.000 A 
ATOM      6  C   LIG    1       28.507 -19.952   5.889  0.00  0.00    +0.000 A 
ATOM      7  C   LIG    1       27.517 -19.571   4.978  0.00  0.00    +0.007 A 
ENDBRANCH   1   2
BRANCH   1   8
ATOM      8  C   LIG    1       26.145 -16.271   3.539  0.00  0.00    -0.001 A 
ATOM      9  C   LIG    1       24.895 -15.709   3.859  0.00  0.00    +0.007 A 
ATOM     10  C   LIG    1       24.730 -14.325   3.965  0.00  0.00    +0.000 A 
ATOM     11  C   LIG    1       25.799 -13.470   3.713  0.00  0.00    +0.000 A 
ATOM     12  C   LIG    1       27.032 -13.998   3.343  0.00  0.00    +0.000 A 
ATOM     13  C   LIG    1       27.204 -15.383   3.258  0.00  0.00    +0.007 A 
ENDBRANCH   1   8
BRANCH   1  14
ATOM     14  C   LIG    1       25.023 -18.602   3.658  0.00  0.00    +0.349 C 
ATOM     15  O   LIG    1       24.051 -18.513   2.917  0.00  0.00    -0.247 OA
BRANCH  14  16
ATOM     16  O   LIG    1       24.995 -19.336   4.821  0.00  0.00    -0.454 OA
BRANCH  16  20
ATOM     17  C   LIG    1       21.035 -21.525   4.755  0.00  0.00    +0.192 C 
ATOM     18  N   LIG    1       22.327 -20.880   5.272  0.00  0.00    +0.242 N 
ATOM     19  C   LIG    1       23.424 -21.081   4.195  0.00  0.00    +0.178 C 
ATOM     20  C   LIG    1       24.852 -20.764   4.682  0.00  0.00    +0.221 C 
ATOM     21  C   LIG    1       25.151 -21.467   6.004  0.00  0.00    +0.055 C 
ATOM     22  C   LIG    1       24.100 -21.144   7.058  0.00  0.00    +0.055 C 
ATOM     23  C   LIG    1       22.708 -21.549   6.594  0.00  0.00    +0.133 C 
ATOM     24  C   LIG    1       22.027 -19.396   5.494  0.00  0.00    +0.192 C 
ENDBRANCH  16  20
ENDBRANCH  14  16
ENDBRANCH   1  14
BRANCH   1  25
ATOM     25  O   LIG    1       26.755 -18.160   2.148  0.00  0.00    -0.370 OA
ATOM     26  H   LIG    1       26.442 -17.438   1.571  0.00  0.00    +0.212 HD
ENDBRANCH   1  25
TORSDOF 6
ENDMDL
