MODEL 1
REMARK VINA RESULT:      -6.7      0.000      0.000
REMARK  Name = *****
REMARK                            x       y       z     vdW  Elec       q    Type
REMARK                         _______ _______ _______ _____ _____    ______ ____
ROOT
ATOM      1  N   LIG    1       24.984 -24.663   6.527  0.00  0.00    -0.140 N 
ATOM      2  C   LIG    1       25.365 -23.323   6.612  0.00  0.00    +0.324 C 
ATOM      3  N   LIG    1       24.408 -22.388   6.269  0.00  0.00    -0.295 N 
ATOM      4  H   LIG    1       23.615 -22.694   5.721  0.00  0.00    +0.151 HD
ATOM      5  O   LIG    1       26.484 -22.983   7.022  0.00  0.00    -0.251 OA
ENDROOT
BRANCH   3   6
ATOM      6  C   LIG    1       24.646 -20.953   6.379  0.00  0.00    +0.074 C 
ATOM      7  C   LIG    1       25.484 -20.428   5.205  0.00  0.00    +0.022 C 
ATOM      8  C   LIG    1       24.683 -20.332   3.908  0.00  0.00    +0.002 C 
ATOM      9  C   LIG    1       23.440 -19.471   4.098  0.00  0.00    +0.000 C 
ATOM     10  C   LIG    1       22.556 -20.029   5.207  0.00  0.00    +0.002 C 
ATOM     11  C   LIG    1       23.323 -20.183   6.521  0.00  0.00    +0.022 C 
ENDBRANCH   3   6
BRANCH   1  13
ATOM     12  O   LIG    1       22.781 -24.604   6.744  0.00  0.00    -0.126 OA
ATOM     13  N   LIG    1       23.715 -24.996   6.035  0.00  0.00    +0.053 NA
ENDBRANCH   1  13
BRANCH   1  14
ATOM     14  C   LIG    1       25.904 -25.707   6.990  0.00  0.00    +0.155 C 
BRANCH  14  15
ATOM     15  C   LIG    1       25.616 -27.068   6.368  0.00  0.00    +0.130 C 
ATOM     16 CL   LIG    1       26.250 -27.134   4.701  0.00  0.00    -0.124 Cl
ENDBRANCH  14  15
ENDBRANCH   1  14
TORSDOF 4
ENDMDL
MODEL 2
REMARK VINA RESULT:      -6.6      4.062      5.430
REMARK  Name = *****
REMARK                            x       y       z     vdW  Elec       q    Type
REMARK                         _______ _______ _______ _____ _____    ______ ____
ROOT
ATOM      1  N   LIG    1       28.269 -20.398   6.930  0.00  0.00    -0.140 N 
ATOM      2  C   LIG    1       27.200 -20.471   6.035  0.00  0.00    +0.324 C 
ATOM      3  N   LIG    1       26.259 -21.452   6.278  0.00  0.00    -0.295 N 
ATOM      4  H   LIG    1       26.516 -22.221   6.882  0.00  0.00    +0.151 HD
ATOM      5  O   LIG    1       27.069 -19.667   5.100  0.00  0.00    -0.251 OA
ENDROOT
BRANCH   3   6
ATOM      6  C   LIG    1       25.056 -21.598   5.467  0.00  0.00    +0.074 C 
ATOM      7  C   LIG    1       24.708 -23.074   5.233  0.00  0.00    +0.022 C 
ATOM      8  C   LIG    1       24.115 -23.742   6.471  0.00  0.00    +0.002 C 
ATOM      9  C   LIG    1       22.891 -22.982   6.967  0.00  0.00    +0.000 C 
ATOM     10  C   LIG    1       23.242 -21.532   7.283  0.00  0.00    +0.002 C 
ATOM     11  C   LIG    1       23.877 -20.828   6.083  0.00  0.00    +0.022 C 
ENDBRANCH   3   6
BRANCH   1  13
ATOM     12  O   LIG    1       27.447 -21.329   8.763  0.00  0.00    -0.126 OA
ATOM     13  N   LIG    1       28.383 -21.344   7.956  0.00  0.00    +0.053 NA
ENDBRANCH   1  13
BRANCH   1  14
ATOM     14  C   LIG    1       29.240 -19.306   6.807  0.00  0.00    +0.155 C 
BRANCH  14  15
ATOM     15  C   LIG    1       30.322 -19.353   7.881  0.00  0.00    +0.130 C 
ATOM     16 CL   LIG    1       29.968 -18.168   9.168  0.00  0.00    -0.124 Cl
ENDBRANCH  14  15
ENDBRANCH   1  14
TORSDOF 4
ENDMDL
MODEL 3
REMARK VINA RESULT:      -6.6      7.926      9.322
REMARK  Name = *****
REMARK                            x       y       z     vdW  Elec       q    Type
REMARK                         _______ _______ _______ _____ _____    ______ ____
ROOT
ATOM      1  N   LIG    1       31.289 -17.012   9.889  0.00  0.00    -0.140 N 
ATOM      2  C   LIG    1       31.502 -18.035   8.965  0.00  0.00    +0.324 C 
ATOM      3  N   LIG    1       30.388 -18.745   8.563  0.00  0.00    -0.295 N 
ATOM      4  H   LIG    1       29.557 -18.696   9.138  0.00  0.00    +0.151 HD
ATOM      5  O   LIG    1       32.622 -18.267   8.488  0.00  0.00    -0.251 OA
ENDROOT
BRANCH   3   6
ATOM      6  C   LIG    1       30.453 -19.793   7.551  0.00  0.00    +0.074 C 
ATOM      7  C   LIG    1       29.354 -20.845   7.756  0.00  0.00    +0.022 C 
ATOM      8  C   LIG    1       27.974 -20.343   7.338  0.00  0.00    +0.002 C 
ATOM      9  C   LIG    1       27.984 -19.862   5.892  0.00  0.00    +0.000 C 
ATOM     10  C   LIG    1       29.015 -18.757   5.693  0.00  0.00    +0.002 C 
ATOM     11  C   LIG    1       30.412 -19.198   6.135  0.00  0.00    +0.022 C 
ENDBRANCH   3   6
BRANCH   1  13
ATOM     12  O   LIG    1       29.623 -17.704  11.174  0.00  0.00    -0.126 OA
ATOM     13  N   LIG    1       30.007 -16.806  10.416  0.00  0.00    +0.053 NA
ENDBRANCH   1  13
BRANCH   1  14
ATOM     14  C   LIG    1       32.403 -16.137  10.269  0.00  0.00    +0.155 C 
BRANCH  14  15
ATOM     15  C   LIG    1       33.024 -16.519  11.608  0.00  0.00    +0.130 C 
ATOM     16 CL   LIG    1       32.048 -15.867  12.952  0.00  0.00    -0.124 Cl
ENDBRANCH  14  15
ENDBRANCH   1  14
TORSDOF 4
ENDMDL
MODEL 4
REMARK VINA RESULT:      -6.4      4.934      6.364
REMARK  Name = *****
REMARK                            x       y       z     vdW  Elec       q    Type
REMARK                         _______ _______ _______ _____ _____    ______ ____
ROOT
ATOM      1  N   LIG    1       26.180 -21.031   7.451  0.00  0.00    -0.140 N 
ATOM      2  C   LIG    1       27.273 -20.398   6.860  0.00  0.00    +0.324 C 
ATOM      3  N   LIG    1       28.369 -20.177   7.670  0.00  0.00    -0.295 N 
ATOM      4  H   LIG    1       28.238 -20.211   8.672  0.00  0.00    +0.151 HD
ATOM      5  O   LIG    1       27.286 -20.095   5.658  0.00  0.00    -0.251 OA
ENDROOT
BRANCH   3   6
ATOM      6  C   LIG    1       29.606 -19.589   7.166  0.00  0.00    +0.074 C 
ATOM      7  C   LIG    1       29.733 -18.113   7.566  0.00  0.00    +0.022 C 
ATOM      8  C   LIG    1       30.090 -17.931   9.039  0.00  0.00    +0.002 C 
ATOM      9  C   LIG    1       31.367 -18.685   9.388  0.00  0.00    +0.000 C 
ATOM     10  C   LIG    1       31.225 -20.170   9.073  0.00  0.00    +0.002 C 
ATOM     11  C   LIG    1       30.829 -20.405   7.614  0.00  0.00    +0.022 C 
ENDBRANCH   3   6
BRANCH   1  13
ATOM     12  O   LIG    1       26.029 -20.355   9.555  0.00  0.00    -0.126 OA
ATOM     13  N   LIG    1       26.207 -21.332   8.819  0.00  0.00    +0.053 NA
ENDBRANCH   1  13
BRANCH   1  14
ATOM     14  C   LIG    1       25.029 -21.409   6.625  0.00  0.00    +0.155 C 
BRANCH  14  15
ATOM     15  C   LIG    1       23.716 -20.829   7.137  0.00  0.00    +0.130 C 
ATOM     16 CL   LIG    1       22.835 -20.024   5.811  0.00  0.00    -0.124 Cl
ENDBRANCH  14  15
ENDBRANCH   1  14
TORSDOF 4
ENDMDL
MODEL 5
REMARK VINA RESULT:      -6.3      2.094      3.189
REMARK  Name = *****
REMARK                            x       y       z     vdW  Elec       q    Type
REMARK                         _______ _______ _______ _____ _____    ______ ____
ROOT
ATOM      1  N   LIG    1       25.181 -25.963   5.943  0.00  0.00    -0.140 N 
ATOM      2  C   LIG    1       24.555 -24.848   6.502  0.00  0.00    +0.324 C 
ATOM      3  N   LIG    1       25.369 -23.778   6.816  0.00  0.00    -0.295 N 
ATOM      4  H   LIG    1       26.363 -23.942   6.900  0.00  0.00    +0.151 HD
ATOM      5  O   LIG    1       23.327 -24.795   6.662  0.00  0.00    -0.251 OA
ENDROOT
BRANCH   3   6
ATOM      6  C   LIG    1       24.841 -22.522   7.339  0.00  0.00    +0.074 C 
ATOM      7  C   LIG    1       25.687 -21.998   8.508  0.00  0.00    +0.022 C 
ATOM      8  C   LIG    1       27.016 -21.402   8.051  0.00  0.00    +0.002 C 
ATOM      9  C   LIG    1       26.795 -20.301   7.021  0.00  0.00    +0.000 C 
ATOM     10  C   LIG    1       26.026 -20.830   5.815  0.00  0.00    +0.002 C 
ATOM     11  C   LIG    1       24.701 -21.474   6.225  0.00  0.00    +0.022 C 
ENDBRANCH   3   6
BRANCH   1  13
ATOM     12  O   LIG    1       26.990 -26.816   4.992  0.00  0.00    -0.126 OA
ATOM     13  N   LIG    1       26.574 -25.982   5.804  0.00  0.00    +0.053 NA
ENDBRANCH   1  13
BRANCH   1  14
ATOM     14  C   LIG    1       24.366 -27.088   5.471  0.00  0.00    +0.155 C 
BRANCH  14  15
ATOM     15  C   LIG    1       24.379 -28.271   6.432  0.00  0.00    +0.130 C 
ATOM     16 CL   LIG    1       25.110 -29.698   5.648  0.00  0.00    -0.124 Cl
ENDBRANCH  14  15
ENDBRANCH   1  14
TORSDOF 4
ENDMDL
MODEL 6
REMARK VINA RESULT:      -6.3      4.980      6.399
REMARK  Name = *****
REMARK                            x       y       z     vdW  Elec       q    Type
REMARK                         _______ _______ _______ _____ _____    ______ ____
ROOT
ATOM      1  N   LIG    1       29.651 -19.848   6.981  0.00  0.00    -0.140 N 
ATOM      2  C   LIG    1       28.907 -20.758   7.733  0.00  0.00    +0.324 C 
ATOM      3  N   LIG    1       27.601 -20.965   7.333  0.00  0.00    -0.295 N 
ATOM      4  H   LIG    1       27.170 -20.275   6.733  0.00  0.00    +0.151 HD
ATOM      5  O   LIG    1       29.402 -21.389   8.678  0.00  0.00    -0.251 OA
ENDROOT
BRANCH   3   6
ATOM      6  C   LIG    1       26.732 -21.940   7.983  0.00  0.00    +0.074 C 
ATOM      7  C   LIG    1       25.540 -21.262   8.673  0.00  0.00    +0.022 C 
ATOM      8  C   LIG    1       24.483 -20.782   7.681  0.00  0.00    +0.002 C 
ATOM      9  C   LIG    1       24.003 -21.927   6.798  0.00  0.00    +0.000 C 
ATOM     10  C   LIG    1       25.168 -22.558   6.043  0.00  0.00    +0.002 C 
ATOM     11  C   LIG    1       26.274 -23.021   6.991  0.00  0.00    +0.022 C 
ENDBRANCH   3   6
BRANCH   1  13
ATOM     12  O   LIG    1       29.650 -18.129   5.585  0.00  0.00    -0.126 OA
ATOM     13  N   LIG    1       29.038 -19.143   5.937  0.00  0.00    +0.053 NA
ENDBRANCH   1  13
BRANCH   1  14
ATOM     14  C   LIG    1       31.077 -19.668   7.269  0.00  0.00    +0.155 C 
BRANCH  14  15
ATOM     15  C   LIG    1       31.331 -19.050   8.639  0.00  0.00    +0.130 C 
ATOM     16 CL   LIG    1       30.246 -17.657   8.901  0.00  0.00    -0.124 Cl
ENDBRANCH  14  15
ENDBRANCH   1  14
TORSDOF 4
ENDMDL
MODEL 7
REMARK VINA RESULT:      -6.2      3.544      4.644
REMARK  Name = *****
REMARK                            x       y       z     vdW  Elec       q    Type
REMARK                         _______ _______ _______ _____ _____    ______ ____
ROOT
ATOM      1  N   LIG    1       27.754 -20.913   7.005  0.00  0.00    -0.140 N 
ATOM      2  C   LIG    1       26.598 -21.534   6.531  0.00  0.00    +0.324 C 
ATOM      3  N   LIG    1       25.872 -20.842   5.581  0.00  0.00    -0.295 N 
ATOM      4  H   LIG    1       26.032 -19.848   5.488  0.00  0.00    +0.151 HD
ATOM      5  O   LIG    1       26.263 -22.669   6.900  0.00  0.00    -0.251 OA
ENDROOT
BRANCH   3   6
ATOM      6  C   LIG    1       24.683 -21.402   4.948  0.00  0.00    +0.074 C 
ATOM      7  C   LIG    1       23.479 -21.391   5.899  0.00  0.00    +0.022 C 
ATOM      8  C   LIG    1       22.887 -19.996   6.083  0.00  0.00    +0.002 C 
ATOM      9  C   LIG    1       22.507 -19.384   4.741  0.00  0.00    +0.000 C 
ATOM     10  C   LIG    1       23.715 -19.312   3.813  0.00  0.00    +0.002 C 
ATOM     11  C   LIG    1       24.369 -20.682   3.627  0.00  0.00    +0.022 C 
ENDBRANCH   3   6
BRANCH   1  13
ATOM     12  O   LIG    1       28.371 -19.547   5.374  0.00  0.00    -0.126 OA
ATOM     13  N   LIG    1       28.076 -19.620   6.573  0.00  0.00    +0.053 NA
ENDBRANCH   1  13
BRANCH   1  14
ATOM     14  C   LIG    1       28.640 -21.638   7.921  0.00  0.00    +0.155 C 
BRANCH  14  15
ATOM     15  C   LIG    1       29.981 -20.941   8.123  0.00  0.00    +0.130 C 
ATOM     16 CL   LIG    1       31.061 -21.953   9.121  0.00  0.00    -0.124 Cl
ENDBRANCH  14  15
ENDBRANCH   1  14
TORSDOF 4
ENDMDL
MODEL 8
REMARK VINA RESULT:      -6.1      3.273      4.128
REMARK  Name = *****
REMARK                            x       y       z     vdW  Elec       q    Type
REMARK                         _______ _______ _______ _____ _____    ______ ____
ROOT
ATOM      1  N   LIG    1       26.838 -21.314   7.792  0.00  0.00    -0.140 N 
ATOM      2  C   LIG    1       25.999 -21.795   6.786  0.00  0.00    +0.324 C 
ATOM      3  N   LIG    1       24.866 -21.051   6.521  0.00  0.00    -0.295 N 
ATOM      4  H   LIG    1       24.554 -20.390   7.219  0.00  0.00    +0.151 HD
ATOM      5  O   LIG    1       26.276 -22.808   6.128  0.00  0.00    -0.251 OA
ENDROOT
BRANCH   3   6
ATOM      6  C   LIG    1       23.938 -21.397   5.450  0.00  0.00    +0.074 C 
ATOM      7  C   LIG    1       22.557 -20.768   5.675  0.00  0.00    +0.022 C 
ATOM      8  C   LIG    1       22.539 -19.269   5.386  0.00  0.00    +0.002 C 
ATOM      9  C   LIG    1       23.028 -18.980   3.972  0.00  0.00    +0.000 C 
ATOM     10  C   LIG    1       24.435 -19.528   3.761  0.00  0.00    +0.002 C 
ATOM     11  C   LIG    1       24.515 -21.023   4.076  0.00  0.00    +0.022 C 
ENDBRANCH   3   6
BRANCH   1  13
ATOM     12  O   LIG    1       25.791 -20.422   9.528  0.00  0.00    -0.126 OA
ATOM     13  N   LIG    1       26.468 -20.177   8.523  0.00  0.00    +0.053 NA
ENDBRANCH   1  13
BRANCH   1  14
ATOM     14  C   LIG    1       28.119 -21.982   8.046  0.00  0.00    +0.155 C 
BRANCH  14  15
ATOM     15  C   LIG    1       29.319 -21.083   7.777  0.00  0.00    +0.130 C 
ATOM     16 CL   LIG    1       29.122 -20.237   6.218  0.00  0.00    -0.124 Cl
ENDBRANCH  14  15
ENDBRANCH   1  14
TORSDOF 4
ENDMDL
MODEL 9
REMARK VINA RESULT:      -5.9      4.093      5.686
REMARK  Name = *****
REMARK                            x       y       z     vdW  Elec       q    Type
REMARK                         _______ _______ _______ _____ _____    ______ ____
ROOT
ATOM      1  N   LIG    1       28.548 -19.635   7.077  0.00  0.00    -0.140 N 
ATOM      2  C   LIG    1       27.369 -20.165   7.603  0.00  0.00    +0.324 C 
ATOM      3  N   LIG    1       26.454 -20.655   6.693  0.00  0.00    -0.295 N 
ATOM      4  H   LIG    1       26.535 -20.363   5.728  0.00  0.00    +0.151 HD
ATOM      5  O   LIG    1       27.170 -20.240   8.824  0.00  0.00    -0.251 OA
ENDROOT
BRANCH   3   6
ATOM      6  C   LIG    1       25.212 -21.300   7.106  0.00  0.00    +0.074 C 
ATOM      7  C   LIG    1       24.231 -21.439   5.933  0.00  0.00    +0.022 C 
ATOM      8  C   LIG    1       24.635 -22.541   4.956  0.00  0.00    +0.002 C 
ATOM      9  C   LIG    1       24.794 -23.875   5.675  0.00  0.00    +0.000 C 
ATOM     10  C   LIG    1       25.827 -23.773   6.791  0.00  0.00    +0.002 C 
ATOM     11  C   LIG    1       25.488 -22.655   7.777  0.00  0.00    +0.022 C 
ENDBRANCH   3   6
BRANCH   1  13
ATOM     12  O   LIG    1       29.111 -18.450   5.293  0.00  0.00    -0.126 OA
ATOM     13  N   LIG    1       28.713 -19.552   5.688  0.00  0.00    +0.053 NA
ENDBRANCH   1  13
BRANCH   1  14
ATOM     14  C   LIG    1       29.617 -19.208   7.985  0.00  0.00    +0.155 C 
BRANCH  14  15
ATOM     15  C   LIG    1       30.881 -20.049   7.847  0.00  0.00    +0.130 C 
ATOM     16 CL   LIG    1       30.751 -21.528   8.837  0.00  0.00    -0.124 Cl
ENDBRANCH  14  15
ENDBRANCH   1  14
TORSDOF 4
ENDMDL
