MODEL 1
REMARK VINA RESULT:     -10.2      0.000      0.000
REMARK  Name = *****
REMARK                            x       y       z     vdW  Elec       q    Type
REMARK                         _______ _______ _______ _____ _____    ______ ____
ROOT
ATOM      1  O   LIG    1       25.925 -20.447   9.901  0.00  0.00    -0.245 OA
ATOM      2  C   LIG    1       26.010 -20.668   8.712  0.00  0.00    +0.341 C 
ATOM      3  C   LIG    1       27.125 -20.329   7.847  0.00  0.00    +0.067 A 
ATOM      4  C   LIG    1       26.815 -20.679   6.548  0.00  0.00    +0.019 A 
ATOM      5  C   LIG    1       27.731 -20.421   5.534  0.00  0.00    +0.009 A 
ATOM      6  C   LIG    1       28.965 -19.851   5.871  0.00  0.00    +0.001 A 
ATOM      7  C   LIG    1       29.262 -19.510   7.200  0.00  0.00    +0.001 A 
ATOM      8  C   LIG    1       25.456 -21.318   6.513  0.00  0.00    +0.190 C 
ATOM      9  C   LIG    1       28.326 -19.739   8.208  0.00  0.00    +0.015 A 
ATOM     10  O   LIG    1       25.063 -21.244   7.922  0.00  0.00    -0.440 OA
ENDROOT
BRANCH   8  11
ATOM     11  C   LIG    1       24.445 -20.485   5.696  0.00  0.00    +0.005 A 
ATOM     12  C   LIG    1       23.120 -20.302   6.138  0.00  0.00    +0.012 A 
ATOM     13  C   LIG    1       22.219 -19.520   5.410  0.00  0.00    +0.046 A 
ATOM     14  C   LIG    1       22.619 -18.931   4.219  0.00  0.00    +0.117 A 
ATOM     15  C   LIG    1       23.910 -19.109   3.742  0.00  0.00    +0.046 A 
ATOM     16  C   LIG    1       24.815 -19.883   4.475  0.00  0.00    +0.012 A 
BRANCH  14  17
ATOM     17  O   LIG    1       21.706 -18.179   3.543  0.00  0.00    -0.507 OA
ATOM     18  H   LIG    1       21.007 -18.766   3.208  0.00  0.00    +0.292 HD
ENDBRANCH  14  17
ENDBRANCH   8  11
BRANCH   8  19
ATOM     19  C   LIG    1       25.422 -22.825   6.182  0.00  0.00    +0.005 A 
ATOM     20  C   LIG    1       24.868 -23.346   4.999  0.00  0.00    +0.012 A 
ATOM     21  C   LIG    1       24.836 -24.723   4.760  0.00  0.00    +0.046 A 
ATOM     22  C   LIG    1       25.362 -25.601   5.696  0.00  0.00    +0.117 A 
ATOM     23  C   LIG    1       25.919 -25.125   6.875  0.00  0.00    +0.046 A 
ATOM     24  C   LIG    1       25.952 -23.748   7.112  0.00  0.00    +0.012 A 
BRANCH  22  25
ATOM     25  O   LIG    1       25.312 -26.933   5.414  0.00  0.00    -0.507 OA
ATOM     26  H   LIG    1       25.305 -27.426   6.251  0.00  0.00    +0.292 HD
ENDBRANCH  22  25
ENDBRANCH   8  19
TORSDOF 4
ENDMDL
MODEL 2
REMARK VINA RESULT:      -9.4      1.495      5.545
REMARK  Name = *****
REMARK                            x       y       z     vdW  Elec       q    Type
REMARK                         _______ _______ _______ _____ _____    ______ ____
ROOT
ATOM      1  O   LIG    1       22.901 -20.382   8.301  0.00  0.00    -0.245 OA
ATOM      2  C   LIG    1       23.686 -20.716   7.441  0.00  0.00    +0.341 C 
ATOM      3  C   LIG    1       23.620 -20.377   6.031  0.00  0.00    +0.067 A 
ATOM      4  C   LIG    1       24.656 -21.003   5.364  0.00  0.00    +0.019 A 
ATOM      5  C   LIG    1       24.776 -20.843   3.989  0.00  0.00    +0.009 A 
ATOM      6  C   LIG    1       23.865 -20.011   3.324  0.00  0.00    +0.001 A 
ATOM      7  C   LIG    1       22.826 -19.379   4.024  0.00  0.00    +0.001 A 
ATOM      8  C   LIG    1       25.492 -21.771   6.348  0.00  0.00    +0.190 C 
ATOM      9  C   LIG    1       22.688 -19.570   5.398  0.00  0.00    +0.015 A 
ATOM     10  O   LIG    1       24.778 -21.513   7.601  0.00  0.00    -0.440 OA
ENDROOT
BRANCH   8  11
ATOM     11  C   LIG    1       25.448 -23.291   6.082  0.00  0.00    +0.005 A 
ATOM     12  C   LIG    1       24.926 -23.809   4.880  0.00  0.00    +0.012 A 
ATOM     13  C   LIG    1       24.918 -25.185   4.633  0.00  0.00    +0.046 A 
ATOM     14  C   LIG    1       25.406 -26.063   5.590  0.00  0.00    +0.117 A 
ATOM     15  C   LIG    1       25.905 -25.589   6.795  0.00  0.00    +0.046 A 
ATOM     16  C   LIG    1       25.924 -24.212   7.039  0.00  0.00    +0.012 A 
BRANCH  14  17
ATOM     17  O   LIG    1       25.376 -27.395   5.305  0.00  0.00    -0.507 OA
ATOM     18  H   LIG    1       26.182 -27.806   5.658  0.00  0.00    +0.292 HD
ENDBRANCH  14  17
ENDBRANCH   8  11
BRANCH   8  19
ATOM     19  C   LIG    1       26.915 -21.230   6.598  0.00  0.00    +0.005 A 
ATOM     20  C   LIG    1       27.757 -21.709   7.617  0.00  0.00    +0.012 A 
ATOM     21  C   LIG    1       29.029 -21.164   7.821  0.00  0.00    +0.046 A 
ATOM     22  C   LIG    1       29.481 -20.137   7.006  0.00  0.00    +0.117 A 
ATOM     23  C   LIG    1       28.680 -19.639   5.987  0.00  0.00    +0.046 A 
ATOM     24  C   LIG    1       27.409 -20.185   5.784  0.00  0.00    +0.012 A 
BRANCH  22  25
ATOM     25  O   LIG    1       30.730 -19.644   7.241  0.00  0.00    -0.507 OA
ATOM     26  H   LIG    1       31.247 -20.321   7.706  0.00  0.00    +0.292 HD
ENDBRANCH  22  25
ENDBRANCH   8  19
TORSDOF 4
ENDMDL
MODEL 3
REMARK VINA RESULT:      -7.6      5.412      8.821
REMARK  Name = *****
REMARK                            x       y       z     vdW  Elec       q    Type
REMARK                         _______ _______ _______ _____ _____    ______ ____
ROOT
ATOM      1  O   LIG    1       22.317 -30.472   9.733  0.00  0.00    -0.245 OA
ATOM      2  C   LIG    1       23.402 -30.192   9.272  0.00  0.00    +0.341 C 
ATOM      3  C   LIG    1       24.606 -29.880  10.021  0.00  0.00    +0.067 A 
ATOM      4  C   LIG    1       25.616 -29.546   9.139  0.00  0.00    +0.019 A 
ATOM      5  C   LIG    1       26.862 -29.181   9.637  0.00  0.00    +0.009 A 
ATOM      6  C   LIG    1       27.069 -29.208  11.022  0.00  0.00    +0.001 A 
ATOM      7  C   LIG    1       26.030 -29.559  11.898  0.00  0.00    +0.001 A 
ATOM      8  C   LIG    1       25.109 -29.666   7.730  0.00  0.00    +0.190 C 
ATOM      9  C   LIG    1       24.772 -29.890  11.397  0.00  0.00    +0.015 A 
ATOM     10  O   LIG    1       23.719 -30.070   7.954  0.00  0.00    -0.440 OA
ENDROOT
BRANCH   8  11
ATOM     11  C   LIG    1       25.095 -28.304   7.002  0.00  0.00    +0.005 A 
ATOM     12  C   LIG    1       24.138 -28.015   6.009  0.00  0.00    +0.012 A 
ATOM     13  C   LIG    1       24.111 -26.768   5.377  0.00  0.00    +0.046 A 
ATOM     14  C   LIG    1       25.053 -25.805   5.707  0.00  0.00    +0.117 A 
ATOM     15  C   LIG    1       26.024 -26.064   6.663  0.00  0.00    +0.046 A 
ATOM     16  C   LIG    1       26.045 -27.307   7.305  0.00  0.00    +0.012 A 
BRANCH  14  17
ATOM     17  O   LIG    1       24.989 -24.606   5.063  0.00  0.00    -0.507 OA
ATOM     18  H   LIG    1       25.772 -24.083   5.301  0.00  0.00    +0.292 HD
ENDBRANCH  14  17
ENDBRANCH   8  11
BRANCH   8  19
ATOM     19  C   LIG    1       25.711 -30.809   6.887  0.00  0.00    +0.005 A 
ATOM     20  C   LIG    1       26.498 -31.840   7.431  0.00  0.00    +0.012 A 
ATOM     21  C   LIG    1       27.045 -32.839   6.619  0.00  0.00    +0.046 A 
ATOM     22  C   LIG    1       26.810 -32.826   5.252  0.00  0.00    +0.117 A 
ATOM     23  C   LIG    1       26.037 -31.826   4.678  0.00  0.00    +0.046 A 
ATOM     24  C   LIG    1       25.489 -30.829   5.491  0.00  0.00    +0.012 A 
BRANCH  22  25
ATOM     25  O   LIG    1       27.361 -33.823   4.505  0.00  0.00    -0.507 OA
ATOM     26  H   LIG    1       28.278 -33.956   4.794  0.00  0.00    +0.292 HD
ENDBRANCH  22  25
ENDBRANCH   8  19
TORSDOF 4
ENDMDL
