MODEL 1
REMARK VINA RESULT:      12.8      0.000      0.000
REMARK  Name = *****
REMARK                            x       y       z     vdW  Elec       q    Type
REMARK                         _______ _______ _______ _____ _____    ______ ____
ROOT
ATOM      1  C   LIG    1       26.796 -28.356  10.005  0.00  0.00    +0.150 C 
ATOM      2  C   LIG    1       25.573 -29.346  10.111  0.00  0.00    +0.060 C 
ATOM      3  C   LIG    1       24.367 -28.833   9.324  0.00  0.00    +0.014 C 
ATOM      4  C   LIG    1       25.881 -30.891   9.942  0.00  0.00    +0.187 C 
ATOM      5  C   LIG    1       24.988 -31.867   9.063  0.00  0.00    +0.056 C 
ATOM      6  C   LIG    1       24.979 -31.575   7.567  0.00  0.00    +0.014 C 
ATOM      7  C   LIG    1       23.696 -32.383   9.761  0.00  0.00    +0.126 C 
ATOM      8  C   LIG    1       22.232 -32.264   9.212  0.00  0.00    +0.044 C 
ATOM      9  C   LIG    1       21.990 -31.486   7.922  0.00  0.00    +0.013 C 
ATOM     10  C   LIG    1       21.341 -31.749  10.378  0.00  0.00    +0.126 C 
ATOM     11  C   LIG    1       19.805 -31.688  10.141  0.00  0.00    +0.037 C 
ATOM     12  C   LIG    1       19.232 -33.017   9.648  0.00  0.00    +0.014 C 
ATOM     13  C   LIG    1       19.122 -31.291  11.443  0.00  0.00    -0.021 C 
ATOM     14  C   LIG    1       18.925 -30.015  11.817  0.00  0.00    -0.003 C 
ATOM     15  C   LIG    1       18.456 -29.662  13.138  0.00  0.00    +0.008 C 
ATOM     16  C   LIG    1       18.717 -28.522  13.808  0.00  0.00    +0.011 C 
ATOM     17  C   LIG    1       18.133 -28.225  15.155  0.00  0.00    +0.049 C 
ATOM     18  C   LIG    1       19.584 -27.434  13.285  0.00  0.00    +0.244 C 
ATOM     19  O   LIG    1       19.213 -26.265  13.233  0.00  0.00    -0.270 OA
ATOM     20  N   LIG    1       20.849 -27.802  12.880  0.00  0.00    -0.277 N 
ATOM     21  H   LIG    1       20.970 -27.230  12.043  0.00  0.00    +0.155 HD
ATOM     22  C   LIG    1       21.959 -27.392  13.695  0.00  0.00    +0.103 A 
ATOM     23  C   LIG    1       22.372 -26.034  13.721  0.00  0.00    +0.151 A 
ATOM     24  C   LIG    1       23.658 -25.613  14.147  0.00  0.00    +0.070 A 
ATOM     25  C   LIG    1       24.547 -26.615  14.602  0.00  0.00    +0.031 A 
ATOM     26  C   LIG    1       24.084 -27.945  14.767  0.00  0.00    +0.101 A 
ATOM     27  N   LIG    1       24.738 -29.000  15.333  0.00  0.00    -0.227 NA
ATOM     28  C   LIG    1       23.980 -30.044  15.135  0.00  0.00    +0.139 A 
ATOM     29  N   LIG    1       22.828 -29.711  14.434  0.00  0.00    -0.297 N 
ATOM     30  C   LIG    1       21.925 -30.683  14.016  0.00  0.00    +0.093 A 
ATOM     31  C   LIG    1       22.142 -31.977  14.304  0.00  0.00    +0.021 A 
ATOM     32  C   LIG    1       23.323 -32.352  15.075  0.00  0.00    -0.046 A 
ATOM     33  C   LIG    1       23.517 -33.806  15.382  0.00  0.00    +0.044 C 
ATOM     34  C   LIG    1       24.197 -31.407  15.475  0.00  0.00    +0.050 A 
ATOM     35  C   LIG    1       25.901 -26.288  14.726  0.00  0.00    +0.077 A 
ATOM     36  C   LIG    1       27.098 -27.124  14.740  0.00  0.00    +0.250 C 
ATOM     37  O   LIG    1       27.280 -28.155  15.337  0.00  0.00    -0.284 OA
ATOM     38  C   LIG    1       28.116 -26.361  13.900  0.00  0.00    +0.314 C 
ATOM     39  C   LIG    1       29.522 -26.526  14.460  0.00  0.00    +0.114 C 
ATOM     40  O   LIG    1       27.718 -24.967  14.109  0.00  0.00    -0.444 OA
ATOM     41  O   LIG    1       28.115 -26.845  12.526  0.00  0.00    -0.453 OA
ATOM     42  C   LIG    1       27.109 -26.398  11.721  0.00  0.00    +0.190 C 
ATOM     43  C   LIG    1       26.371 -25.021  14.421  0.00  0.00    +0.143 A 
ATOM     44  C   LIG    1       25.518 -23.953  14.209  0.00  0.00    +0.034 A 
ATOM     45  C   LIG    1       26.045 -22.570  13.968  0.00  0.00    +0.051 C 
ATOM     46  C   LIG    1       24.161 -24.273  14.045  0.00  0.00    +0.135 A 
ATOM     47  C   LIG    1       22.832 -28.329  14.273  0.00  0.00    +0.099 A 
ATOM     48  C   LIG    1       26.517 -27.036  10.700  0.00  0.00    +0.042 C 
ENDROOT
BRANCH   1  50
ATOM     49  C   LIG    1       25.930 -27.326   7.971  0.00  0.00    +0.194 C 
ATOM     50  O   LIG    1       27.025 -27.873   8.667  0.00  0.00    -0.375 OA
ENDBRANCH   1  50
BRANCH   7  51
ATOM     51  O   LIG    1       23.869 -33.825   9.906  0.00  0.00    -0.391 OA
ATOM     52  H   LIG    1       23.511 -34.086  10.774  0.00  0.00    +0.210 HD
ENDBRANCH   7  51
BRANCH  10  53
ATOM     53  O   LIG    1       21.811 -30.442  10.744  0.00  0.00    -0.391 OA
ATOM     54  H   LIG    1       21.409 -30.215  11.599  0.00  0.00    +0.210 HD
ENDBRANCH  10  53
BRANCH  23  55
ATOM     55  O   LIG    1       21.542 -25.057  13.195  0.00  0.00    -0.504 OA
ATOM     56  H   LIG    1       20.935 -24.735  13.900  0.00  0.00    +0.292 HD
ENDBRANCH  23  55
BRANCH  46  57
ATOM     57  O   LIG    1       23.334 -23.241  13.671  0.00  0.00    -0.506 OA
ATOM     58  H   LIG    1       22.456 -23.417  14.066  0.00  0.00    +0.292 HD
ENDBRANCH  46  57
BRANCH   4  59
ATOM     59  O   LIG    1       27.240 -31.118   9.488  0.00  0.00    -0.461 OA
BRANCH  59  60
ATOM     60  C   LIG    1       27.481 -32.397   9.073  0.00  0.00    +0.304 C 
ATOM     61  O   LIG    1       27.438 -33.380   9.799  0.00  0.00    -0.251 OA
ATOM     62  C   LIG    1       27.600 -32.467   7.577  0.00  0.00    +0.136 C 
ENDBRANCH  59  60
ENDBRANCH   4  59
TORSDOF 7
ENDMDL
