MODEL 1
REMARK VINA RESULT:      -8.7      0.000      0.000
REMARK  Name = *****
REMARK                            x       y       z     vdW  Elec       q    Type
REMARK                         _______ _______ _______ _____ _____    ______ ____
ROOT
ATOM      1  O   LIG    1       24.775 -21.517   8.510  0.00  0.00    -0.244 OA
ATOM      2  C   LIG    1       24.267 -21.958   7.493  0.00  0.00    +0.348 C 
ENDROOT
BRANCH   2   3
ATOM      3  C   LIG    1       24.528 -23.327   6.992  0.00  0.00    +0.101 A 
ATOM      4  C   LIG    1       23.512 -24.225   6.646  0.00  0.00    +0.131 A 
ATOM      5  C   LIG    1       23.831 -25.521   6.237  0.00  0.00    +0.046 A 
ATOM      6  C   LIG    1       25.167 -25.916   6.154  0.00  0.00    +0.004 A 
ATOM      7  C   LIG    1       26.187 -25.018   6.467  0.00  0.00    +0.001 A 
ATOM      8  C   LIG    1       25.870 -23.724   6.881  0.00  0.00    +0.019 A 
BRANCH   4   9
ATOM      9  O   LIG    1       22.202 -23.841   6.678  0.00  0.00    -0.506 OA
ATOM     10  H   LIG    1       21.736 -24.195   5.903  0.00  0.00    +0.292 HD
ENDBRANCH   4   9
ENDBRANCH   2   3
BRANCH   2  11
ATOM     11  O   LIG    1       23.270 -21.382   6.718  0.00  0.00    -0.422 OA
BRANCH  11  12
ATOM     12  C   LIG    1       23.557 -20.505   5.654  0.00  0.00    +0.132 A 
ATOM     13  C   LIG    1       24.750 -20.533   4.939  0.00  0.00    +0.046 A 
ATOM     14  C   LIG    1       24.939 -19.636   3.889  0.00  0.00    +0.004 A 
ATOM     15  C   LIG    1       23.929 -18.739   3.542  0.00  0.00    +0.000 A 
ATOM     16  C   LIG    1       22.723 -18.734   4.245  0.00  0.00    +0.004 A 
ATOM     17  C   LIG    1       22.533 -19.622   5.302  0.00  0.00    +0.046 A 
ENDBRANCH  11  12
ENDBRANCH   2  11
TORSDOF 4
ENDMDL
MODEL 2
REMARK VINA RESULT:      -8.6      1.063      5.189
REMARK  Name = *****
REMARK                            x       y       z     vdW  Elec       q    Type
REMARK                         _______ _______ _______ _____ _____    ______ ____
ROOT
ATOM      1  O   LIG    1       25.157 -20.629   8.243  0.00  0.00    -0.244 OA
ATOM      2  C   LIG    1       24.388 -21.099   7.421  0.00  0.00    +0.348 C 
ENDROOT
BRANCH   2   3
ATOM      3  C   LIG    1       24.152 -20.482   6.095  0.00  0.00    +0.101 A 
ATOM      4  C   LIG    1       25.155 -20.319   5.134  0.00  0.00    +0.131 A 
ATOM      5  C   LIG    1       24.873 -19.675   3.928  0.00  0.00    +0.046 A 
ATOM      6  C   LIG    1       23.583 -19.209   3.672  0.00  0.00    +0.004 A 
ATOM      7  C   LIG    1       22.569 -19.394   4.613  0.00  0.00    +0.001 A 
ATOM      8  C   LIG    1       22.851 -20.032   5.820  0.00  0.00    +0.019 A 
BRANCH   4   9
ATOM      9  O   LIG    1       26.412 -20.809   5.348  0.00  0.00    -0.506 OA
ATOM     10  H   LIG    1       27.004 -20.520   4.635  0.00  0.00    +0.292 HD
ENDBRANCH   4   9
ENDBRANCH   2   3
BRANCH   2  11
ATOM     11  O   LIG    1       23.733 -22.321   7.467  0.00  0.00    -0.422 OA
BRANCH  11  12
ATOM     12  C   LIG    1       24.323 -23.508   6.991  0.00  0.00    +0.132 A 
ATOM     13  C   LIG    1       25.690 -23.760   7.047  0.00  0.00    +0.046 A 
ATOM     14  C   LIG    1       26.183 -24.972   6.566  0.00  0.00    +0.004 A 
ATOM     15  C   LIG    1       25.308 -25.934   6.060  0.00  0.00    +0.000 A 
ATOM     16  C   LIG    1       23.934 -25.686   6.031  0.00  0.00    +0.004 A 
ATOM     17  C   LIG    1       23.438 -24.472   6.502  0.00  0.00    +0.046 A 
ENDBRANCH  11  12
ENDBRANCH   2  11
TORSDOF 4
ENDMDL
MODEL 3
REMARK VINA RESULT:      -8.5      3.181      4.272
REMARK  Name = *****
REMARK                            x       y       z     vdW  Elec       q    Type
REMARK                         _______ _______ _______ _____ _____    ______ ____
ROOT
ATOM      1  O   LIG    1       26.014 -20.690   9.187  0.00  0.00    -0.244 OA
ATOM      2  C   LIG    1       26.320 -21.568   8.398  0.00  0.00    +0.348 C 
ENDROOT
BRANCH   2   3
ATOM      3  C   LIG    1       25.320 -22.421   7.715  0.00  0.00    +0.101 A 
ATOM      4  C   LIG    1       23.994 -22.030   7.502  0.00  0.00    +0.131 A 
ATOM      5  C   LIG    1       23.091 -22.910   6.904  0.00  0.00    +0.046 A 
ATOM      6  C   LIG    1       23.516 -24.176   6.499  0.00  0.00    +0.004 A 
ATOM      7  C   LIG    1       24.844 -24.563   6.679  0.00  0.00    +0.001 A 
ATOM      8  C   LIG    1       25.746 -23.687   7.282  0.00  0.00    +0.019 A 
BRANCH   4   9
ATOM      9  O   LIG    1       23.572 -20.778   7.851  0.00  0.00    -0.506 OA
ATOM     10  H   LIG    1       24.335 -20.182   7.922  0.00  0.00    +0.292 HD
ENDBRANCH   4   9
ENDBRANCH   2   3
BRANCH   2  11
ATOM     11  O   LIG    1       27.573 -21.839   7.868  0.00  0.00    -0.422 OA
BRANCH  11  12
ATOM     12  C   LIG    1       28.362 -20.846   7.255  0.00  0.00    +0.132 A 
ATOM     13  C   LIG    1       27.916 -20.058   6.199  0.00  0.00    +0.046 A 
ATOM     14  C   LIG    1       28.761 -19.086   5.666  0.00  0.00    +0.004 A 
ATOM     15  C   LIG    1       30.032 -18.889   6.206  0.00  0.00    +0.000 A 
ATOM     16  C   LIG    1       30.464 -19.665   7.284  0.00  0.00    +0.004 A 
ATOM     17  C   LIG    1       29.626 -20.644   7.814  0.00  0.00    +0.046 A 
ENDBRANCH  11  12
ENDBRANCH   2  11
TORSDOF 4
ENDMDL
MODEL 4
REMARK VINA RESULT:      -8.2      0.761      1.715
REMARK  Name = *****
REMARK                            x       y       z     vdW  Elec       q    Type
REMARK                         _______ _______ _______ _____ _____    ______ ____
ROOT
ATOM      1  O   LIG    1       24.067 -21.634   8.293  0.00  0.00    -0.244 OA
ATOM      2  C   LIG    1       23.876 -22.165   7.212  0.00  0.00    +0.348 C 
ENDROOT
BRANCH   2   3
ATOM      3  C   LIG    1       24.421 -23.497   6.862  0.00  0.00    +0.101 A 
ATOM      4  C   LIG    1       25.790 -23.786   6.842  0.00  0.00    +0.131 A 
ATOM      5  C   LIG    1       26.234 -25.048   6.445  0.00  0.00    +0.046 A 
ATOM      6  C   LIG    1       25.311 -26.030   6.084  0.00  0.00    +0.004 A 
ATOM      7  C   LIG    1       23.943 -25.760   6.130  0.00  0.00    +0.001 A 
ATOM      8  C   LIG    1       23.497 -24.498   6.522  0.00  0.00    +0.019 A 
BRANCH   4   9
ATOM      9  O   LIG    1       26.705 -22.852   7.235  0.00  0.00    -0.506 OA
ATOM     10  H   LIG    1       26.924 -22.980   8.173  0.00  0.00    +0.292 HD
ENDBRANCH   4   9
ENDBRANCH   2   3
BRANCH   2  11
ATOM     11  O   LIG    1       23.026 -21.751   6.196  0.00  0.00    -0.422 OA
BRANCH  11  12
ATOM     12  C   LIG    1       23.364 -20.710   5.310  0.00  0.00    +0.132 A 
ATOM     13  C   LIG    1       24.537 -20.692   4.562  0.00  0.00    +0.046 A 
ATOM     14  C   LIG    1       24.780 -19.626   3.697  0.00  0.00    +0.004 A 
ATOM     15  C   LIG    1       23.841 -18.602   3.563  0.00  0.00    +0.000 A 
ATOM     16  C   LIG    1       22.654 -18.639   4.297  0.00  0.00    +0.004 A 
ATOM     17  C   LIG    1       22.411 -19.698   5.170  0.00  0.00    +0.046 A 
ENDBRANCH  11  12
ENDBRANCH   2  11
TORSDOF 4
ENDMDL
MODEL 5
REMARK VINA RESULT:      -8.0      7.047      8.315
REMARK  Name = *****
REMARK                            x       y       z     vdW  Elec       q    Type
REMARK                         _______ _______ _______ _____ _____    ______ ____
ROOT
ATOM      1  O   LIG    1       31.812 -20.231   7.728  0.00  0.00    -0.244 OA
ATOM      2  C   LIG    1       30.971 -19.396   7.442  0.00  0.00    +0.348 C 
ENDROOT
BRANCH   2   3
ATOM      3  C   LIG    1       29.623 -19.749   6.939  0.00  0.00    +0.101 A 
ATOM      4  C   LIG    1       29.012 -19.103   5.859  0.00  0.00    +0.131 A 
ATOM      5  C   LIG    1       27.715 -19.449   5.477  0.00  0.00    +0.046 A 
ATOM      6  C   LIG    1       27.033 -20.456   6.161  0.00  0.00    +0.004 A 
ATOM      7  C   LIG    1       27.645 -21.127   7.220  0.00  0.00    +0.001 A 
ATOM      8  C   LIG    1       28.939 -20.778   7.606  0.00  0.00    +0.019 A 
BRANCH   4   9
ATOM      9  O   LIG    1       29.682 -18.147   5.150  0.00  0.00    -0.506 OA
ATOM     10  H   LIG    1       30.597 -18.081   5.469  0.00  0.00    +0.292 HD
ENDBRANCH   4   9
ENDBRANCH   2   3
BRANCH   2  11
ATOM     11  O   LIG    1       31.017 -18.027   7.667  0.00  0.00    -0.422 OA
BRANCH  11  12
ATOM     12  C   LIG    1       31.167 -17.481   8.956  0.00  0.00    +0.132 A 
ATOM     13  C   LIG    1       30.263 -17.702   9.991  0.00  0.00    +0.046 A 
ATOM     14  C   LIG    1       30.502 -17.133  11.241  0.00  0.00    +0.004 A 
ATOM     15  C   LIG    1       31.652 -16.374  11.458  0.00  0.00    +0.000 A 
ATOM     16  C   LIG    1       32.570 -16.179  10.423  0.00  0.00    +0.004 A 
ATOM     17  C   LIG    1       32.330 -16.737   9.169  0.00  0.00    +0.046 A 
ENDBRANCH  11  12
ENDBRANCH   2  11
TORSDOF 4
ENDMDL
MODEL 6
REMARK VINA RESULT:      -7.9      3.601      5.705
REMARK  Name = *****
REMARK                            x       y       z     vdW  Elec       q    Type
REMARK                         _______ _______ _______ _____ _____    ______ ____
ROOT
ATOM      1  O   LIG    1       27.048 -21.819   8.809  0.00  0.00    -0.244 OA
ATOM      2  C   LIG    1       27.249 -21.454   7.663  0.00  0.00    +0.348 C 
ENDROOT
BRANCH   2   3
ATOM      3  C   LIG    1       28.424 -20.641   7.272  0.00  0.00    +0.101 A 
ATOM      4  C   LIG    1       29.662 -20.719   7.919  0.00  0.00    +0.131 A 
ATOM      5  C   LIG    1       30.708 -19.880   7.534  0.00  0.00    +0.046 A 
ATOM      6  C   LIG    1       30.526 -18.973   6.489  0.00  0.00    +0.004 A 
ATOM      7  C   LIG    1       29.304 -18.909   5.819  0.00  0.00    +0.001 A 
ATOM      8  C   LIG    1       28.256 -19.744   6.205  0.00  0.00    +0.019 A 
BRANCH   4   9
ATOM      9  O   LIG    1       29.873 -21.632   8.913  0.00  0.00    -0.506 OA
ATOM     10  H   LIG    1       30.100 -22.493   8.526  0.00  0.00    +0.292 HD
ENDBRANCH   4   9
ENDBRANCH   2   3
BRANCH   2  11
ATOM     11  O   LIG    1       26.565 -21.830   6.516  0.00  0.00    -0.422 OA
BRANCH  11  12
ATOM     12  C   LIG    1       25.376 -22.583   6.562  0.00  0.00    +0.132 A 
ATOM     13  C   LIG    1       25.340 -23.966   6.416  0.00  0.00    +0.046 A 
ATOM     14  C   LIG    1       24.116 -24.630   6.492  0.00  0.00    +0.004 A 
ATOM     15  C   LIG    1       22.944 -23.915   6.740  0.00  0.00    +0.000 A 
ATOM     16  C   LIG    1       22.990 -22.530   6.912  0.00  0.00    +0.004 A 
ATOM     17  C   LIG    1       24.210 -21.861   6.827  0.00  0.00    +0.046 A 
ENDBRANCH  11  12
ENDBRANCH   2  11
TORSDOF 4
ENDMDL
MODEL 7
REMARK VINA RESULT:      -7.9      3.718      5.277
REMARK  Name = *****
REMARK                            x       y       z     vdW  Elec       q    Type
REMARK                         _______ _______ _______ _____ _____    ______ ____
ROOT
ATOM      1  O   LIG    1       26.993 -21.563   8.790  0.00  0.00    -0.244 OA
ATOM      2  C   LIG    1       27.285 -21.231   7.654  0.00  0.00    +0.348 C 
ENDROOT
BRANCH   2   3
ATOM      3  C   LIG    1       28.542 -20.523   7.321  0.00  0.00    +0.101 A 
ATOM      4  C   LIG    1       29.744 -20.726   8.007  0.00  0.00    +0.131 A 
ATOM      5  C   LIG    1       30.876 -19.980   7.677  0.00  0.00    +0.046 A 
ATOM      6  C   LIG    1       30.815 -19.041   6.646  0.00  0.00    +0.004 A 
ATOM      7  C   LIG    1       29.629 -18.853   5.936  0.00  0.00    +0.001 A 
ATOM      8  C   LIG    1       28.496 -19.594   6.268  0.00  0.00    +0.019 A 
BRANCH   4   9
ATOM      9  O   LIG    1       29.834 -21.673   8.989  0.00  0.00    -0.506 OA
ATOM     10  H   LIG    1       30.039 -22.536   8.595  0.00  0.00    +0.292 HD
ENDBRANCH   4   9
ENDBRANCH   2   3
BRANCH   2  11
ATOM     11  O   LIG    1       26.635 -21.564   6.474  0.00  0.00    -0.422 OA
BRANCH  11  12
ATOM     12  C   LIG    1       25.359 -21.063   6.151  0.00  0.00    +0.132 A 
ATOM     13  C   LIG    1       24.299 -21.031   7.051  0.00  0.00    +0.046 A 
ATOM     14  C   LIG    1       23.074 -20.500   6.647  0.00  0.00    +0.004 A 
ATOM     15  C   LIG    1       22.924 -19.982   5.361  0.00  0.00    +0.000 A 
ATOM     16  C   LIG    1       24.000 -19.993   4.470  0.00  0.00    +0.004 A 
ATOM     17  C   LIG    1       25.223 -20.530   4.867  0.00  0.00    +0.046 A 
ENDBRANCH  11  12
ENDBRANCH   2  11
TORSDOF 4
ENDMDL
MODEL 8
REMARK VINA RESULT:      -7.9      3.233      5.658
REMARK  Name = *****
REMARK                            x       y       z     vdW  Elec       q    Type
REMARK                         _______ _______ _______ _____ _____    ______ ____
ROOT
ATOM      1  O   LIG    1       26.500 -21.055   9.076  0.00  0.00    -0.244 OA
ATOM      2  C   LIG    1       26.971 -21.269   7.972  0.00  0.00    +0.348 C 
ENDROOT
BRANCH   2   3
ATOM      3  C   LIG    1       27.868 -20.314   7.280  0.00  0.00    +0.101 A 
ATOM      4  C   LIG    1       27.701 -19.931   5.945  0.00  0.00    +0.131 A 
ATOM      5  C   LIG    1       28.620 -19.072   5.341  0.00  0.00    +0.046 A 
ATOM      6  C   LIG    1       29.699 -18.579   6.076  0.00  0.00    +0.004 A 
ATOM      7  C   LIG    1       29.858 -18.932   7.416  0.00  0.00    +0.001 A 
ATOM      8  C   LIG    1       28.942 -19.794   8.020  0.00  0.00    +0.019 A 
BRANCH   4   9
ATOM      9  O   LIG    1       26.625 -20.368   5.225  0.00  0.00    -0.506 OA
ATOM     10  H   LIG    1       26.875 -21.147   4.701  0.00  0.00    +0.292 HD
ENDBRANCH   4   9
ENDBRANCH   2   3
BRANCH   2  11
ATOM     11  O   LIG    1       26.916 -22.442   7.233  0.00  0.00    -0.422 OA
BRANCH  11  12
ATOM     12  C   LIG    1       25.711 -23.138   7.015  0.00  0.00    +0.132 A 
ATOM     13  C   LIG    1       24.460 -22.527   7.037  0.00  0.00    +0.046 A 
ATOM     14  C   LIG    1       23.321 -23.294   6.792  0.00  0.00    +0.004 A 
ATOM     15  C   LIG    1       23.439 -24.653   6.501  0.00  0.00    +0.000 A 
ATOM     16  C   LIG    1       24.699 -25.254   6.454  0.00  0.00    +0.004 A 
ATOM     17  C   LIG    1       25.839 -24.494   6.707  0.00  0.00    +0.046 A 
ENDBRANCH  11  12
ENDBRANCH   2  11
TORSDOF 4
ENDMDL
MODEL 9
REMARK VINA RESULT:      -7.9      3.743      5.828
REMARK  Name = *****
REMARK                            x       y       z     vdW  Elec       q    Type
REMARK                         _______ _______ _______ _____ _____    ______ ____
ROOT
ATOM      1  O   LIG    1       26.412 -19.970   4.961  0.00  0.00    -0.244 OA
ATOM      2  C   LIG    1       26.811 -20.298   6.066  0.00  0.00    +0.348 C 
ENDROOT
BRANCH   2   3
ATOM      3  C   LIG    1       28.201 -20.067   6.521  0.00  0.00    +0.101 A 
ATOM      4  C   LIG    1       29.071 -19.161   5.905  0.00  0.00    +0.131 A 
ATOM      5  C   LIG    1       30.387 -19.037   6.351  0.00  0.00    +0.046 A 
ATOM      6  C   LIG    1       30.832 -19.806   7.428  0.00  0.00    +0.004 A 
ATOM      7  C   LIG    1       29.964 -20.690   8.068  0.00  0.00    +0.001 A 
ATOM      8  C   LIG    1       28.649 -20.818   7.619  0.00  0.00    +0.019 A 
BRANCH   4   9
ATOM      9  O   LIG    1       28.639 -18.368   4.879  0.00  0.00    -0.506 OA
ATOM     10  H   LIG    1       29.392 -17.891   4.493  0.00  0.00    +0.292 HD
ENDBRANCH   4   9
ENDBRANCH   2   3
BRANCH   2  11
ATOM     11  O   LIG    1       26.066 -20.777   7.134  0.00  0.00    -0.422 OA
BRANCH  11  12
ATOM     12  C   LIG    1       25.187 -21.870   7.009  0.00  0.00    +0.132 A 
ATOM     13  C   LIG    1       23.802 -21.742   7.016  0.00  0.00    +0.046 A 
ATOM     14  C   LIG    1       23.009 -22.880   6.869  0.00  0.00    +0.004 A 
ATOM     15  C   LIG    1       23.603 -24.130   6.689  0.00  0.00    +0.000 A 
ATOM     16  C   LIG    1       24.994 -24.248   6.656  0.00  0.00    +0.004 A 
ATOM     17  C   LIG    1       25.790 -23.114   6.812  0.00  0.00    +0.046 A 
ENDBRANCH  11  12
ENDBRANCH   2  11
TORSDOF 4
ENDMDL
