MODEL 1
REMARK VINA RESULT:      29.8      0.000      0.000
REMARK  Name = *****
REMARK                            x       y       z     vdW  Elec       q    Type
REMARK                         _______ _______ _______ _____ _____    ______ ____
ROOT
ATOM      1  C   LIG    1       24.994 -13.131   3.816  0.00  0.00    +0.129 C 
ATOM      2  C   LIG    1       24.860 -14.624   3.362  0.00  0.00    +0.061 C 
ATOM      3  C   LIG    1       26.168 -15.405   3.587  0.00  0.00    +0.190 C 
ATOM      4  C   LIG    1       25.996 -16.891   3.354  0.00  0.00    +0.141 C 
ATOM      5  C   LIG    1       24.797 -17.504   3.405  0.00  0.00    +0.047 C 
ATOM      6  C   LIG    1       23.498 -16.799   3.717  0.00  0.00    +0.062 C 
ATOM      7  C   LIG    1       22.675 -17.653   4.750  0.00  0.00    +0.097 C 
ATOM      8  C   LIG    1       21.527 -16.824   5.343  0.00  0.00    +0.047 C 
ATOM      9  C   LIG    1       22.335 -18.998   4.084  0.00  0.00    +0.017 A 
ATOM     10  C   LIG    1       23.385 -19.636   3.358  0.00  0.00    +0.071 A 
ATOM     11  C   LIG    1       23.212 -20.908   2.777  0.00  0.00    +0.128 A 
ATOM     12  C   LIG    1       22.002 -21.569   2.871  0.00  0.00    +0.047 A 
ATOM     13  C   LIG    1       20.956 -20.965   3.554  0.00  0.00    +0.024 A 
ATOM     14  C   LIG    1       21.110 -19.703   4.157  0.00  0.00    +0.048 A 
ATOM     15 CL   LIG    1       19.673 -19.148   4.939  0.00  0.00    -0.083 Cl
ATOM     16  C   LIG    1       24.702 -18.971   3.171  0.00  0.00    +0.197 C 
ATOM     17  O   LIG    1       25.676 -19.613   2.776  0.00  0.00    -0.287 OA
ATOM     18  C   LIG    1       26.563 -15.138   5.054  0.00  0.00    +0.210 C 
ATOM     19  O   LIG    1       26.358 -15.935   5.971  0.00  0.00    -0.288 OA
ATOM     20  C   LIG    1       26.953 -13.735   5.345  0.00  0.00    +0.121 C 
ATOM     21  C   LIG    1       23.709 -15.319   4.129  0.00  0.00    +0.020 C 
ATOM     22  C   LIG    1       26.178 -12.813   4.741  0.00  0.00    +0.127 C 
ENDROOT
BRANCH  20  23
ATOM     23  C   LIG    1       28.125 -13.470   6.212  0.00  0.00    +0.248 C 
ATOM     24  O   LIG    1       28.506 -14.266   7.062  0.00  0.00    -0.270 OA
ATOM     25  N   LIG    1       28.783 -12.296   6.013  0.00  0.00    -0.325 N 
ATOM     26  H   LIG    1       28.564 -11.716   5.209  0.00  0.00    +0.145 HD
ATOM     27  H   LIG    1       29.631 -12.126   6.534  0.00  0.00    +0.145 HD
ENDBRANCH  20  23
BRANCH   1  29
ATOM     28  C   LIG    1       23.836 -12.321   1.813  0.00  0.00    +0.105 C 
ATOM     29  N   LIG    1       24.944 -12.093   2.746  0.00  0.00    -0.298 NA
ATOM     30  C   LIG    1       26.202 -11.947   2.002  0.00  0.00    +0.105 C 
ENDBRANCH   1  29
BRANCH   3  31
ATOM     31  O   LIG    1       27.157 -14.945   2.670  0.00  0.00    -0.373 OA
ATOM     32  H   LIG    1       28.014 -15.085   3.129  0.00  0.00    +0.211 HD
ENDBRANCH   3  31
BRANCH   4  33
ATOM     33  O   LIG    1       27.181 -17.542   3.034  0.00  0.00    -0.507 OA
ATOM     34  H   LIG    1       26.958 -18.414   2.635  0.00  0.00    +0.292 HD
ENDBRANCH   4  33
BRANCH   7  35
ATOM     35  O   LIG    1       23.508 -18.013   5.864  0.00  0.00    -0.384 OA
ATOM     36  H   LIG    1       23.070 -18.687   6.416  0.00  0.00    +0.211 HD
ENDBRANCH   7  35
BRANCH  11  37
ATOM     37  O   LIG    1       24.191 -21.571   2.085  0.00  0.00    -0.506 OA
ATOM     38  H   LIG    1       24.245 -21.188   1.182  0.00  0.00    +0.292 HD
ENDBRANCH  11  37
BRANCH  22  39
ATOM     39  O   LIG    1       26.417 -11.447   4.881  0.00  0.00    -0.509 OA
ATOM     40  H   LIG    1       26.792 -11.358   5.789  0.00  0.00    +0.292 HD
ENDBRANCH  22  39
TORSDOF 7
ENDMDL
