MODEL 1
REMARK VINA RESULT:      41.9      0.000      0.000
REMARK  Name = *****
REMARK                            x       y       z     vdW  Elec       q    Type
REMARK                         _______ _______ _______ _____ _____    ______ ____
ROOT
ATOM      1  C   LIG    1       25.904 -15.061   3.193  0.00  0.00    +0.035 C 
ATOM      2  N   LIG    1       24.604 -15.033   3.366  0.00  0.00    -0.342 NA
ATOM      3  C   LIG    1       24.316 -15.002   4.820  0.00  0.00    +0.058 C 
ATOM      4  C   LIG    1       24.650 -16.359   4.725  0.00  0.00    +0.020 C 
ATOM      5  C   LIG    1       26.006 -16.241   4.000  0.00  0.00    +0.066 C 
ENDROOT
BRANCH   3   6
ATOM      6  C   LIG    1       23.388 -14.020   5.549  0.00  0.00    -0.001 C 
ATOM      7  C   LIG    1       22.333 -14.510   6.338  0.00  0.00    +0.013 C 
ATOM      8  C   LIG    1       21.332 -13.649   6.843  0.00  0.00    +0.039 C 
ATOM      9  C   LIG    1       21.380 -12.282   6.588  0.00  0.00    +0.123 C 
ATOM     10  F   LIG    1       20.434 -11.461   7.057  0.00  0.00    -0.205 F 
ATOM     11  C   LIG    1       22.430 -11.746   5.900  0.00  0.00    +0.039 C 
ATOM     12  C   LIG    1       23.430 -12.610   5.467  0.00  0.00    +0.013 C 
ENDBRANCH   3   6
BRANCH   4  13
ATOM     13  C   LIG    1       23.748 -17.419   5.146  0.00  0.00    -0.015 C 
ATOM     14  C   LIG    1       22.372 -17.291   5.237  0.00  0.00    +0.008 C 
ATOM     15  C   LIG    1       21.612 -18.379   5.716  0.00  0.00    +0.001 C 
ATOM     16  C   LIG    1       22.215 -19.532   6.231  0.00  0.00    +0.000 C 
ATOM     17  C   LIG    1       23.583 -19.598   6.286  0.00  0.00    +0.001 C 
ATOM     18  C   LIG    1       24.293 -18.592   5.649  0.00  0.00    +0.008 C 
ENDBRANCH   4  13
BRANCH   5  19
ATOM     19  C   LIG    1       27.104 -17.177   4.137  0.00  0.00    +0.251 C 
ATOM     20  N   LIG    1       27.029 -17.999   5.251  0.00  0.00    -0.281 N 
ATOM     21  H   LIG    1       26.096 -18.101   5.598  0.00  0.00    +0.155 HD
ATOM     22  O   LIG    1       27.934 -17.276   3.256  0.00  0.00    -0.270 OA
BRANCH  20  23
ATOM     23  C   LIG    1       27.875 -19.080   5.581  0.00  0.00    +0.034 C 
ATOM     24  C   LIG    1       28.768 -19.017   6.649  0.00  0.00    +0.023 C 
ATOM     25  C   LIG    1       29.475 -20.165   7.049  0.00  0.00    +0.002 C 
ATOM     26  C   LIG    1       29.303 -21.377   6.380  0.00  0.00    +0.000 C 
ATOM     27  C   LIG    1       28.410 -21.449   5.316  0.00  0.00    +0.002 C 
ATOM     28  C   LIG    1       27.684 -20.312   4.933  0.00  0.00    +0.023 C 
ENDBRANCH  20  23
ENDBRANCH   5  19
BRANCH   1  30
ATOM     29  C   LIG    1       26.114 -12.767   2.068  0.00  0.00    +0.014 C 
ATOM     30  C   LIG    1       26.686 -14.107   2.243  0.00  0.00    +0.030 C 
ATOM     31  C   LIG    1       28.153 -13.739   2.525  0.00  0.00    +0.014 C 
ENDBRANCH   1  30
BRANCH   2  32
ATOM     32  C   LIG    1       23.639 -15.329   2.316  0.00  0.00    +0.124 C 
BRANCH  32  33
ATOM     33  C   LIG    1       22.124 -16.388   2.289  0.00  0.00    +0.053 C 
BRANCH  33  34
ATOM     34  C   LIG    1       22.012 -17.889   2.142  0.00  0.00    +0.119 C 
BRANCH  34  35
ATOM     35  O   LIG    1       20.970 -18.275   3.105  0.00  0.00    -0.392 OA
ATOM     36  H   LIG    1       20.837 -17.543   3.737  0.00  0.00    +0.210 HD
ENDBRANCH  34  35
BRANCH  34  37
ATOM     37  C   LIG    1       23.202 -18.838   2.463  0.00  0.00    +0.063 C 
BRANCH  37  38
ATOM     38  C   LIG    1       23.097 -20.366   2.260  0.00  0.00    +0.128 C 
BRANCH  38  39
ATOM     39  O   LIG    1       21.883 -20.868   2.792  0.00  0.00    -0.391 OA
ATOM     40  H   LIG    1       21.979 -21.847   2.786  0.00  0.00    +0.210 HD
ENDBRANCH  38  39
BRANCH  38  41
ATOM     41  C   LIG    1       24.114 -21.199   2.971  0.00  0.00    +0.151 C 
BRANCH  41  42
ATOM     42  C   LIG    1       25.082 -20.361   2.999  0.00  0.00    +0.307 C 
ATOM     43  O   LIG    1       25.822 -20.168   1.817  0.00  0.00    -0.251 OA
BRANCH  42  44
ATOM     44  O   LIG    1       25.261 -20.226   4.606  0.00  0.00    -0.481 OA
ATOM     45  H   LIG    1       26.093 -20.175   5.128  0.00  0.00    +0.295 HD
ENDBRANCH  42  44
ENDBRANCH  41  42
ENDBRANCH  38  41
ENDBRANCH  37  38
ENDBRANCH  34  37
ENDBRANCH  33  34
ENDBRANCH  32  33
ENDBRANCH   2  32
TORSDOF 15
ENDMDL
MODEL 2
REMARK VINA RESULT:      44.3      0.713      1.057
REMARK  Name = *****
REMARK                            x       y       z     vdW  Elec       q    Type
REMARK                         _______ _______ _______ _____ _____    ______ ____
ROOT
ATOM      1  C   LIG    1       25.692 -15.003   3.345  0.00  0.00    +0.035 C 
ATOM      2  N   LIG    1       24.394 -15.031   3.532  0.00  0.00    -0.342 NA
ATOM      3  C   LIG    1       24.118 -14.934   4.986  0.00  0.00    +0.058 C 
ATOM      4  C   LIG    1       24.520 -16.275   4.961  0.00  0.00    +0.020 C 
ATOM      5  C   LIG    1       25.861 -16.129   4.215  0.00  0.00    +0.066 C 
ENDROOT
BRANCH   3   6
ATOM      6  C   LIG    1       23.147 -13.960   5.670  0.00  0.00    -0.001 C 
ATOM      7  C   LIG    1       22.086 -14.461   6.443  0.00  0.00    +0.013 C 
ATOM      8  C   LIG    1       21.051 -13.615   6.904  0.00  0.00    +0.039 C 
ATOM      9  C   LIG    1       21.072 -12.253   6.622  0.00  0.00    +0.123 C 
ATOM     10  F   LIG    1       20.094 -11.447   7.050  0.00  0.00    -0.205 F 
ATOM     11  C   LIG    1       22.126 -11.705   5.949  0.00  0.00    +0.039 C 
ATOM     12  C   LIG    1       23.157 -12.552   5.559  0.00  0.00    +0.013 C 
ENDBRANCH   3   6
BRANCH   4  13
ATOM     13  C   LIG    1       23.676 -17.354   5.451  0.00  0.00    -0.015 C 
ATOM     14  C   LIG    1       24.117 -18.396   6.250  0.00  0.00    +0.008 C 
ATOM     15  C   LIG    1       23.210 -19.414   6.611  0.00  0.00    +0.001 C 
ATOM     16  C   LIG    1       21.918 -19.476   6.077  0.00  0.00    +0.000 C 
ATOM     17  C   LIG    1       21.529 -18.531   5.164  0.00  0.00    +0.001 C 
ATOM     18  C   LIG    1       22.379 -17.453   4.967  0.00  0.00    +0.008 C 
ENDBRANCH   4  13
BRANCH   5  19
ATOM     19  C   LIG    1       27.007 -17.001   4.390  0.00  0.00    +0.251 C 
ATOM     20  N   LIG    1       26.849 -17.977   5.361  0.00  0.00    -0.281 N 
ATOM     21  H   LIG    1       25.888 -18.190   5.547  0.00  0.00    +0.155 HD
ATOM     22  O   LIG    1       27.957 -16.916   3.639  0.00  0.00    -0.270 OA
BRANCH  20  23
ATOM     23  C   LIG    1       27.731 -19.036   5.668  0.00  0.00    +0.034 C 
ATOM     24  C   LIG    1       28.723 -18.910   6.640  0.00  0.00    +0.023 C 
ATOM     25  C   LIG    1       29.474 -20.031   7.034  0.00  0.00    +0.002 C 
ATOM     26  C   LIG    1       29.249 -21.280   6.454  0.00  0.00    +0.000 C 
ATOM     27  C   LIG    1       28.258 -21.414   5.487  0.00  0.00    +0.002 C 
ATOM     28  C   LIG    1       27.489 -20.303   5.112  0.00  0.00    +0.023 C 
ENDBRANCH  20  23
ENDBRANCH   5  19
BRANCH   1  30
ATOM     29  C   LIG    1       26.162 -12.629   2.500  0.00  0.00    +0.014 C 
ATOM     30  C   LIG    1       26.415 -14.065   2.335  0.00  0.00    +0.030 C 
ATOM     31  C   LIG    1       27.951 -14.057   2.224  0.00  0.00    +0.014 C 
ENDBRANCH   1  30
BRANCH   2  32
ATOM     32  C   LIG    1       23.436 -15.433   2.512  0.00  0.00    +0.124 C 
BRANCH  32  33
ATOM     33  C   LIG    1       21.762 -16.211   2.621  0.00  0.00    +0.053 C 
BRANCH  33  34
ATOM     34  C   LIG    1       21.187 -17.352   1.813  0.00  0.00    +0.119 C 
BRANCH  34  35
ATOM     35  O   LIG    1       19.759 -17.368   2.167  0.00  0.00    -0.392 OA
ATOM     36  H   LIG    1       19.391 -18.248   1.960  0.00  0.00    +0.210 HD
ENDBRANCH  34  35
BRANCH  34  37
ATOM     37  C   LIG    1       21.649 -18.822   2.020  0.00  0.00    +0.063 C 
BRANCH  37  38
ATOM     38  C   LIG    1       23.144 -19.193   2.146  0.00  0.00    +0.128 C 
BRANCH  38  39
ATOM     39  O   LIG    1       23.337 -20.587   1.983  0.00  0.00    -0.391 OA
ATOM     40  H   LIG    1       23.864 -20.872   2.763  0.00  0.00    +0.210 HD
ENDBRANCH  38  39
BRANCH  38  41
ATOM     41  C   LIG    1       23.776 -18.947   3.477  0.00  0.00    +0.151 C 
BRANCH  41  42
ATOM     42  C   LIG    1       24.903 -19.523   3.279  0.00  0.00    +0.307 C 
ATOM     43  O   LIG    1       25.839 -18.875   2.453  0.00  0.00    -0.251 OA
BRANCH  42  44
ATOM     44  O   LIG    1       24.518 -21.020   3.776  0.00  0.00    -0.481 OA
ATOM     45  H   LIG    1       24.378 -21.344   4.693  0.00  0.00    +0.295 HD
ENDBRANCH  42  44
ENDBRANCH  41  42
ENDBRANCH  38  41
ENDBRANCH  37  38
ENDBRANCH  34  37
ENDBRANCH  33  34
ENDBRANCH  32  33
ENDBRANCH   2  32
TORSDOF 15
ENDMDL
MODEL 3
REMARK VINA RESULT:      44.8      1.993      3.456
REMARK  Name = *****
REMARK                            x       y       z     vdW  Elec       q    Type
REMARK                         _______ _______ _______ _____ _____    ______ ____
ROOT
ATOM      1  C   LIG    1       27.580 -14.174   4.788  0.00  0.00    +0.035 C 
ATOM      2  N   LIG    1       26.382 -13.947   4.304  0.00  0.00    -0.342 NA
ATOM      3  C   LIG    1       25.374 -14.339   5.318  0.00  0.00    +0.058 C 
ATOM      4  C   LIG    1       25.714 -15.627   4.885  0.00  0.00    +0.020 C 
ATOM      5  C   LIG    1       27.248 -15.548   5.019  0.00  0.00    +0.066 C 
ENDROOT
BRANCH   3   6
ATOM      6  C   LIG    1       24.197 -13.487   5.816  0.00  0.00    -0.001 C 
ATOM      7  C   LIG    1       23.201 -14.072   6.616  0.00  0.00    +0.013 C 
ATOM      8  C   LIG    1       22.000 -13.388   6.910  0.00  0.00    +0.039 C 
ATOM      9  C   LIG    1       21.783 -12.099   6.430  0.00  0.00    +0.123 C 
ATOM     10  F   LIG    1       20.648 -11.447   6.699  0.00  0.00    -0.205 F 
ATOM     11  C   LIG    1       22.758 -11.456   5.722  0.00  0.00    +0.039 C 
ATOM     12  C   LIG    1       23.951 -12.133   5.499  0.00  0.00    +0.013 C 
ENDBRANCH   3   6
BRANCH   4  13
ATOM     13  C   LIG    1       24.728 -16.566   4.372  0.00  0.00    -0.015 C 
ATOM     14  C   LIG    1       23.562 -16.919   5.029  0.00  0.00    +0.008 C 
ATOM     15  C   LIG    1       22.715 -17.887   4.450  0.00  0.00    +0.001 C 
ATOM     16  C   LIG    1       23.083 -18.601   3.304  0.00  0.00    +0.000 C 
ATOM     17  C   LIG    1       24.309 -18.363   2.738  0.00  0.00    +0.001 C 
ATOM     18  C   LIG    1       25.036 -17.289   3.228  0.00  0.00    +0.008 C 
ENDBRANCH   4  13
BRANCH   5  19
ATOM     19  C   LIG    1       28.114 -16.676   5.302  0.00  0.00    +0.251 C 
ATOM     20  N   LIG    1       27.452 -17.866   5.559  0.00  0.00    -0.281 N 
ATOM     21  H   LIG    1       26.530 -17.890   5.170  0.00  0.00    +0.155 HD
ATOM     22  O   LIG    1       29.318 -16.562   5.191  0.00  0.00    -0.270 OA
BRANCH  20  23
ATOM     23  C   LIG    1       28.021 -19.145   5.741  0.00  0.00    +0.034 C 
ATOM     24  C   LIG    1       28.001 -20.109   4.734  0.00  0.00    +0.023 C 
ATOM     25  C   LIG    1       28.718 -21.310   4.890  0.00  0.00    +0.002 C 
ATOM     26  C   LIG    1       29.446 -21.559   6.053  0.00  0.00    +0.000 C 
ATOM     27  C   LIG    1       29.474 -20.600   7.060  0.00  0.00    +0.002 C 
ATOM     28  C   LIG    1       28.783 -19.391   6.895  0.00  0.00    +0.023 C 
ENDBRANCH  20  23
ENDBRANCH   5  19
BRANCH   1  30
ATOM     29  C   LIG    1       29.470 -12.991   3.522  0.00  0.00    +0.014 C 
ATOM     30  C   LIG    1       28.740 -13.136   4.787  0.00  0.00    +0.030 C 
ATOM     31  C   LIG    1       28.476 -11.655   5.115  0.00  0.00    +0.014 C 
ENDBRANCH   1  30
BRANCH   2  32
ATOM     32  C   LIG    1       26.112 -13.686   2.897  0.00  0.00    +0.124 C 
BRANCH  32  33
ATOM     33  C   LIG    1       24.946 -12.524   2.054  0.00  0.00    +0.053 C 
BRANCH  33  34
ATOM     34  C   LIG    1       23.447 -12.630   1.889  0.00  0.00    +0.119 C 
BRANCH  34  35
ATOM     35  O   LIG    1       22.900 -11.998   3.099  0.00  0.00    -0.392 OA
ATOM     36  H   LIG    1       23.589 -11.436   3.502  0.00  0.00    +0.210 HD
ENDBRANCH  34  35
BRANCH  34  37
ATOM     37  C   LIG    1       22.723 -14.005   1.813  0.00  0.00    +0.063 C 
BRANCH  37  38
ATOM     38  C   LIG    1       22.234 -14.735   3.084  0.00  0.00    +0.128 C 
BRANCH  38  39
ATOM     39  O   LIG    1       23.240 -14.746   4.082  0.00  0.00    -0.391 OA
ATOM     40  H   LIG    1       22.768 -14.914   4.928  0.00  0.00    +0.210 HD
ENDBRANCH  38  39
BRANCH  38  41
ATOM     41  C   LIG    1       21.931 -16.191   2.935  0.00  0.00    +0.151 C 
BRANCH  41  42
ATOM     42  C   LIG    1       20.909 -16.267   3.703  0.00  0.00    +0.307 C 
ATOM     43  O   LIG    1       21.091 -16.003   5.073  0.00  0.00    -0.251 OA
BRANCH  42  44
ATOM     44  O   LIG    1       19.912 -17.094   2.725  0.00  0.00    -0.481 OA
ATOM     45  H   LIG    1       20.051 -17.975   2.311  0.00  0.00    +0.295 HD
ENDBRANCH  42  44
ENDBRANCH  41  42
ENDBRANCH  38  41
ENDBRANCH  37  38
ENDBRANCH  34  37
ENDBRANCH  33  34
ENDBRANCH  32  33
ENDBRANCH   2  32
TORSDOF 15
ENDMDL
