MODEL 1
REMARK VINA RESULT:      -6.6      0.000      0.000
REMARK  Name = *****
REMARK                            x       y       z     vdW  Elec       q    Type
REMARK                         _______ _______ _______ _____ _____    ______ ____
ROOT
ATOM      1  C   LIG    1       25.310 -19.084   3.776  0.00  0.00    +0.095 C 
ENDROOT
BRANCH   1   2
ATOM      2  C   LIG    1       23.920 -19.791   3.796  0.00  0.00    +0.033 C 
ATOM      3  C   LIG    1       22.800 -19.104   4.643  0.00  0.00    +0.018 C 
ATOM      4  C   LIG    1       22.861 -19.839   5.987  0.00  0.00    +0.015 C 
ATOM      5  C   LIG    1       22.702 -21.221   5.355  0.00  0.00    +0.012 C 
ATOM      6  C   LIG    1       21.449 -20.965   4.551  0.00  0.00    -0.027 C 
ATOM      7  C   LIG    1       21.490 -19.694   4.147  0.00  0.00    -0.027 C 
ATOM      8  C   LIG    1       23.915 -21.238   4.403  0.00  0.00    +0.015 C 
ENDBRANCH   1   2
BRANCH   1   9
ATOM      9  C   LIG    1       26.261 -19.597   4.880  0.00  0.00    -0.016 A 
ATOM     10  C   LIG    1       27.640 -19.319   4.852  0.00  0.00    +0.006 A 
ATOM     11  C   LIG    1       28.488 -19.700   5.896  0.00  0.00    +0.000 A 
ATOM     12  C   LIG    1       27.979 -20.378   6.996  0.00  0.00    +0.000 A 
ATOM     13  C   LIG    1       26.629 -20.708   7.034  0.00  0.00    +0.000 A 
ATOM     14  C   LIG    1       25.782 -20.340   5.979  0.00  0.00    +0.006 A 
ENDBRANCH   1   9
BRANCH   1  15
ATOM     15  O   LIG    1       25.914 -19.361   2.495  0.00  0.00    -0.384 OA
ATOM     16  H   LIG    1       26.352 -18.550   2.188  0.00  0.00    +0.211 HD
ENDBRANCH   1  15
BRANCH   1  17
ATOM     17  C   LIG    1       25.157 -17.535   3.824  0.00  0.00    +0.055 C 
BRANCH  17  18
ATOM     18  C   LIG    1       26.369 -16.701   3.360  0.00  0.00    +0.087 C 
BRANCH  18  19
ATOM     19  N   LIG    1       25.995 -15.352   2.884  0.00  0.00    -0.302 NA
ATOM     20  C   LIG    1       25.073 -14.660   3.802  0.00  0.00    +0.084 C 
ATOM     21  C   LIG    1       25.735 -14.109   5.069  0.00  0.00    +0.015 C 
ATOM     22  C   LIG    1       26.943 -13.236   4.741  0.00  0.00    +0.002 C 
ATOM     23  C   LIG    1       27.885 -13.949   3.778  0.00  0.00    +0.015 C 
ATOM     24  C   LIG    1       27.131 -14.479   2.557  0.00  0.00    +0.084 C 
ENDBRANCH  18  19
ENDBRANCH  17  18
ENDBRANCH   1  17
TORSDOF 6
ENDMDL
MODEL 2
REMARK VINA RESULT:      -6.5      0.966      1.465
REMARK  Name = *****
REMARK                            x       y       z     vdW  Elec       q    Type
REMARK                         _______ _______ _______ _____ _____    ______ ____
ROOT
ATOM      1  C   LIG    1       26.175 -19.153   4.035  0.00  0.00    +0.095 C 
ENDROOT
BRANCH   1   2
ATOM      2  C   LIG    1       24.758 -19.291   4.673  0.00  0.00    +0.033 C 
ATOM      3  C   LIG    1       24.538 -20.509   5.628  0.00  0.00    +0.018 C 
ATOM      4  C   LIG    1       23.908 -21.571   4.721  0.00  0.00    +0.015 C 
ATOM      5  C   LIG    1       22.775 -20.655   4.261  0.00  0.00    +0.012 C 
ATOM      6  C   LIG    1       22.254 -20.236   5.616  0.00  0.00    -0.027 C 
ATOM      7  C   LIG    1       23.300 -20.174   6.443  0.00  0.00    -0.027 C 
ATOM      8  C   LIG    1       23.583 -19.491   3.653  0.00  0.00    +0.015 C 
ENDBRANCH   1   2
BRANCH   1   9
ATOM      9  C   LIG    1       27.316 -19.338   5.060  0.00  0.00    -0.016 A 
ATOM     10  C   LIG    1       28.454 -18.511   5.052  0.00  0.00    +0.006 A 
ATOM     11  C   LIG    1       29.444 -18.614   6.035  0.00  0.00    +0.000 A 
ATOM     12  C   LIG    1       29.324 -19.554   7.050  0.00  0.00    +0.000 A 
ATOM     13  C   LIG    1       28.233 -20.416   7.061  0.00  0.00    +0.000 A 
ATOM     14  C   LIG    1       27.250 -20.324   6.066  0.00  0.00    +0.006 A 
ENDBRANCH   1   9
BRANCH   1  15
ATOM     15  O   LIG    1       26.296 -20.185   3.033  0.00  0.00    -0.384 OA
ATOM     16  H   LIG    1       27.064 -19.974   2.477  0.00  0.00    +0.211 HD
ENDBRANCH   1  15
BRANCH   1  17
ATOM     17  C   LIG    1       26.316 -17.813   3.255  0.00  0.00    +0.055 C 
BRANCH  17  18
ATOM     18  C   LIG    1       25.394 -16.654   3.689  0.00  0.00    +0.087 C 
BRANCH  18  19
ATOM     19  N   LIG    1       25.730 -15.372   3.034  0.00  0.00    -0.302 NA
ATOM     20  C   LIG    1       24.834 -14.274   3.440  0.00  0.00    +0.084 C 
ATOM     21  C   LIG    1       25.109 -13.715   4.839  0.00  0.00    +0.015 C 
ATOM     22  C   LIG    1       26.574 -13.322   5.013  0.00  0.00    +0.002 C 
ATOM     23  C   LIG    1       27.497 -14.454   4.576  0.00  0.00    +0.015 C 
ATOM     24  C   LIG    1       27.132 -14.957   3.178  0.00  0.00    +0.084 C 
ENDBRANCH  18  19
ENDBRANCH  17  18
ENDBRANCH   1  17
TORSDOF 6
ENDMDL
