MODEL 1
REMARK VINA RESULT:      -5.3      0.000      0.000
REMARK  Name = *****
REMARK                            x       y       z     vdW  Elec       q    Type
REMARK                         _______ _______ _______ _____ _____    ______ ____
ROOT
ATOM      1  C   UNK    1       22.837 -18.326   4.459  0.00  0.00    +0.213 C 
ATOM      2  N   UNK    1       22.248 -19.376   5.114  0.00  0.00    -0.315 N 
ATOM      3  H   UNK    1       21.604 -19.195   5.867  0.00  0.00    +0.149 HD
ATOM      4  O   UNK    1       23.715 -18.492   3.611  0.00  0.00    -0.276 OA
ENDROOT
BRANCH   1   5
ATOM      5  C   UNK    1       22.346 -16.920   4.800  0.00  0.00    +0.096 C 
BRANCH   5   6
ATOM      6  C   UNK    1       22.870 -15.712   4.008  0.00  0.00    +0.009 C 
BRANCH   6   7
ATOM      7  C   UNK    1       23.874 -14.792   4.739  0.00  0.00    +0.003 C 
BRANCH   7   8
ATOM      8  C   UNK    1       23.927 -13.380   4.145  0.00  0.00    +0.028 C 
BRANCH   8   9
ATOM      9  C   UNK    1       24.379 -13.294   2.680  0.00  0.00    +0.160 C 
BRANCH   9  10
ATOM     10  O   UNK    1       25.779 -12.943   2.658  0.00  0.00    -0.378 OA
BRANCH  10  11
ATOM     11  C   UNK    1       26.626 -14.068   2.376  0.00  0.00    +0.188 C 
BRANCH  11  12
ATOM     12  C   UNK    1       27.401 -14.541   3.626  0.00  0.00    +0.187 C 
BRANCH  12  14
ATOM     13  C   UNK    1       28.891 -12.713   4.053  0.00  0.00    +0.194 C 
ATOM     14  O   UNK    1       27.716 -13.414   4.457  0.00  0.00    -0.381 OA
ENDBRANCH  12  14
ENDBRANCH  11  12
ENDBRANCH  10  11
ENDBRANCH   9  10
ENDBRANCH   8   9
ENDBRANCH   7   8
ENDBRANCH   6   7
ENDBRANCH   5   6
ENDBRANCH   1   5
BRANCH   2  15
ATOM     15  C   UNK    1       22.632 -20.759   4.909  0.00  0.00    +0.104 C 
BRANCH  15  16
ATOM     16  C   UNK    1       22.994 -21.435   6.232  0.00  0.00    +0.019 C 
BRANCH  16  17
ATOM     17  C   UNK    1       24.197 -20.809   6.938  0.00  0.00    +0.003 C 
BRANCH  17  18
ATOM     18  C   UNK    1       25.556 -21.251   6.387  0.00  0.00    +0.030 C 
BRANCH  18  19
ATOM     19  C   UNK    1       26.306 -20.125   5.663  0.00  0.00    +0.161 C 
BRANCH  19  20
ATOM     20  N   UNK    1       26.119 -20.274   4.182  0.00  0.00    -0.318 NA
ATOM     21  H   UNK    1       26.425 -21.221   3.931  0.00  0.00    +0.119 HD
ATOM     22  H   UNK    1       26.799 -19.672   3.703  0.00  0.00    +0.119 HD
ENDBRANCH  19  20
BRANCH  19  23
ATOM     23  C   UNK    1       27.831 -20.110   5.960  0.00  0.00    +0.322 C 
ATOM     24  O   UNK    1       28.406 -20.774   6.789  0.00  0.00    -0.249 OA
BRANCH  23  25
ATOM     25  O   UNK    1       28.470 -19.204   5.167  0.00  0.00    -0.479 OA
ATOM     26  H   UNK    1       29.169 -18.796   5.733  0.00  0.00    +0.295 HD
ENDBRANCH  23  25
ENDBRANCH  19  23
ENDBRANCH  18  19
ENDBRANCH  17  18
ENDBRANCH  16  17
ENDBRANCH  15  16
ENDBRANCH   2  15
TORSDOF 17
ENDMDL
MODEL 2
REMARK VINA RESULT:      -4.9      2.074      6.921
REMARK  Name = *****
REMARK                            x       y       z     vdW  Elec       q    Type
REMARK                         _______ _______ _______ _____ _____    ______ ____
ROOT
ATOM      1  C   UNK    1       22.780 -16.000   4.693  0.00  0.00    +0.213 C 
ATOM      2  N   UNK    1       23.698 -15.110   4.200  0.00  0.00    -0.315 N 
ATOM      3  H   UNK    1       24.374 -15.416   3.520  0.00  0.00    +0.149 HD
ATOM      4  O   UNK    1       22.007 -15.708   5.607  0.00  0.00    -0.276 OA
ENDROOT
BRANCH   1   5
ATOM      5  C   UNK    1       22.724 -17.383   4.046  0.00  0.00    +0.096 C 
BRANCH   5   6
ATOM      6  C   UNK    1       22.260 -18.596   4.867  0.00  0.00    +0.009 C 
BRANCH   6   7
ATOM      7  C   UNK    1       23.091 -19.890   4.714  0.00  0.00    +0.003 C 
BRANCH   7   8
ATOM      8  C   UNK    1       22.780 -20.927   5.798  0.00  0.00    +0.028 C 
BRANCH   8   9
ATOM      9  C   UNK    1       23.650 -20.845   7.061  0.00  0.00    +0.160 C 
BRANCH   9  10
ATOM     10  O   UNK    1       24.911 -21.491   6.786  0.00  0.00    -0.378 OA
BRANCH  10  11
ATOM     11  C   UNK    1       25.984 -20.554   6.606  0.00  0.00    +0.188 C 
BRANCH  11  12
ATOM     12  C   UNK    1       27.348 -21.141   7.033  0.00  0.00    +0.187 C 
BRANCH  12  14
ATOM     13  C   UNK    1       29.280 -19.723   7.061  0.00  0.00    +0.194 C 
ATOM     14  O   UNK    1       28.399 -20.524   6.275  0.00  0.00    -0.381 OA
ENDBRANCH  12  14
ENDBRANCH  11  12
ENDBRANCH  10  11
ENDBRANCH   9  10
ENDBRANCH   8   9
ENDBRANCH   7   8
ENDBRANCH   6   7
ENDBRANCH   5   6
ENDBRANCH   1   5
BRANCH   2  15
ATOM     15  C   UNK    1       23.879 -13.774   4.735  0.00  0.00    +0.104 C 
BRANCH  15  16
ATOM     16  C   UNK    1       23.992 -12.740   3.615  0.00  0.00    +0.019 C 
BRANCH  16  17
ATOM     17  C   UNK    1       24.636 -13.279   2.337  0.00  0.00    +0.003 C 
BRANCH  17  18
ATOM     18  C   UNK    1       26.093 -12.855   2.133  0.00  0.00    +0.030 C 
BRANCH  18  19
ATOM     19  C   UNK    1       27.099 -13.923   2.585  0.00  0.00    +0.161 C 
BRANCH  19  20
ATOM     20  N   UNK    1       26.386 -15.228   2.780  0.00  0.00    -0.318 NA
ATOM     21  H   UNK    1       26.043 -15.527   1.861  0.00  0.00    +0.119 HD
ATOM     22  H   UNK    1       25.524 -15.056   3.309  0.00  0.00    +0.119 HD
ENDBRANCH  19  20
BRANCH  19  23
ATOM     23  C   UNK    1       27.824 -13.564   3.911  0.00  0.00    +0.322 C 
ATOM     24  O   UNK    1       27.377 -13.683   5.027  0.00  0.00    -0.249 OA
BRANCH  23  25
ATOM     25  O   UNK    1       29.061 -13.049   3.663  0.00  0.00    -0.479 OA
ATOM     26  H   UNK    1       29.583 -13.784   3.257  0.00  0.00    +0.295 HD
ENDBRANCH  23  25
ENDBRANCH  19  23
ENDBRANCH  18  19
ENDBRANCH  17  18
ENDBRANCH  16  17
ENDBRANCH  15  16
ENDBRANCH   2  15
TORSDOF 17
ENDMDL
MODEL 3
REMARK VINA RESULT:      -4.9      1.226      1.498
REMARK  Name = *****
REMARK                            x       y       z     vdW  Elec       q    Type
REMARK                         _______ _______ _______ _____ _____    ______ ____
ROOT
ATOM      1  C   UNK    1       21.950 -18.195   4.450  0.00  0.00    +0.213 C 
ATOM      2  N   UNK    1       22.469 -19.239   5.171  0.00  0.00    -0.315 N 
ATOM      3  H   UNK    1       23.199 -19.068   5.842  0.00  0.00    +0.149 HD
ATOM      4  O   UNK    1       21.139 -18.366   3.539  0.00  0.00    -0.276 OA
ENDROOT
BRANCH   1   5
ATOM      5  C   UNK    1       22.396 -16.786   4.836  0.00  0.00    +0.096 C 
BRANCH   5   6
ATOM      6  C   UNK    1       23.499 -16.083   4.030  0.00  0.00    +0.009 C 
BRANCH   6   7
ATOM      7  C   UNK    1       23.765 -14.600   4.372  0.00  0.00    +0.003 C 
BRANCH   7   8
ATOM      8  C   UNK    1       23.737 -13.691   3.138  0.00  0.00    +0.028 C 
BRANCH   8   9
ATOM      9  C   UNK    1       25.071 -13.022   2.779  0.00  0.00    +0.160 C 
BRANCH   9  10
ATOM     10  O   UNK    1       25.893 -13.989   2.091  0.00  0.00    -0.378 OA
BRANCH  10  11
ATOM     11  C   UNK    1       27.259 -13.965   2.531  0.00  0.00    +0.188 C 
BRANCH  11  12
ATOM     12  C   UNK    1       27.442 -14.651   3.904  0.00  0.00    +0.187 C 
BRANCH  12  14
ATOM     13  C   UNK    1       28.459 -12.607   4.633  0.00  0.00    +0.194 C 
ATOM     14  O   UNK    1       27.540 -13.656   4.933  0.00  0.00    -0.381 OA
ENDBRANCH  12  14
ENDBRANCH  11  12
ENDBRANCH  10  11
ENDBRANCH   9  10
ENDBRANCH   8   9
ENDBRANCH   7   8
ENDBRANCH   6   7
ENDBRANCH   5   6
ENDBRANCH   1   5
BRANCH   2  15
ATOM     15  C   UNK    1       22.155 -20.628   4.899  0.00  0.00    +0.104 C 
BRANCH  15  16
ATOM     16  C   UNK    1       23.061 -21.568   5.694  0.00  0.00    +0.019 C 
BRANCH  16  17
ATOM     17  C   UNK    1       23.521 -20.996   7.035  0.00  0.00    +0.003 C 
BRANCH  17  18
ATOM     18  C   UNK    1       24.981 -20.535   7.061  0.00  0.00    +0.030 C 
BRANCH  18  19
ATOM     19  C   UNK    1       25.817 -21.120   5.915  0.00  0.00    +0.161 C 
BRANCH  19  20
ATOM     20  N   UNK    1       27.145 -21.572   6.447  0.00  0.00    -0.318 NA
ATOM     21  H   UNK    1       26.988 -22.453   6.948  0.00  0.00    +0.119 HD
ATOM     22  H   UNK    1       27.438 -20.927   7.189  0.00  0.00    +0.119 HD
ENDBRANCH  19  20
BRANCH  19  23
ATOM     23  C   UNK    1       26.075 -20.110   4.763  0.00  0.00    +0.322 C 
ATOM     24  O   UNK    1       25.313 -19.837   3.866  0.00  0.00    -0.249 OA
BRANCH  23  25
ATOM     25  O   UNK    1       27.321 -19.567   4.865  0.00  0.00    -0.479 OA
ATOM     26  H   UNK    1       27.532 -19.208   3.969  0.00  0.00    +0.295 HD
ENDBRANCH  23  25
ENDBRANCH  19  23
ENDBRANCH  18  19
ENDBRANCH  17  18
ENDBRANCH  16  17
ENDBRANCH  15  16
ENDBRANCH   2  15
TORSDOF 17
ENDMDL
MODEL 4
REMARK VINA RESULT:      -4.3      2.660      7.906
REMARK  Name = *****
REMARK                            x       y       z     vdW  Elec       q    Type
REMARK                         _______ _______ _______ _____ _____    ______ ____
ROOT
ATOM      1  C   UNK    1       27.952 -17.594   4.531  0.00  0.00    +0.213 C 
ATOM      2  N   UNK    1       28.129 -16.241   4.403  0.00  0.00    -0.315 N 
ATOM      3  H   UNK    1       28.867 -15.785   4.912  0.00  0.00    +0.149 HD
ATOM      4  O   UNK    1       26.997 -18.182   4.021  0.00  0.00    -0.276 OA
ENDROOT
BRANCH   1   5
ATOM      5  C   UNK    1       29.007 -18.370   5.318  0.00  0.00    +0.096 C 
BRANCH   5   6
ATOM      6  C   UNK    1       28.758 -19.839   5.693  0.00  0.00    +0.009 C 
BRANCH   6   7
ATOM      7  C   UNK    1       28.027 -20.094   7.030  0.00  0.00    +0.003 C 
BRANCH   7   8
ATOM      8  C   UNK    1       27.284 -21.434   7.055  0.00  0.00    +0.028 C 
BRANCH   8   9
ATOM      9  C   UNK    1       25.754 -21.346   6.963  0.00  0.00    +0.160 C 
BRANCH   9  10
ATOM     10  O   UNK    1       25.416 -20.476   5.861  0.00  0.00    -0.378 OA
BRANCH  10  11
ATOM     11  C   UNK    1       24.288 -20.950   5.110  0.00  0.00    +0.188 C 
BRANCH  11  12
ATOM     12  C   UNK    1       22.944 -20.563   5.769  0.00  0.00    +0.187 C 
BRANCH  12  14
ATOM     13  C   UNK    1       23.181 -18.914   4.047  0.00  0.00    +0.194 C 
ATOM     14  O   UNK    1       22.325 -19.506   5.022  0.00  0.00    -0.381 OA
ENDBRANCH  12  14
ENDBRANCH  11  12
ENDBRANCH  10  11
ENDBRANCH   9  10
ENDBRANCH   8   9
ENDBRANCH   7   8
ENDBRANCH   6   7
ENDBRANCH   5   6
ENDBRANCH   1   5
BRANCH   2  15
ATOM     15  C   UNK    1       27.195 -15.379   3.706  0.00  0.00    +0.104 C 
BRANCH  15  16
ATOM     16  C   UNK    1       27.443 -13.908   4.042  0.00  0.00    +0.019 C 
BRANCH  16  17
ATOM     17  C   UNK    1       26.828 -12.932   3.039  0.00  0.00    +0.003 C 
BRANCH  17  18
ATOM     18  C   UNK    1       25.758 -13.545   2.132  0.00  0.00    +0.030 C 
BRANCH  18  19
ATOM     19  C   UNK    1       24.332 -13.133   2.522  0.00  0.00    +0.161 C 
BRANCH  19  20
ATOM     20  N   UNK    1       24.057 -11.748   2.017  0.00  0.00    -0.318 NA
ATOM     21  H   UNK    1       23.042 -11.666   1.891  0.00  0.00    +0.119 HD
ATOM     22  H   UNK    1       24.421 -11.668   1.061  0.00  0.00    +0.119 HD
ENDBRANCH  19  20
BRANCH  19  23
ATOM     23  C   UNK    1       24.084 -13.148   4.055  0.00  0.00    +0.322 C 
ATOM     24  O   UNK    1       24.120 -12.195   4.796  0.00  0.00    -0.249 OA
BRANCH  23  25
ATOM     25  O   UNK    1       23.842 -14.416   4.495  0.00  0.00    -0.479 OA
ATOM     26  H   UNK    1       22.866 -14.470   4.638  0.00  0.00    +0.295 HD
ENDBRANCH  23  25
ENDBRANCH  19  23
ENDBRANCH  18  19
ENDBRANCH  17  18
ENDBRANCH  16  17
ENDBRANCH  15  16
ENDBRANCH   2  15
TORSDOF 17
ENDMDL
MODEL 5
REMARK VINA RESULT:      -4.3      2.398      5.560
REMARK  Name = *****
REMARK                            x       y       z     vdW  Elec       q    Type
REMARK                         _______ _______ _______ _____ _____    ______ ____
ROOT
ATOM      1  C   UNK    1       25.348 -19.769   4.453  0.00  0.00    +0.213 C 
ATOM      2  N   UNK    1       25.365 -18.724   3.566  0.00  0.00    -0.315 N 
ATOM      3  H   UNK    1       24.595 -18.595   2.932  0.00  0.00    +0.149 HD
ATOM      4  O   UNK    1       26.312 -20.038   5.170  0.00  0.00    -0.276 OA
ENDROOT
BRANCH   1   5
ATOM      5  C   UNK    1       24.063 -20.590   4.544  0.00  0.00    +0.096 C 
BRANCH   5   6
ATOM      6  C   UNK    1       22.787 -19.956   5.121  0.00  0.00    +0.009 C 
BRANCH   6   7
ATOM      7  C   UNK    1       22.101 -18.878   4.253  0.00  0.00    +0.003 C 
BRANCH   7   8
ATOM      8  C   UNK    1       22.080 -17.500   4.924  0.00  0.00    +0.028 C 
BRANCH   8   9
ATOM      9  C   UNK    1       22.825 -16.387   4.173  0.00  0.00    +0.160 C 
BRANCH   9  10
ATOM     10  O   UNK    1       22.791 -15.193   4.984  0.00  0.00    -0.378 OA
BRANCH  10  11
ATOM     11  C   UNK    1       23.868 -14.291   4.684  0.00  0.00    +0.188 C 
BRANCH  11  12
ATOM     12  C   UNK    1       23.703 -13.626   3.298  0.00  0.00    +0.187 C 
BRANCH  12  14
ATOM     13  C   UNK    1       24.170 -11.571   2.157  0.00  0.00    +0.194 C 
ATOM     14  O   UNK    1       23.934 -12.214   3.408  0.00  0.00    -0.381 OA
ENDBRANCH  12  14
ENDBRANCH  11  12
ENDBRANCH  10  11
ENDBRANCH   9  10
ENDBRANCH   8   9
ENDBRANCH   7   8
ENDBRANCH   6   7
ENDBRANCH   5   6
ENDBRANCH   1   5
BRANCH   2  15
ATOM     15  C   UNK    1       26.524 -17.878   3.357  0.00  0.00    +0.104 C 
BRANCH  15  16
ATOM     16  C   UNK    1       26.131 -16.401   3.306  0.00  0.00    +0.019 C 
BRANCH  16  17
ATOM     17  C   UNK    1       27.285 -15.443   3.598  0.00  0.00    +0.003 C 
BRANCH  17  18
ATOM     18  C   UNK    1       27.179 -14.088   2.891  0.00  0.00    +0.030 C 
BRANCH  18  19
ATOM     19  C   UNK    1       28.020 -12.993   3.562  0.00  0.00    +0.161 C 
BRANCH  19  20
ATOM     20  N   UNK    1       29.475 -13.259   3.312  0.00  0.00    -0.318 NA
ATOM     21  H   UNK    1       29.777 -12.621   2.568  0.00  0.00    +0.119 HD
ATOM     22  H   UNK    1       29.571 -14.186   2.882  0.00  0.00    +0.119 HD
ENDBRANCH  19  20
BRANCH  19  23
ATOM     23  C   UNK    1       27.800 -12.902   5.097  0.00  0.00    +0.322 C 
ATOM     24  O   UNK    1       26.906 -13.417   5.725  0.00  0.00    -0.249 OA
BRANCH  23  25
ATOM     25  O   UNK    1       28.752 -12.117   5.676  0.00  0.00    -0.479 OA
ATOM     26  H   UNK    1       28.717 -11.252   5.198  0.00  0.00    +0.295 HD
ENDBRANCH  23  25
ENDBRANCH  19  23
ENDBRANCH  18  19
ENDBRANCH  17  18
ENDBRANCH  16  17
ENDBRANCH  15  16
ENDBRANCH   2  15
TORSDOF 17
ENDMDL
MODEL 6
REMARK VINA RESULT:      -4.2      2.115      6.239
REMARK  Name = *****
REMARK                            x       y       z     vdW  Elec       q    Type
REMARK                         _______ _______ _______ _____ _____    ______ ____
ROOT
ATOM      1  C   UNK    1       22.200 -18.519   4.241  0.00  0.00    +0.213 C 
ATOM      2  N   UNK    1       23.099 -17.522   4.518  0.00  0.00    -0.315 N 
ATOM      3  H   UNK    1       24.022 -17.758   4.840  0.00  0.00    +0.149 HD
ATOM      4  O   UNK    1       21.025 -18.283   3.955  0.00  0.00    -0.276 OA
ENDROOT
BRANCH   1   5
ATOM      5  C   UNK    1       22.715 -19.957   4.274  0.00  0.00    +0.096 C 
BRANCH   5   6
ATOM      6  C   UNK    1       22.512 -20.815   5.533  0.00  0.00    +0.009 C 
BRANCH   6   7
ATOM      7  C   UNK    1       23.221 -20.330   6.818  0.00  0.00    +0.003 C 
BRANCH   7   8
ATOM      8  C   UNK    1       24.562 -21.032   7.058  0.00  0.00    +0.028 C 
BRANCH   8   9
ATOM      9  C   UNK    1       25.438 -21.231   5.813  0.00  0.00    +0.160 C 
BRANCH   9  10
ATOM     10  O   UNK    1       26.675 -20.514   6.011  0.00  0.00    -0.378 OA
BRANCH  10  11
ATOM     11  C   UNK    1       26.975 -19.620   4.928  0.00  0.00    +0.188 C 
BRANCH  11  12
ATOM     12  C   UNK    1       25.846 -19.582   3.873  0.00  0.00    +0.187 C 
BRANCH  12  14
ATOM     13  C   UNK    1       26.823 -17.404   3.659  0.00  0.00    +0.194 C 
ATOM     14  O   UNK    1       25.720 -18.253   3.346  0.00  0.00    -0.381 OA
ENDBRANCH  12  14
ENDBRANCH  11  12
ENDBRANCH  10  11
ENDBRANCH   9  10
ENDBRANCH   8   9
ENDBRANCH   7   8
ENDBRANCH   6   7
ENDBRANCH   5   6
ENDBRANCH   1   5
BRANCH   2  15
ATOM     15  C   UNK    1       22.743 -16.116   4.547  0.00  0.00    +0.104 C 
BRANCH  15  16
ATOM     16  C   UNK    1       23.850 -15.252   3.943  0.00  0.00    +0.019 C 
BRANCH  16  17
ATOM     17  C   UNK    1       23.770 -13.777   4.338  0.00  0.00    +0.003 C 
BRANCH  17  18
ATOM     18  C   UNK    1       25.071 -12.994   4.138  0.00  0.00    +0.030 C 
BRANCH  18  19
ATOM     19  C   UNK    1       26.324 -13.825   4.445  0.00  0.00    +0.161 C 
BRANCH  19  20
ATOM     20  N   UNK    1       26.926 -13.360   5.738  0.00  0.00    -0.318 NA
ATOM     21  H   UNK    1       27.561 -12.584   5.516  0.00  0.00    +0.119 HD
ATOM     22  H   UNK    1       27.559 -14.089   6.087  0.00  0.00    +0.119 HD
ENDBRANCH  19  20
BRANCH  19  23
ATOM     23  C   UNK    1       27.413 -13.727   3.341  0.00  0.00    +0.322 C 
ATOM     24  O   UNK    1       28.548 -13.340   3.487  0.00  0.00    -0.249 OA
BRANCH  23  25
ATOM     25  O   UNK    1       26.914 -14.114   2.133  0.00  0.00    -0.479 OA
ATOM     26  H   UNK    1       25.963 -13.846   2.136  0.00  0.00    +0.295 HD
ENDBRANCH  23  25
ENDBRANCH  19  23
ENDBRANCH  18  19
ENDBRANCH  17  18
ENDBRANCH  16  17
ENDBRANCH  15  16
ENDBRANCH   2  15
TORSDOF 17
ENDMDL
MODEL 7
REMARK VINA RESULT:      -4.1      1.722      4.057
REMARK  Name = *****
REMARK                            x       y       z     vdW  Elec       q    Type
REMARK                         _______ _______ _______ _____ _____    ______ ____
ROOT
ATOM      1  C   UNK    1       26.843 -18.845   4.454  0.00  0.00    +0.213 C 
ATOM      2  N   UNK    1       27.309 -19.631   5.475  0.00  0.00    -0.315 N 
ATOM      3  H   UNK    1       28.202 -19.429   5.893  0.00  0.00    +0.149 HD
ATOM      4  O   UNK    1       25.814 -19.115   3.834  0.00  0.00    -0.276 OA
ENDROOT
BRANCH   1   5
ATOM      5  C   UNK    1       27.640 -17.585   4.119  0.00  0.00    +0.096 C 
BRANCH   5   6
ATOM      6  C   UNK    1       26.905 -16.304   3.691  0.00  0.00    +0.009 C 
BRANCH   6   7
ATOM      7  C   UNK    1       27.461 -14.974   4.246  0.00  0.00    +0.003 C 
BRANCH   7   8
ATOM      8  C   UNK    1       27.552 -13.877   3.179  0.00  0.00    +0.028 C 
BRANCH   8   9
ATOM      9  C   UNK    1       26.385 -13.825   2.182  0.00  0.00    +0.160 C 
BRANCH   9  10
ATOM     10  O   UNK    1       25.757 -12.530   2.287  0.00  0.00    -0.378 OA
BRANCH  10  11
ATOM     11  C   UNK    1       24.343 -12.619   2.522  0.00  0.00    +0.188 C 
BRANCH  11  12
ATOM     12  C   UNK    1       23.984 -12.395   4.009  0.00  0.00    +0.187 C 
BRANCH  12  14
ATOM     13  C   UNK    1       23.527 -14.733   4.271  0.00  0.00    +0.194 C 
ATOM     14  O   UNK    1       24.238 -13.595   4.754  0.00  0.00    -0.381 OA
ENDBRANCH  12  14
ENDBRANCH  11  12
ENDBRANCH  10  11
ENDBRANCH   9  10
ENDBRANCH   8   9
ENDBRANCH   7   8
ENDBRANCH   6   7
ENDBRANCH   5   6
ENDBRANCH   1   5
BRANCH   2  15
ATOM     15  C   UNK    1       26.669 -20.867   5.883  0.00  0.00    +0.104 C 
BRANCH  15  16
ATOM     16  C   UNK    1       25.722 -20.637   7.062  0.00  0.00    +0.019 C 
BRANCH  16  17
ATOM     17  C   UNK    1       24.356 -21.305   6.897  0.00  0.00    +0.003 C 
BRANCH  17  18
ATOM     18  C   UNK    1       23.199 -20.330   6.659  0.00  0.00    +0.030 C 
BRANCH  18  19
ATOM     19  C   UNK    1       22.635 -20.404   5.233  0.00  0.00    +0.161 C 
BRANCH  19  20
ATOM     20  N   UNK    1       23.485 -21.323   4.407  0.00  0.00    -0.318 NA
ATOM     21  H   UNK    1       23.058 -22.254   4.452  0.00  0.00    +0.119 HD
ATOM     22  H   UNK    1       24.386 -21.453   4.883  0.00  0.00    +0.119 HD
ENDBRANCH  19  20
BRANCH  19  23
ATOM     23  C   UNK    1       22.578 -19.025   4.521  0.00  0.00    +0.322 C 
ATOM     24  O   UNK    1       22.067 -18.017   4.950  0.00  0.00    -0.249 OA
BRANCH  23  25
ATOM     25  O   UNK    1       23.168 -19.089   3.294  0.00  0.00    -0.479 OA
ATOM     26  H   UNK    1       23.984 -18.536   3.357  0.00  0.00    +0.295 HD
ENDBRANCH  23  25
ENDBRANCH  19  23
ENDBRANCH  18  19
ENDBRANCH  17  18
ENDBRANCH  16  17
ENDBRANCH  15  16
ENDBRANCH   2  15
TORSDOF 17
ENDMDL
MODEL 8
REMARK VINA RESULT:      -4.0      2.141      6.557
REMARK  Name = *****
REMARK                            x       y       z     vdW  Elec       q    Type
REMARK                         _______ _______ _______ _____ _____    ______ ____
ROOT
ATOM      1  C   UNK    1       23.085 -18.579   4.080  0.00  0.00    +0.213 C 
ATOM      2  N   UNK    1       23.777 -17.396   4.092  0.00  0.00    -0.315 N 
ATOM      3  H   UNK    1       24.759 -17.390   3.869  0.00  0.00    +0.149 HD
ATOM      4  O   UNK    1       21.915 -18.659   4.455  0.00  0.00    -0.276 OA
ENDROOT
BRANCH   1   5
ATOM      5  C   UNK    1       23.815 -19.814   3.555  0.00  0.00    +0.096 C 
BRANCH   5   6
ATOM      6  C   UNK    1       24.394 -20.840   4.541  0.00  0.00    +0.009 C 
BRANCH   6   7
ATOM      7  C   UNK    1       23.801 -20.835   5.968  0.00  0.00    +0.003 C 
BRANCH   7   8
ATOM      8  C   UNK    1       24.868 -20.667   7.054  0.00  0.00    +0.028 C 
BRANCH   8   9
ATOM      9  C   UNK    1       26.292 -20.394   6.548  0.00  0.00    +0.160 C 
BRANCH   9  10
ATOM     10  O   UNK    1       27.098 -21.562   6.811  0.00  0.00    -0.378 OA
BRANCH  10  11
ATOM     11  C   UNK    1       28.474 -21.239   7.062  0.00  0.00    +0.188 C 
BRANCH  11  12
ATOM     12  C   UNK    1       28.724 -19.714   7.062  0.00  0.00    +0.187 C 
BRANCH  12  14
ATOM     13  C   UNK    1       28.962 -18.200   5.219  0.00  0.00    +0.194 C 
ATOM     14  O   UNK    1       29.475 -19.346   5.895  0.00  0.00    -0.381 OA
ENDBRANCH  12  14
ENDBRANCH  11  12
ENDBRANCH  10  11
ENDBRANCH   9  10
ENDBRANCH   8   9
ENDBRANCH   7   8
ENDBRANCH   6   7
ENDBRANCH   5   6
ENDBRANCH   1   5
BRANCH   2  15
ATOM     15  C   UNK    1       23.219 -16.153   4.587  0.00  0.00    +0.104 C 
BRANCH  15  16
ATOM     16  C   UNK    1       23.700 -14.961   3.759  0.00  0.00    +0.019 C 
BRANCH  16  17
ATOM     17  C   UNK    1       23.667 -13.631   4.512  0.00  0.00    +0.003 C 
BRANCH  17  18
ATOM     18  C   UNK    1       24.984 -12.851   4.481  0.00  0.00    +0.030 C 
BRANCH  18  19
ATOM     19  C   UNK    1       26.218 -13.747   4.654  0.00  0.00    +0.161 C 
BRANCH  19  20
ATOM     20  N   UNK    1       27.153 -13.123   5.647  0.00  0.00    -0.318 NA
ATOM     21  H   UNK    1       26.864 -12.146   5.763  0.00  0.00    +0.119 HD
ATOM     22  H   UNK    1       28.082 -13.045   5.218  0.00  0.00    +0.119 HD
ENDBRANCH  19  20
BRANCH  19  23
ATOM     23  C   UNK    1       27.000 -13.980   3.332  0.00  0.00    +0.322 C 
ATOM     24  O   UNK    1       26.590 -13.785   2.213  0.00  0.00    -0.249 OA
BRANCH  23  25
ATOM     25  O   UNK    1       28.243 -14.480   3.587  0.00  0.00    -0.479 OA
ATOM     26  H   UNK    1       28.176 -15.455   3.444  0.00  0.00    +0.295 HD
ENDBRANCH  23  25
ENDBRANCH  19  23
ENDBRANCH  18  19
ENDBRANCH  17  18
ENDBRANCH  16  17
ENDBRANCH  15  16
ENDBRANCH   2  15
TORSDOF 17
ENDMDL
MODEL 9
REMARK VINA RESULT:      -3.9      1.634      4.248
REMARK  Name = *****
REMARK                            x       y       z     vdW  Elec       q    Type
REMARK                         _______ _______ _______ _____ _____    ______ ____
ROOT
ATOM      1  C   UNK    1       27.815 -19.888   5.829  0.00  0.00    +0.213 C 
ATOM      2  N   UNK    1       26.653 -20.414   5.328  0.00  0.00    -0.315 N 
ATOM      3  H   UNK    1       26.314 -20.111   4.430  0.00  0.00    +0.149 HD
ATOM      4  O   UNK    1       28.212 -20.138   6.967  0.00  0.00    -0.276 OA
ENDROOT
BRANCH   1   5
ATOM      5  C   UNK    1       28.632 -18.985   4.906  0.00  0.00    +0.096 C 
BRANCH   5   6
ATOM      6  C   UNK    1       28.333 -17.479   4.845  0.00  0.00    +0.009 C 
BRANCH   6   7
ATOM      7  C   UNK    1       27.275 -17.028   3.814  0.00  0.00    +0.003 C 
BRANCH   7   8
ATOM      8  C   UNK    1       27.234 -15.507   3.631  0.00  0.00    +0.028 C 
BRANCH   8   9
ATOM      9  C   UNK    1       25.908 -14.939   3.105  0.00  0.00    +0.160 C 
BRANCH   9  10
ATOM     10  O   UNK    1       26.208 -13.906   2.143  0.00  0.00    -0.378 OA
BRANCH  10  11
ATOM     11  C   UNK    1       25.135 -12.963   1.991  0.00  0.00    +0.188 C 
BRANCH  11  12
ATOM     12  C   UNK    1       24.004 -13.196   3.019  0.00  0.00    +0.187 C 
BRANCH  12  14
ATOM     13  C   UNK    1       24.122 -11.732   4.912  0.00  0.00    +0.194 C 
ATOM     14  O   UNK    1       23.611 -11.943   3.598  0.00  0.00    -0.381 OA
ENDBRANCH  12  14
ENDBRANCH  11  12
ENDBRANCH  10  11
ENDBRANCH   9  10
ENDBRANCH   8   9
ENDBRANCH   7   8
ENDBRANCH   6   7
ENDBRANCH   5   6
ENDBRANCH   1   5
BRANCH   2  15
ATOM     15  C   UNK    1       25.767 -21.264   6.099  0.00  0.00    +0.104 C 
BRANCH  15  16
ATOM     16  C   UNK    1       24.908 -20.441   7.061  0.00  0.00    +0.019 C 
BRANCH  16  17
ATOM     17  C   UNK    1       23.407 -20.696   6.922  0.00  0.00    +0.003 C 
BRANCH  17  18
ATOM     18  C   UNK    1       22.895 -20.701   5.479  0.00  0.00    +0.030 C 
BRANCH  18  19
ATOM     19  C   UNK    1       23.010 -19.331   4.796  0.00  0.00    +0.161 C 
BRANCH  19  20
ATOM     20  N   UNK    1       21.691 -18.968   4.181  0.00  0.00    -0.318 NA
ATOM     21  H   UNK    1       21.534 -17.971   4.366  0.00  0.00    +0.119 HD
ATOM     22  H   UNK    1       20.943 -19.428   4.713  0.00  0.00    +0.119 HD
ENDBRANCH  19  20
BRANCH  19  23
ATOM     23  C   UNK    1       24.092 -19.288   3.683  0.00  0.00    +0.322 C 
ATOM     24  O   UNK    1       24.735 -18.321   3.345  0.00  0.00    -0.249 OA
BRANCH  23  25
ATOM     25  O   UNK    1       24.220 -20.505   3.083  0.00  0.00    -0.479 OA
ATOM     26  H   UNK    1       25.188 -20.628   2.925  0.00  0.00    +0.295 HD
ENDBRANCH  23  25
ENDBRANCH  19  23
ENDBRANCH  18  19
ENDBRANCH  17  18
ENDBRANCH  16  17
ENDBRANCH  15  16
ENDBRANCH   2  15
TORSDOF 17
ENDMDL
