MODEL 1
REMARK VINA RESULT:      -4.0      0.000      0.000
REMARK  Name = *****
REMARK                            x       y       z     vdW  Elec       q    Type
REMARK                         _______ _______ _______ _____ _____    ______ ____
ROOT
ATOM      1  C   LIG    1       30.899 -19.857   8.227  0.00  0.00    +0.165 C 
ENDROOT
BRANCH   1   2
ATOM      2  O   LIG    1       31.590 -19.835   6.965  0.00  0.00    -0.387 OA
ATOM      3  H   LIG    1       31.257 -19.029   6.520  0.00  0.00    +0.210 HD
ENDBRANCH   1   2
BRANCH   1   4
ATOM      4  C   LIG    1       31.521 -18.818   9.156  0.00  0.00    +0.189 C 
BRANCH   4   5
ATOM      5  O   LIG    1       30.879 -18.912  10.430  0.00  0.00    -0.392 OA
ATOM      6  H   LIG    1       30.505 -18.035  10.624  0.00  0.00    +0.209 HD
ENDBRANCH   4   5
ENDBRANCH   1   4
BRANCH   1   7
ATOM      7  C   LIG    1       30.995 -21.268   8.800  0.00  0.00    +0.189 C 
BRANCH   7   8
ATOM      8  O   LIG    1       32.231 -21.416   9.498  0.00  0.00    -0.392 OA
ATOM      9  H   LIG    1       32.271 -22.364   9.739  0.00  0.00    +0.209 HD
ENDBRANCH   7   8
ENDBRANCH   1   7
TORSDOF 5
ENDMDL
MODEL 2
REMARK VINA RESULT:      -4.0      2.041      3.357
REMARK  Name = *****
REMARK                            x       y       z     vdW  Elec       q    Type
REMARK                         _______ _______ _______ _____ _____    ______ ____
ROOT
ATOM      1  C   LIG    1       32.126 -17.377   9.545  0.00  0.00    +0.165 C 
ENDROOT
BRANCH   1   2
ATOM      2  O   LIG    1       32.465 -16.190   8.805  0.00  0.00    -0.387 OA
ATOM      3  H   LIG    1       32.638 -16.511   7.896  0.00  0.00    +0.210 HD
ENDBRANCH   1   2
BRANCH   1   4
ATOM      4  C   LIG    1       31.770 -18.492   8.565  0.00  0.00    +0.189 C 
BRANCH   4   5
ATOM      5  O   LIG    1       32.085 -19.746   9.177  0.00  0.00    -0.392 OA
ATOM      6  H   LIG    1       31.346 -20.349   8.982  0.00  0.00    +0.209 HD
ENDBRANCH   4   5
ENDBRANCH   1   4
BRANCH   1   7
ATOM      7  C   LIG    1       30.968 -17.044  10.480  0.00  0.00    +0.189 C 
BRANCH   7   8
ATOM      8  O   LIG    1       30.604 -18.208  11.220  0.00  0.00    -0.392 OA
ATOM      9  H   LIG    1       29.632 -18.145  11.326  0.00  0.00    +0.209 HD
ENDBRANCH   7   8
ENDBRANCH   1   7
TORSDOF 5
ENDMDL
MODEL 3
REMARK VINA RESULT:      -3.9      1.255      2.802
REMARK  Name = *****
REMARK                            x       y       z     vdW  Elec       q    Type
REMARK                         _______ _______ _______ _____ _____    ______ ____
ROOT
ATOM      1  C   LIG    1       30.893 -20.402   9.006  0.00  0.00    +0.165 C 
ENDROOT
BRANCH   1   2
ATOM      2  O   LIG    1       32.160 -19.801   9.329  0.00  0.00    -0.387 OA
ATOM      3  H   LIG    1       31.925 -18.945   9.742  0.00  0.00    +0.210 HD
ENDBRANCH   1   2
BRANCH   1   4
ATOM      4  C   LIG    1       31.000 -21.915   9.177  0.00  0.00    +0.189 C 
BRANCH   4   5
ATOM      5  O   LIG    1       32.229 -22.349   8.588  0.00  0.00    -0.392 OA
ATOM      6  H   LIG    1       32.006 -22.734   7.722  0.00  0.00    +0.209 HD
ENDBRANCH   4   5
ENDBRANCH   1   4
BRANCH   1   7
ATOM      7  C   LIG    1       30.528 -20.011   7.577  0.00  0.00    +0.189 C 
BRANCH   7   8
ATOM      8  O   LIG    1       31.719 -19.757   6.833  0.00  0.00    -0.392 OA
ATOM      9  H   LIG    1       32.230 -19.129   7.385  0.00  0.00    +0.209 HD
ENDBRANCH   7   8
ENDBRANCH   1   7
TORSDOF 5
ENDMDL
MODEL 4
REMARK VINA RESULT:      -3.9      1.559      3.126
REMARK  Name = *****
REMARK                            x       y       z     vdW  Elec       q    Type
REMARK                         _______ _______ _______ _____ _____    ______ ____
ROOT
ATOM      1  C   LIG    1       31.191 -18.997   9.145  0.00  0.00    +0.165 C 
ENDROOT
BRANCH   1   2
ATOM      2  O   LIG    1       32.102 -20.092   9.350  0.00  0.00    -0.387 OA
ATOM      3  H   LIG    1       31.619 -20.875   9.017  0.00  0.00    +0.210 HD
ENDBRANCH   1   2
BRANCH   1   4
ATOM      4  C   LIG    1       30.734 -18.993   7.688  0.00  0.00    +0.189 C 
BRANCH   4   5
ATOM      5  O   LIG    1       31.684 -19.733   6.917  0.00  0.00    -0.392 OA
ATOM      6  H   LIG    1       32.248 -19.082   6.462  0.00  0.00    +0.209 HD
ENDBRANCH   4   5
ENDBRANCH   1   4
BRANCH   1   7
ATOM      7  C   LIG    1       31.903 -17.703   9.526  0.00  0.00    +0.189 C 
BRANCH   7   8
ATOM      8  O   LIG    1       32.371 -17.051   8.345  0.00  0.00    -0.392 OA
ATOM      9  H   LIG    1       31.559 -16.754   7.885  0.00  0.00    +0.209 HD
ENDBRANCH   7   8
ENDBRANCH   1   7
TORSDOF 5
ENDMDL
MODEL 5
REMARK VINA RESULT:      -3.8      2.411      3.555
REMARK  Name = *****
REMARK                            x       y       z     vdW  Elec       q    Type
REMARK                         _______ _______ _______ _____ _____    ______ ____
ROOT
ATOM      1  C   LIG    1       31.462 -17.284  10.605  0.00  0.00    +0.165 C 
ENDROOT
BRANCH   1   2
ATOM      2  O   LIG    1       30.306 -16.491  10.928  0.00  0.00    -0.387 OA
ATOM      3  H   LIG    1       30.050 -16.789  11.824  0.00  0.00    +0.210 HD
ENDBRANCH   1   2
BRANCH   1   4
ATOM      4  C   LIG    1       32.582 -16.364  10.125  0.00  0.00    +0.189 C 
BRANCH   4   5
ATOM      5  O   LIG    1       32.568 -16.346   8.695  0.00  0.00    -0.392 OA
ATOM      6  H   LIG    1       32.845 -15.454   8.421  0.00  0.00    +0.209 HD
ENDBRANCH   4   5
ENDBRANCH   1   4
BRANCH   1   7
ATOM      7  C   LIG    1       31.063 -18.302   9.541  0.00  0.00    +0.189 C 
BRANCH   7   8
ATOM      8  O   LIG    1       32.127 -19.233   9.349  0.00  0.00    -0.392 OA
ATOM      9  H   LIG    1       31.747 -20.103   9.591  0.00  0.00    +0.209 HD
ENDBRANCH   7   8
ENDBRANCH   1   7
TORSDOF 5
ENDMDL
MODEL 6
REMARK VINA RESULT:      -3.7      1.971      3.644
REMARK  Name = *****
REMARK                            x       y       z     vdW  Elec       q    Type
REMARK                         _______ _______ _______ _____ _____    ______ ____
ROOT
ATOM      1  C   LIG    1       31.137 -17.789   9.656  0.00  0.00    +0.165 C 
ENDROOT
BRANCH   1   2
ATOM      2  O   LIG    1       30.818 -18.490  10.871  0.00  0.00    -0.387 OA
ATOM      3  H   LIG    1       30.703 -17.782  11.537  0.00  0.00    +0.210 HD
ENDBRANCH   1   2
BRANCH   1   4
ATOM      4  C   LIG    1       31.559 -18.799   8.592  0.00  0.00    +0.189 C 
BRANCH   4   5
ATOM      5  O   LIG    1       32.110 -19.942   9.251  0.00  0.00    -0.392 OA
ATOM      6  H   LIG    1       32.730 -19.608   9.924  0.00  0.00    +0.209 HD
ENDBRANCH   4   5
ENDBRANCH   1   4
BRANCH   1   7
ATOM      7  C   LIG    1       32.242 -16.781   9.960  0.00  0.00    +0.189 C 
BRANCH   7   8
ATOM      8  O   LIG    1       32.670 -16.164   8.746  0.00  0.00    -0.392 OA
ATOM      9  H   LIG    1       33.378 -16.749   8.404  0.00  0.00    +0.209 HD
ENDBRANCH   7   8
ENDBRANCH   1   7
TORSDOF 5
ENDMDL
MODEL 7
REMARK VINA RESULT:      -3.7      2.112      3.038
REMARK  Name = *****
REMARK                            x       y       z     vdW  Elec       q    Type
REMARK                         _______ _______ _______ _____ _____    ______ ____
ROOT
ATOM      1  C   LIG    1       31.784 -18.392   8.476  0.00  0.00    +0.165 C 
ENDROOT
BRANCH   1   2
ATOM      2  O   LIG    1       32.077 -19.596   9.206  0.00  0.00    -0.387 OA
ATOM      3  H   LIG    1       31.281 -19.749   9.754  0.00  0.00    +0.210 HD
ENDBRANCH   1   2
BRANCH   1   4
ATOM      4  C   LIG    1       31.955 -17.191   9.403  0.00  0.00    +0.189 C 
BRANCH   4   5
ATOM      5  O   LIG    1       32.678 -16.178   8.698  0.00  0.00    -0.392 OA
ATOM      6  H   LIG    1       33.625 -16.366   8.828  0.00  0.00    +0.209 HD
ENDBRANCH   4   5
ENDBRANCH   1   4
BRANCH   1   7
ATOM      7  C   LIG    1       30.363 -18.496   7.931  0.00  0.00    +0.189 C 
BRANCH   7   8
ATOM      8  O   LIG    1       30.387 -18.365   6.510  0.00  0.00    -0.392 OA
ATOM      9  H   LIG    1       31.336 -18.395   6.271  0.00  0.00    +0.209 HD
ENDBRANCH   7   8
ENDBRANCH   1   7
TORSDOF 5
ENDMDL
MODEL 8
REMARK VINA RESULT:      -3.7      1.110      2.526
REMARK  Name = *****
REMARK                            x       y       z     vdW  Elec       q    Type
REMARK                         _______ _______ _______ _____ _____    ______ ____
ROOT
ATOM      1  C   LIG    1       30.714 -19.979   8.293  0.00  0.00    +0.165 C 
ENDROOT
BRANCH   1   2
ATOM      2  O   LIG    1       29.306 -19.705   8.403  0.00  0.00    -0.387 OA
ATOM      3  H   LIG    1       29.176 -19.474   9.346  0.00  0.00    +0.210 HD
ENDBRANCH   1   2
BRANCH   1   4
ATOM      4  C   LIG    1       30.987 -21.402   8.774  0.00  0.00    +0.189 C 
BRANCH   4   5
ATOM      5  O   LIG    1       32.214 -21.400   9.508  0.00  0.00    -0.392 OA
ATOM      6  H   LIG    1       32.932 -21.297   8.857  0.00  0.00    +0.209 HD
ENDBRANCH   4   5
ENDBRANCH   1   4
BRANCH   1   7
ATOM      7  C   LIG    1       31.470 -18.940   9.117  0.00  0.00    +0.189 C 
BRANCH   7   8
ATOM      8  O   LIG    1       30.886 -18.845  10.415  0.00  0.00    -0.392 OA
ATOM      9  H   LIG    1       29.992 -18.476  10.262  0.00  0.00    +0.209 HD
ENDBRANCH   7   8
ENDBRANCH   1   7
TORSDOF 5
ENDMDL
MODEL 9
REMARK VINA RESULT:      -3.6      1.471      2.569
REMARK  Name = *****
REMARK                            x       y       z     vdW  Elec       q    Type
REMARK                         _______ _______ _______ _____ _____    ______ ____
ROOT
ATOM      1  C   LIG    1       30.737 -20.160   8.219  0.00  0.00    +0.165 C 
ENDROOT
BRANCH   1   2
ATOM      2  O   LIG    1       31.778 -19.912   7.257  0.00  0.00    -0.387 OA
ATOM      3  H   LIG    1       32.539 -20.434   7.582  0.00  0.00    +0.210 HD
ENDBRANCH   1   2
BRANCH   1   4
ATOM      4  C   LIG    1       30.985 -21.512   8.885  0.00  0.00    +0.189 C 
BRANCH   4   5
ATOM      5  O   LIG    1       32.272 -21.478   9.507  0.00  0.00    -0.392 OA
ATOM      6  H   LIG    1       32.820 -22.147   9.059  0.00  0.00    +0.209 HD
ENDBRANCH   4   5
ENDBRANCH   1   4
BRANCH   1   7
ATOM      7  C   LIG    1       29.395 -20.115   7.496  0.00  0.00    +0.189 C 
BRANCH   7   8
ATOM      8  O   LIG    1       29.243 -21.290   6.700  0.00  0.00    -0.392 OA
ATOM      9  H   LIG    1       28.457 -21.115   6.142  0.00  0.00    +0.209 HD
ENDBRANCH   7   8
ENDBRANCH   1   7
TORSDOF 5
ENDMDL
