MODEL 1
REMARK VINA RESULT:       4.0      0.000      0.000
REMARK  Name = *****
REMARK                            x       y       z     vdW  Elec       q    Type
REMARK                         _______ _______ _______ _____ _____    ______ ____
ROOT
ATOM      1  C   LIG    1       25.335 -13.129   4.269  0.00  0.00    +0.176 C 
ATOM      2  C   LIG    1       25.414 -14.350   3.270  0.00  0.00    +0.018 C 
ATOM      3  C   LIG    1       25.178 -13.914   1.812  0.00  0.00    +0.016 C 
ATOM      4  C   LIG    1       24.289 -15.290   3.764  0.00  0.00    +0.006 C 
ATOM      5  C   LIG    1       24.360 -16.730   3.191  0.00  0.00    +0.019 C 
ATOM      6  C   LIG    1       25.748 -17.411   3.188  0.00  0.00    +0.004 C 
ATOM      7  C   LIG    1       26.818 -16.439   2.672  0.00  0.00    +0.005 C 
ATOM      8  C   LIG    1       26.056 -18.102   4.545  0.00  0.00    +0.024 C 
ATOM      9  C   LIG    1       24.930 -19.074   4.937  0.00  0.00    -0.038 C 
ATOM     10  C   LIG    1       25.188 -20.201   5.629  0.00  0.00    +0.050 C 
ATOM     11  C   LIG    1       26.550 -20.546   6.099  0.00  0.00    +0.156 C 
ATOM     12  O   LIG    1       26.717 -21.568   6.762  0.00  0.00    -0.293 OA
ATOM     13  C   LIG    1       27.670 -19.584   5.818  0.00  0.00    +0.079 C 
ATOM     14  C   LIG    1       23.560 -18.720   4.531  0.00  0.00    -0.051 C 
ATOM     15  C   LIG    1       22.403 -19.593   4.957  0.00  0.00    +0.044 C 
ATOM     16  C   LIG    1       27.419 -18.822   4.526  0.00  0.00    +0.016 C 
ATOM     17  C   LIG    1       23.313 -17.632   3.779  0.00  0.00    -0.019 C 
ATOM     18  C   LIG    1       24.285 -15.126   5.295  0.00  0.00    +0.009 C 
ATOM     19  C   LIG    1       26.790 -15.079   3.367  0.00  0.00    +0.011 C 
ATOM     20  C   LIG    1       25.072 -13.849   5.614  0.00  0.00    +0.057 C 
ENDROOT
BRANCH   1  21
ATOM     21  C   LIG    1       24.141 -12.159   3.963  0.00  0.00    +0.174 C 
ATOM     22  O   LIG    1       23.820 -11.874   2.803  0.00  0.00    -0.293 OA
ATOM     23  C   LIG    1       23.455 -11.448   5.108  0.00  0.00    +0.090 C 
ENDBRANCH   1  21
BRANCH   1  24
ATOM     24  O   LIG    1       26.632 -12.505   4.301  0.00  0.00    -0.450 OA
BRANCH  24  26
ATOM     25  C   LIG    1       28.901 -12.477   4.874  0.00  0.00    +0.136 C 
ATOM     26  C   LIG    1       27.511 -12.860   5.270  0.00  0.00    +0.305 C 
ATOM     27  O   LIG    1       27.224 -13.461   6.300  0.00  0.00    -0.251 OA
ENDBRANCH  24  26
ENDBRANCH   1  24
TORSDOF 3
ENDMDL
