MODEL 1
REMARK VINA RESULT:      -2.6      0.000      0.000
REMARK  Name = *****
REMARK                            x       y       z     vdW  Elec       q    Type
REMARK                         _______ _______ _______ _____ _____    ______ ____
ROOT
ATOM      1  C   LIG    1       21.952 -15.948   5.048  0.00  0.00    +0.155 C 
ATOM      2  N   LIG    1       23.260 -16.105   4.444  0.00  0.00    -0.280 N 
ATOM      3  C   LIG    1       23.722 -17.393   4.172  0.00  0.00    +0.333 C 
ATOM      4  O   LIG    1       23.037 -18.390   4.421  0.00  0.00    -0.246 OA
ATOM      5  N   LIG    1       25.004 -17.511   3.601  0.00  0.00    -0.262 N 
ATOM      6  C   LIG    1       25.448 -18.859   3.301  0.00  0.00    +0.157 C 
ATOM      7  C   LIG    1       25.883 -16.452   3.354  0.00  0.00    +0.282 C 
ATOM      8  O   LIG    1       27.039 -16.580   2.964  0.00  0.00    -0.265 OA
ATOM      9  C   LIG    1       25.298 -15.180   3.608  0.00  0.00    +0.151 A 
ATOM     10  N   LIG    1       25.775 -13.909   3.444  0.00  0.00    -0.322 N 
ATOM     11  C   LIG    1       24.780 -13.055   3.843  0.00  0.00    +0.202 A 
ATOM     12  N   LIG    1       23.721 -13.711   4.274  0.00  0.00    -0.218 NA
ATOM     13  C   LIG    1       24.048 -15.025   4.127  0.00  0.00    +0.168 A 
ENDROOT
BRANCH  10  14
ATOM     14  C   LIG    1       27.068 -13.514   2.914  0.00  0.00    +0.157 C 
BRANCH  14  15
ATOM     15  C   LIG    1       28.187 -13.618   3.952  0.00  0.00    +0.160 C 
BRANCH  15  16
ATOM     16  O   LIG    1       29.474 -13.289   3.403  0.00  0.00    -0.388 OA
ATOM     17  H   LIG    1       29.661 -12.345   3.582  0.00  0.00    +0.210 HD
ENDBRANCH  15  16
BRANCH  15  18
ATOM     18  C   LIG    1       27.943 -12.665   5.127  0.00  0.00    +0.188 C 
BRANCH  18  19
ATOM     19  O   LIG    1       29.085 -11.828   5.304  0.00  0.00    -0.392 OA
ATOM     20  H   LIG    1       29.511 -12.129   6.133  0.00  0.00    +0.209 HD
ENDBRANCH  18  19
ENDBRANCH  15  18
ENDBRANCH  14  15
ENDBRANCH  10  14
TORSDOF 5
ENDMDL
MODEL 2
REMARK VINA RESULT:      -2.4      1.967      6.031
REMARK  Name = *****
REMARK                            x       y       z     vdW  Elec       q    Type
REMARK                         _______ _______ _______ _____ _____    ______ ____
ROOT
ATOM      1  C   LIG    1       28.118 -14.371   3.581  0.00  0.00    +0.155 C 
ATOM      2  N   LIG    1       26.705 -14.651   3.741  0.00  0.00    -0.280 N 
ATOM      3  C   LIG    1       25.842 -13.595   4.033  0.00  0.00    +0.333 C 
ATOM      4  O   LIG    1       26.255 -12.435   4.141  0.00  0.00    -0.246 OA
ATOM      5  N   LIG    1       24.478 -13.904   4.200  0.00  0.00    -0.262 N 
ATOM      6  C   LIG    1       23.598 -12.784   4.473  0.00  0.00    +0.157 C 
ATOM      7  C   LIG    1       23.928 -15.189   4.173  0.00  0.00    +0.282 C 
ATOM      8  O   LIG    1       22.759 -15.455   4.434  0.00  0.00    -0.265 OA
ATOM      9  C   LIG    1       24.876 -16.186   3.810  0.00  0.00    +0.151 A 
ATOM     10  N   LIG    1       24.750 -17.533   3.610  0.00  0.00    -0.322 N 
ATOM     11  C   LIG    1       25.992 -18.003   3.267  0.00  0.00    +0.202 A 
ATOM     12  N   LIG    1       26.893 -17.041   3.269  0.00  0.00    -0.218 NA
ATOM     13  C   LIG    1       26.197 -15.920   3.606  0.00  0.00    +0.168 A 
ENDROOT
BRANCH  10  14
ATOM     14  C   LIG    1       23.538 -18.328   3.698  0.00  0.00    +0.157 C 
BRANCH  14  15
ATOM     15  C   LIG    1       23.668 -19.493   4.681  0.00  0.00    +0.160 C 
BRANCH  15  16
ATOM     16  O   LIG    1       22.488 -19.665   5.483  0.00  0.00    -0.388 OA
ATOM     17  H   LIG    1       21.747 -19.182   5.062  0.00  0.00    +0.210 HD
ENDBRANCH  15  16
BRANCH  15  18
ATOM     18  C   LIG    1       23.907 -20.815   3.945  0.00  0.00    +0.188 C 
BRANCH  18  19
ATOM     19  O   LIG    1       25.023 -21.487   4.527  0.00  0.00    -0.392 OA
ATOM     20  H   LIG    1       24.759 -22.427   4.604  0.00  0.00    +0.209 HD
ENDBRANCH  18  19
ENDBRANCH  15  18
ENDBRANCH  14  15
ENDBRANCH  10  14
TORSDOF 5
ENDMDL
MODEL 3
REMARK VINA RESULT:      -2.3      3.765      7.074
REMARK  Name = *****
REMARK                            x       y       z     vdW  Elec       q    Type
REMARK                         _______ _______ _______ _____ _____    ______ ____
ROOT
ATOM      1  C   LIG    1       27.707 -16.680   3.639  0.00  0.00    +0.155 C 
ATOM      2  N   LIG    1       27.466 -17.911   4.366  0.00  0.00    -0.280 N 
ATOM      3  C   LIG    1       28.399 -18.319   5.319  0.00  0.00    +0.333 C 
ATOM      4  O   LIG    1       29.409 -17.651   5.562  0.00  0.00    -0.246 OA
ATOM      5  N   LIG    1       28.143 -19.529   5.994  0.00  0.00    -0.262 N 
ATOM      6  C   LIG    1       29.113 -19.917   7.001  0.00  0.00    +0.157 C 
ATOM      7  C   LIG    1       27.073 -20.391   5.737  0.00  0.00    +0.282 C 
ATOM      8  O   LIG    1       26.926 -21.496   6.251  0.00  0.00    -0.265 OA
ATOM      9  C   LIG    1       26.150 -19.858   4.794  0.00  0.00    +0.151 A 
ATOM     10  N   LIG    1       24.962 -20.333   4.314  0.00  0.00    -0.322 N 
ATOM     11  C   LIG    1       24.489 -19.401   3.426  0.00  0.00    +0.202 A 
ATOM     12  N   LIG    1       25.320 -18.386   3.299  0.00  0.00    -0.218 NA
ATOM     13  C   LIG    1       26.346 -18.675   4.147  0.00  0.00    +0.168 A 
ENDROOT
BRANCH  10  14
ATOM     14  C   LIG    1       24.290 -21.566   4.686  0.00  0.00    +0.157 C 
BRANCH  14  15
ATOM     15  C   LIG    1       23.160 -21.340   5.692  0.00  0.00    +0.160 C 
BRANCH  15  16
ATOM     16  O   LIG    1       23.589 -20.580   6.834  0.00  0.00    -0.388 OA
ATOM     17  H   LIG    1       23.940 -21.197   7.510  0.00  0.00    +0.210 HD
ENDBRANCH  15  16
BRANCH  15  18
ATOM     18  C   LIG    1       21.994 -20.577   5.056  0.00  0.00    +0.188 C 
BRANCH  18  19
ATOM     19  O   LIG    1       20.954 -21.492   4.721  0.00  0.00    -0.392 OA
ATOM     20  H   LIG    1       20.420 -21.050   4.030  0.00  0.00    +0.209 HD
ENDBRANCH  18  19
ENDBRANCH  15  18
ENDBRANCH  14  15
ENDBRANCH  10  14
TORSDOF 5
ENDMDL
MODEL 4
REMARK VINA RESULT:      -2.2      3.961      5.473
REMARK  Name = *****
REMARK                            x       y       z     vdW  Elec       q    Type
REMARK                         _______ _______ _______ _____ _____    ______ ____
ROOT
ATOM      1  C   LIG    1       22.458 -21.570   6.565  0.00  0.00    +0.155 C 
ATOM      2  N   LIG    1       23.414 -20.793   5.801  0.00  0.00    -0.280 N 
ATOM      3  C   LIG    1       22.941 -19.955   4.790  0.00  0.00    +0.333 C 
ATOM      4  O   LIG    1       21.734 -19.855   4.547  0.00  0.00    -0.246 OA
ATOM      5  N   LIG    1       23.898 -19.228   4.055  0.00  0.00    -0.262 N 
ATOM      6  C   LIG    1       23.379 -18.343   3.030  0.00  0.00    +0.157 C 
ATOM      7  C   LIG    1       25.285 -19.331   4.203  0.00  0.00    +0.282 C 
ATOM      8  O   LIG    1       26.108 -18.779   3.480  0.00  0.00    -0.265 OA
ATOM      9  C   LIG    1       25.662 -20.161   5.296  0.00  0.00    +0.151 A 
ATOM     10  N   LIG    1       26.884 -20.479   5.819  0.00  0.00    -0.322 N 
ATOM     11  C   LIG    1       26.659 -21.319   6.878  0.00  0.00    +0.202 A 
ATOM     12  N   LIG    1       25.375 -21.572   7.033  0.00  0.00    -0.218 NA
ATOM     13  C   LIG    1       24.763 -20.853   6.051  0.00  0.00    +0.168 A 
ENDROOT
BRANCH  10  14
ATOM     14  C   LIG    1       28.183 -20.000   5.379  0.00  0.00    +0.157 C 
BRANCH  14  15
ATOM     15  C   LIG    1       28.516 -18.611   5.930  0.00  0.00    +0.160 C 
BRANCH  15  16
ATOM     16  O   LIG    1       29.463 -18.665   7.009  0.00  0.00    -0.388 OA
ATOM     17  H   LIG    1       29.868 -19.557   7.030  0.00  0.00    +0.210 HD
ENDBRANCH  15  16
BRANCH  15  18
ATOM     18  C   LIG    1       29.121 -17.715   4.845  0.00  0.00    +0.188 C 
BRANCH  18  19
ATOM     19  O   LIG    1       28.078 -17.007   4.178  0.00  0.00    -0.392 OA
ATOM     20  H   LIG    1       27.871 -16.237   4.747  0.00  0.00    +0.209 HD
ENDBRANCH  18  19
ENDBRANCH  15  18
ENDBRANCH  14  15
ENDBRANCH  10  14
TORSDOF 5
ENDMDL
MODEL 5
REMARK VINA RESULT:      -2.2      1.940      5.320
REMARK  Name = *****
REMARK                            x       y       z     vdW  Elec       q    Type
REMARK                         _______ _______ _______ _____ _____    ______ ____
ROOT
ATOM      1  C   LIG    1       23.311 -13.190   4.874  0.00  0.00    +0.155 C 
ATOM      2  N   LIG    1       24.093 -14.328   4.432  0.00  0.00    -0.280 N 
ATOM      3  C   LIG    1       25.418 -14.121   4.049  0.00  0.00    +0.333 C 
ATOM      4  O   LIG    1       25.935 -13.000   4.092  0.00  0.00    -0.246 OA
ATOM      5  N   LIG    1       26.145 -15.244   3.608  0.00  0.00    -0.262 N 
ATOM      6  C   LIG    1       27.528 -15.007   3.242  0.00  0.00    +0.157 C 
ATOM      7  C   LIG    1       25.628 -16.534   3.451  0.00  0.00    +0.282 C 
ATOM      8  O   LIG    1       26.240 -17.476   2.957  0.00  0.00    -0.265 OA
ATOM      9  C   LIG    1       24.292 -16.654   3.924  0.00  0.00    +0.151 A 
ATOM     10  N   LIG    1       23.450 -17.727   4.013  0.00  0.00    -0.322 N 
ATOM     11  C   LIG    1       22.276 -17.269   4.555  0.00  0.00    +0.202 A 
ATOM     12  N   LIG    1       22.320 -15.972   4.783  0.00  0.00    -0.218 NA
ATOM     13  C   LIG    1       23.569 -15.597   4.390  0.00  0.00    +0.168 A 
ENDROOT
BRANCH  10  14
ATOM     14  C   LIG    1       23.734 -19.103   3.648  0.00  0.00    +0.157 C 
BRANCH  14  15
ATOM     15  C   LIG    1       23.750 -20.042   4.856  0.00  0.00    +0.160 C 
BRANCH  15  16
ATOM     16  O   LIG    1       22.948 -21.216   4.646  0.00  0.00    -0.388 OA
ATOM     17  H   LIG    1       22.335 -21.318   5.403  0.00  0.00    +0.210 HD
ENDBRANCH  15  16
BRANCH  15  18
ATOM     18  C   LIG    1       25.172 -20.520   5.168  0.00  0.00    +0.188 C 
BRANCH  18  19
ATOM     19  O   LIG    1       26.032 -20.195   4.078  0.00  0.00    -0.392 OA
ATOM     20  H   LIG    1       26.578 -19.441   4.383  0.00  0.00    +0.209 HD
ENDBRANCH  18  19
ENDBRANCH  15  18
ENDBRANCH  14  15
ENDBRANCH  10  14
TORSDOF 5
ENDMDL
MODEL 6
REMARK VINA RESULT:      -1.8      2.392      5.275
REMARK  Name = *****
REMARK                            x       y       z     vdW  Elec       q    Type
REMARK                         _______ _______ _______ _____ _____    ______ ____
ROOT
ATOM      1  C   LIG    1       22.380 -14.781   4.972  0.00  0.00    +0.155 C 
ATOM      2  N   LIG    1       23.431 -15.640   4.465  0.00  0.00    -0.280 N 
ATOM      3  C   LIG    1       24.650 -15.065   4.106  0.00  0.00    +0.333 C 
ATOM      4  O   LIG    1       24.852 -13.852   4.226  0.00  0.00    -0.246 OA
ATOM      5  N   LIG    1       25.644 -15.925   3.599  0.00  0.00    -0.262 N 
ATOM      6  C   LIG    1       26.912 -15.307   3.261  0.00  0.00    +0.157 C 
ATOM      7  C   LIG    1       25.486 -17.292   3.355  0.00  0.00    +0.282 C 
ATOM      8  O   LIG    1       26.321 -18.006   2.807  0.00  0.00    -0.265 OA
ATOM      9  C   LIG    1       24.234 -17.792   3.809  0.00  0.00    +0.151 A 
ATOM     10  N   LIG    1       23.707 -19.053   3.822  0.00  0.00    -0.322 N 
ATOM     11  C   LIG    1       22.459 -18.959   4.383  0.00  0.00    +0.202 A 
ATOM     12  N   LIG    1       22.160 -17.714   4.694  0.00  0.00    -0.218 NA
ATOM     13  C   LIG    1       23.261 -16.996   4.336  0.00  0.00    +0.168 A 
ENDROOT
BRANCH  10  14
ATOM     14  C   LIG    1       24.342 -20.279   3.371  0.00  0.00    +0.157 C 
BRANCH  14  15
ATOM     15  C   LIG    1       25.182 -20.943   4.464  0.00  0.00    +0.160 C 
BRANCH  15  16
ATOM     16  O   LIG    1       26.491 -20.361   4.576  0.00  0.00    -0.388 OA
ATOM     17  H   LIG    1       27.069 -20.978   5.071  0.00  0.00    +0.210 HD
ENDBRANCH  15  16
BRANCH  15  18
ATOM     18  C   LIG    1       24.513 -20.812   5.835  0.00  0.00    +0.188 C 
BRANCH  18  19
ATOM     19  O   LIG    1       25.495 -20.472   6.812  0.00  0.00    -0.392 OA
ATOM     20  H   LIG    1       25.705 -21.305   7.282  0.00  0.00    +0.209 HD
ENDBRANCH  18  19
ENDBRANCH  15  18
ENDBRANCH  14  15
ENDBRANCH  10  14
TORSDOF 5
ENDMDL
MODEL 7
REMARK VINA RESULT:      -1.7      3.419      6.989
REMARK  Name = *****
REMARK                            x       y       z     vdW  Elec       q    Type
REMARK                         _______ _______ _______ _____ _____    ______ ____
ROOT
ATOM      1  C   LIG    1       29.432 -19.145   6.495  0.00  0.00    +0.155 C 
ATOM      2  N   LIG    1       28.262 -18.969   5.658  0.00  0.00    -0.280 N 
ATOM      3  C   LIG    1       28.193 -17.847   4.831  0.00  0.00    +0.333 C 
ATOM      4  O   LIG    1       29.109 -17.018   4.789  0.00  0.00    -0.246 OA
ATOM      5  N   LIG    1       27.035 -17.697   4.044  0.00  0.00    -0.262 N 
ATOM      6  C   LIG    1       27.001 -16.538   3.172  0.00  0.00    +0.157 C 
ATOM      7  C   LIG    1       25.917 -18.535   4.077  0.00  0.00    +0.282 C 
ATOM      8  O   LIG    1       24.869 -18.328   3.472  0.00  0.00    -0.265 OA
ATOM      9  C   LIG    1       26.110 -19.678   4.903  0.00  0.00    +0.151 A 
ATOM     10  N   LIG    1       25.313 -20.757   5.165  0.00  0.00    -0.322 N 
ATOM     11  C   LIG    1       26.005 -21.563   6.032  0.00  0.00    +0.202 A 
ATOM     12  N   LIG    1       27.172 -21.042   6.353  0.00  0.00    -0.218 NA
ATOM     13  C   LIG    1       27.231 -19.875   5.652  0.00  0.00    +0.168 A 
ENDROOT
BRANCH  10  14
ATOM     14  C   LIG    1       24.000 -21.039   4.612  0.00  0.00    +0.157 C 
BRANCH  14  15
ATOM     15  C   LIG    1       22.868 -20.730   5.594  0.00  0.00    +0.160 C 
BRANCH  15  16
ATOM     16  O   LIG    1       23.282 -20.862   6.964  0.00  0.00    -0.388 OA
ATOM     17  H   LIG    1       24.005 -21.522   7.013  0.00  0.00    +0.210 HD
ENDBRANCH  15  16
BRANCH  15  18
ATOM     18  C   LIG    1       22.355 -19.297   5.417  0.00  0.00    +0.188 C 
BRANCH  18  19
ATOM     19  O   LIG    1       22.229 -19.008   4.026  0.00  0.00    -0.392 OA
ATOM     20  H   LIG    1       21.318 -19.270   3.779  0.00  0.00    +0.209 HD
ENDBRANCH  18  19
ENDBRANCH  15  18
ENDBRANCH  14  15
ENDBRANCH  10  14
TORSDOF 5
ENDMDL
MODEL 8
REMARK VINA RESULT:      -1.6      2.734      3.785
REMARK  Name = *****
REMARK                            x       y       z     vdW  Elec       q    Type
REMARK                         _______ _______ _______ _____ _____    ______ ____
ROOT
ATOM      1  C   LIG    1       26.256 -19.441   2.899  0.00  0.00    +0.155 C 
ATOM      2  N   LIG    1       25.185 -18.603   3.401  0.00  0.00    -0.280 N 
ATOM      3  C   LIG    1       23.998 -19.209   3.813  0.00  0.00    +0.333 C 
ATOM      4  O   LIG    1       23.850 -20.435   3.772  0.00  0.00    -0.246 OA
ATOM      5  N   LIG    1       22.971 -18.364   4.279  0.00  0.00    -0.262 N 
ATOM      6  C   LIG    1       21.758 -19.021   4.728  0.00  0.00    +0.157 C 
ATOM      7  C   LIG    1       23.013 -16.967   4.292  0.00  0.00    +0.282 C 
ATOM      8  O   LIG    1       22.070 -16.242   4.593  0.00  0.00    -0.265 OA
ATOM      9  C   LIG    1       24.283 -16.451   3.912  0.00  0.00    +0.151 A 
ATOM     10  N   LIG    1       24.765 -15.173   3.848  0.00  0.00    -0.322 N 
ATOM     11  C   LIG    1       26.065 -15.258   3.420  0.00  0.00    +0.202 A 
ATOM     12  N   LIG    1       26.418 -16.505   3.183  0.00  0.00    -0.218 NA
ATOM     13  C   LIG    1       25.312 -17.238   3.488  0.00  0.00    +0.168 A 
ENDROOT
BRANCH  10  14
ATOM     14  C   LIG    1       24.067 -13.949   4.198  0.00  0.00    +0.157 C 
BRANCH  14  15
ATOM     15  C   LIG    1       24.384 -12.795   3.245  0.00  0.00    +0.160 C 
BRANCH  15  16
ATOM     16  O   LIG    1       23.905 -13.041   1.912  0.00  0.00    -0.388 OA
ATOM     17  H   LIG    1       23.982 -13.998   1.720  0.00  0.00    +0.210 HD
ENDBRANCH  15  16
BRANCH  15  18
ATOM     18  C   LIG    1       23.741 -11.489   3.721  0.00  0.00    +0.188 C 
BRANCH  18  19
ATOM     19  O   LIG    1       23.745 -11.450   5.146  0.00  0.00    -0.392 OA
ATOM     20  H   LIG    1       23.361 -10.583   5.392  0.00  0.00    +0.209 HD
ENDBRANCH  18  19
ENDBRANCH  15  18
ENDBRANCH  14  15
ENDBRANCH  10  14
TORSDOF 5
ENDMDL
MODEL 9
REMARK VINA RESULT:      -1.5      1.332      1.562
REMARK  Name = *****
REMARK                            x       y       z     vdW  Elec       q    Type
REMARK                         _______ _______ _______ _____ _____    ______ ____
ROOT
ATOM      1  C   LIG    1       21.693 -17.661   4.716  0.00  0.00    +0.155 C 
ATOM      2  N   LIG    1       23.065 -17.527   4.268  0.00  0.00    -0.280 N 
ATOM      3  C   LIG    1       23.783 -18.682   3.955  0.00  0.00    +0.333 C 
ATOM      4  O   LIG    1       23.270 -19.803   4.039  0.00  0.00    -0.246 OA
ATOM      5  N   LIG    1       25.119 -18.518   3.540  0.00  0.00    -0.262 N 
ATOM      6  C   LIG    1       25.834 -19.732   3.194  0.00  0.00    +0.157 C 
ATOM      7  C   LIG    1       25.809 -17.304   3.488  0.00  0.00    +0.282 C 
ATOM      8  O   LIG    1       27.005 -17.189   3.236  0.00  0.00    -0.265 OA
ATOM      9  C   LIG    1       24.976 -16.184   3.766  0.00  0.00    +0.151 A 
ATOM     10  N   LIG    1       25.225 -14.840   3.762  0.00  0.00    -0.322 N 
ATOM     11  C   LIG    1       24.052 -14.216   4.100  0.00  0.00    +0.202 A 
ATOM     12  N   LIG    1       23.092 -15.085   4.344  0.00  0.00    -0.218 NA
ATOM     13  C   LIG    1       23.670 -16.301   4.136  0.00  0.00    +0.168 A 
ENDROOT
BRANCH  10  14
ATOM     14  C   LIG    1       26.472 -14.176   3.429  0.00  0.00    +0.157 C 
BRANCH  14  15
ATOM     15  C   LIG    1       26.919 -13.186   4.507  0.00  0.00    +0.160 C 
BRANCH  15  16
ATOM     16  O   LIG    1       26.552 -13.615   5.829  0.00  0.00    -0.388 OA
ATOM     17  H   LIG    1       25.925 -12.966   6.209  0.00  0.00    +0.210 HD
ENDBRANCH  15  16
BRANCH  15  18
ATOM     18  C   LIG    1       28.440 -13.006   4.499  0.00  0.00    +0.188 C 
BRANCH  18  19
ATOM     19  O   LIG    1       28.851 -12.497   3.232  0.00  0.00    -0.392 OA
ATOM     20  H   LIG    1       29.530 -13.120   2.900  0.00  0.00    +0.209 HD
ENDBRANCH  18  19
ENDBRANCH  15  18
ENDBRANCH  14  15
ENDBRANCH  10  14
TORSDOF 5
ENDMDL
