MODEL 1
REMARK VINA RESULT:       1.1      0.000      0.000
REMARK  Name = *****
REMARK                            x       y       z     vdW  Elec       q    Type
REMARK                         _______ _______ _______ _____ _____    ______ ____
ROOT
ATOM      1  C   LIG    1       24.407 -14.364   4.528  0.00  0.00    +0.185 C 
ATOM      2  C   LIG    1       25.115 -15.209   3.445  0.00  0.00    +0.063 C 
ATOM      3  C   LIG    1       25.992 -14.318   2.589  0.00  0.00    -0.044 C 
ATOM      4  C   LIG    1       27.390 -14.633   2.424  0.00  0.00    -0.000 C 
ATOM      5  C   LIG    1       28.005 -15.526   3.212  0.00  0.00    -0.023 C 
ATOM      6  C   LIG    1       27.273 -16.251   4.318  0.00  0.00    +0.012 C 
ATOM      7  C   LIG    1       28.020 -17.506   4.775  0.00  0.00    +0.012 C 
ATOM      8  C   LIG    1       25.424 -13.230   2.046  0.00  0.00    -0.020 C 
ATOM      9  C   LIG    1       23.991 -12.895   2.381  0.00  0.00    +0.012 C 
ATOM     10  C   LIG    1       23.662 -11.447   2.025  0.00  0.00    +0.012 C 
ATOM     11  C   LIG    1       25.788 -16.522   3.933  0.00  0.00    +0.007 C 
ATOM     12  C   LIG    1       23.651 -13.174   3.874  0.00  0.00    +0.052 C 
ENDROOT
BRANCH   1  13
ATOM     13  O   LIG    1       25.354 -13.897   5.512  0.00  0.00    -0.461 OA
BRANCH  13  14
ATOM     14  C   LIG    1       25.700 -12.578   5.437  0.00  0.00    +0.310 C 
ATOM     15  O   LIG    1       24.909 -11.652   5.389  0.00  0.00    -0.251 OA
BRANCH  14  16
ATOM     16  C   LIG    1       27.212 -12.381   5.507  0.00  0.00    +0.094 C 
ATOM     17  C   LIG    1       27.830 -13.578   6.227  0.00  0.00    +0.019 C 
BRANCH  16  19
ATOM     18  C   LIG    1       29.401 -12.221   4.200  0.00  0.00    +0.004 C 
ATOM     19  C   LIG    1       27.880 -12.170   4.141  0.00  0.00    +0.011 C 
ENDBRANCH  16  19
ENDBRANCH  14  16
ENDBRANCH  13  14
ENDBRANCH   1  13
BRANCH  11  20
ATOM     20  C   LIG    1       25.649 -17.665   2.868  0.00  0.00    +0.008 C 
BRANCH  20  21
ATOM     21  C   LIG    1       26.016 -19.075   3.387  0.00  0.00    +0.045 C 
BRANCH  21  22
ATOM     22  C   LIG    1       24.800 -19.969   3.688  0.00  0.00    +0.179 C 
ATOM     23  O   LIG    1       24.893 -20.372   5.071  0.00  0.00    -0.461 OA
ATOM     24  C   LIG    1       23.841 -20.514   5.905  0.00  0.00    +0.310 C 
ATOM     25  O   LIG    1       23.979 -21.029   7.008  0.00  0.00    -0.251 OA
ATOM     26  C   LIG    1       22.515 -20.041   5.407  0.00  0.00    +0.152 C 
ATOM     27  C   LIG    1       22.707 -18.833   4.520  0.00  0.00    +0.129 C 
ATOM     28  C   LIG    1       23.499 -19.256   3.302  0.00  0.00    +0.076 C 
BRANCH  27  29
ATOM     29  O   LIG    1       21.434 -18.340   4.114  0.00  0.00    -0.391 OA
ATOM     30  H   LIG    1       20.831 -19.099   4.023  0.00  0.00    +0.210 HD
ENDBRANCH  27  29
ENDBRANCH  21  22
ENDBRANCH  20  21
ENDBRANCH  11  20
TORSDOF 8
ENDMDL
MODEL 2
REMARK VINA RESULT:       1.3      1.840      3.718
REMARK  Name = *****
REMARK                            x       y       z     vdW  Elec       q    Type
REMARK                         _______ _______ _______ _____ _____    ______ ____
ROOT
ATOM      1  C   LIG    1       26.424 -14.448   2.302  0.00  0.00    +0.185 C 
ATOM      2  C   LIG    1       26.033 -15.288   3.539  0.00  0.00    +0.063 C 
ATOM      3  C   LIG    1       26.030 -14.411   4.776  0.00  0.00    -0.044 C 
ATOM      4  C   LIG    1       24.853 -14.348   5.607  0.00  0.00    -0.000 C 
ATOM      5  C   LIG    1       23.671 -14.818   5.185  0.00  0.00    -0.023 C 
ATOM      6  C   LIG    1       23.502 -15.439   3.818  0.00  0.00    +0.012 C 
ATOM      7  C   LIG    1       22.231 -16.288   3.726  0.00  0.00    +0.012 C 
ATOM      8  C   LIG    1       27.135 -13.688   5.022  0.00  0.00    -0.020 C 
ATOM      9  C   LIG    1       28.270 -13.705   4.028  0.00  0.00    +0.012 C 
ATOM     10  C   LIG    1       29.224 -12.535   4.258  0.00  0.00    +0.012 C 
ATOM     11  C   LIG    1       24.787 -16.203   3.379  0.00  0.00    +0.007 C 
ATOM     12  C   LIG    1       27.767 -13.709   2.555  0.00  0.00    +0.052 C 
ENDROOT
BRANCH   1  13
ATOM     13  O   LIG    1       25.375 -13.514   1.966  0.00  0.00    -0.461 OA
BRANCH  13  14
ATOM     14  C   LIG    1       25.653 -12.194   2.182  0.00  0.00    +0.310 C 
ATOM     15  O   LIG    1       26.669 -11.628   1.820  0.00  0.00    -0.251 OA
BRANCH  14  16
ATOM     16  C   LIG    1       24.492 -11.473   2.863  0.00  0.00    +0.094 C 
ATOM     17  C   LIG    1       23.182 -12.117   2.412  0.00  0.00    +0.019 C 
BRANCH  16  19
ATOM     18  C   LIG    1       23.220 -11.447   5.078  0.00  0.00    +0.004 C 
ATOM     19  C   LIG    1       24.582 -11.448   4.394  0.00  0.00    +0.011 C 
ENDBRANCH  16  19
ENDBRANCH  14  16
ENDBRANCH  13  14
ENDBRANCH   1  13
BRANCH  11  20
ATOM     20  C   LIG    1       24.969 -17.556   4.152  0.00  0.00    +0.008 C 
BRANCH  20  21
ATOM     21  C   LIG    1       25.555 -18.708   3.303  0.00  0.00    +0.045 C 
BRANCH  21  22
ATOM     22  C   LIG    1       25.613 -20.060   4.036  0.00  0.00    +0.179 C 
ATOM     23  O   LIG    1       26.607 -19.944   5.077  0.00  0.00    -0.461 OA
ATOM     24  C   LIG    1       26.515 -20.511   6.298  0.00  0.00    +0.310 C 
ATOM     25  O   LIG    1       27.472 -20.518   7.062  0.00  0.00    -0.251 OA
ATOM     26  C   LIG    1       25.210 -21.146   6.651  0.00  0.00    +0.152 C 
ATOM     27  C   LIG    1       24.080 -20.371   6.015  0.00  0.00    +0.129 C 
ATOM     28  C   LIG    1       24.217 -20.476   4.511  0.00  0.00    +0.076 C 
BRANCH  27  29
ATOM     29  O   LIG    1       22.836 -20.933   6.421  0.00  0.00    -0.391 OA
ATOM     30  H   LIG    1       22.129 -20.506   5.907  0.00  0.00    +0.210 HD
ENDBRANCH  27  29
ENDBRANCH  21  22
ENDBRANCH  20  21
ENDBRANCH  11  20
TORSDOF 8
ENDMDL
