MODEL 1
REMARK VINA RESULT:      14.0      0.000      0.000
REMARK  Name = *****
REMARK                            x       y       z     vdW  Elec       q    Type
REMARK                         _______ _______ _______ _____ _____    ______ ____
ROOT
ATOM      1  C   LIG    1       27.330 -19.649   5.246  0.00  0.00    +0.242 C 
ATOM      2  C   LIG    1       27.194 -18.702   3.966  0.00  0.00    +0.199 C 
ATOM      3  N   LIG    1       27.666 -17.592   4.791  0.00  0.00    -0.244 N 
ATOM      4  C   LIG    1       27.756 -16.298   4.381  0.00  0.00    +0.123 C 
ATOM      5  C   LIG    1       27.052 -15.891   3.286  0.00  0.00    -0.021 C 
ATOM      6  C   LIG    1       26.139 -16.802   2.470  0.00  0.00    +0.104 C 
ATOM      7  S   LIG    1       25.539 -18.274   3.371  0.00  0.00    -0.129 S 
ATOM      8  C   LIG    1       28.082 -18.355   5.819  0.00  0.00    +0.275 C 
ATOM      9  O   LIG    1       28.782 -18.057   6.765  0.00  0.00    -0.270 OA
ENDROOT
BRANCH   1  10
ATOM     10  N   LIG    1       26.045 -20.071   5.920  0.00  0.00    -0.276 N 
ATOM     11  H   LIG    1       25.906 -19.804   6.885  0.00  0.00    +0.152 HD
ATOM     12  C   LIG    1       25.048 -20.841   5.322  0.00  0.00    +0.239 C 
ATOM     13  O   LIG    1       25.207 -21.278   4.181  0.00  0.00    -0.274 OA
BRANCH  12  14
ATOM     14  C   LIG    1       23.766 -21.084   6.237  0.00  0.00    +0.200 C 
ATOM     15  S   LIG    1       22.208 -21.269   5.286  0.00  0.00    -0.093 S 
ATOM     16  C   LIG    1       22.406 -19.530   5.453  0.00  0.00    +0.063 C 
ATOM     17  C   LIG    1       22.103 -18.499   4.628  0.00  0.00    +0.140 C 
ATOM     18  S   LIG    1       23.098 -19.595   7.061  0.00  0.00    -0.093 S 
BRANCH  17  19
ATOM     19  C   LIG    1       21.488 -18.739   3.294  0.00  0.00    +0.250 C 
ATOM     20  O   LIG    1       22.202 -18.969   2.318  0.00  0.00    -0.270 OA
ATOM     21  N   LIG    1       20.143 -18.660   3.133  0.00  0.00    -0.325 N 
ATOM     22  H   LIG    1       19.754 -18.823   2.213  0.00  0.00    +0.145 HD
ATOM     23  H   LIG    1       19.499 -18.494   3.897  0.00  0.00    +0.145 HD
ENDBRANCH  17  19
BRANCH  17  24
ATOM     24  C   LIG    1       22.446 -17.110   5.049  0.00  0.00    +0.344 C 
ATOM     25  O   LIG    1       23.068 -16.304   4.375  0.00  0.00    -0.245 OA
BRANCH  24  26
ATOM     26  O   LIG    1       22.026 -16.779   6.296  0.00  0.00    -0.477 OA
ATOM     27  H   LIG    1       22.335 -15.898   6.619  0.00  0.00    +0.295 HD
ENDBRANCH  24  26
ENDBRANCH  17  24
ENDBRANCH  12  14
ENDBRANCH   1  10
BRANCH   1  29
ATOM     28  C   LIG    1       29.115 -21.046   6.271  0.00  0.00    +0.197 C 
ATOM     29  O   LIG    1       28.320 -20.713   5.156  0.00  0.00    -0.349 OA
ENDBRANCH   1  29
BRANCH   4  30
ATOM     30  C   LIG    1       28.583 -15.300   5.180  0.00  0.00    +0.351 C 
ATOM     31  O   LIG    1       29.324 -14.474   4.666  0.00  0.00    -0.244 OA
BRANCH  30  32
ATOM     32  O   LIG    1       28.461 -15.314   6.518  0.00  0.00    -0.476 OA
ATOM     33  H   LIG    1       28.270 -16.171   6.959  0.00  0.00    +0.295 HD
ENDBRANCH  30  32
ENDBRANCH   4  30
BRANCH   5  34
ATOM     34  C   LIG    1       27.051 -14.468   2.730  0.00  0.00    +0.111 C 
BRANCH  34  35
ATOM     35  S   LIG    1       26.562 -13.309   4.043  0.00  0.00    -0.080 S 
BRANCH  35  36
ATOM     36  C   LIG    1       25.277 -12.485   3.240  0.00  0.00    +0.209 A 
ATOM     37  N   LIG    1       24.145 -12.051   3.864  0.00  0.00    -0.223 N 
ATOM     38  C   LIG    1       23.775 -12.140   5.248  0.00  0.00    +0.177 C 
ATOM     39  N   LIG    1       23.344 -11.448   2.968  0.00  0.00    -0.043 NA
ATOM     40  N   LIG    1       23.995 -11.526   1.813  0.00  0.00    -0.022 NA
ATOM     41  N   LIG    1       25.199 -12.173   1.967  0.00  0.00    -0.102 NA
ENDBRANCH  35  36
ENDBRANCH  34  35
ENDBRANCH   5  34
TORSDOF 11
ENDMDL
MODEL 2
REMARK VINA RESULT:      14.8      2.503      4.975
REMARK  Name = *****
REMARK                            x       y       z     vdW  Elec       q    Type
REMARK                         _______ _______ _______ _____ _____    ______ ____
ROOT
ATOM      1  C   LIG    1       23.305 -16.337   4.654  0.00  0.00    +0.242 C 
ATOM      2  C   LIG    1       24.815 -15.817   4.672  0.00  0.00    +0.199 C 
ATOM      3  N   LIG    1       24.453 -14.862   3.628  0.00  0.00    -0.244 N 
ATOM      4  C   LIG    1       25.322 -14.024   3.001  0.00  0.00    +0.123 C 
ATOM      5  C   LIG    1       26.660 -14.290   3.044  0.00  0.00    -0.021 C 
ATOM      6  C   LIG    1       27.269 -15.495   3.756  0.00  0.00    +0.104 C 
ATOM      7  S   LIG    1       26.114 -16.888   4.005  0.00  0.00    -0.129 S 
ATOM      8  C   LIG    1       23.122 -15.029   3.747  0.00  0.00    +0.275 C 
ATOM      9  O   LIG    1       22.219 -14.356   3.297  0.00  0.00    -0.270 OA
ENDROOT
BRANCH   1  10
ATOM     10  N   LIG    1       23.055 -17.681   4.010  0.00  0.00    -0.276 N 
ATOM     11  H   LIG    1       23.770 -18.055   3.401  0.00  0.00    +0.152 HD
ATOM     12  C   LIG    1       21.889 -18.432   4.159  0.00  0.00    +0.239 C 
ATOM     13  O   LIG    1       20.944 -17.982   4.808  0.00  0.00    -0.274 OA
BRANCH  12  14
ATOM     14  C   LIG    1       21.918 -19.845   3.423  0.00  0.00    +0.200 C 
ATOM     15  S   LIG    1       22.239 -21.255   4.552  0.00  0.00    -0.093 S 
ATOM     16  C   LIG    1       23.841 -20.647   4.158  0.00  0.00    +0.063 C 
ATOM     17  C   LIG    1       24.982 -20.564   4.881  0.00  0.00    +0.140 C 
ATOM     18  S   LIG    1       23.454 -20.219   2.503  0.00  0.00    -0.093 S 
BRANCH  17  19
ATOM     19  C   LIG    1       25.032 -21.034   6.293  0.00  0.00    +0.250 C 
ATOM     20  O   LIG    1       24.051 -20.897   7.024  0.00  0.00    -0.270 OA
ATOM     21  N   LIG    1       26.170 -21.571   6.799  0.00  0.00    -0.325 N 
ATOM     22  H   LIG    1       26.176 -21.877   7.765  0.00  0.00    +0.145 HD
ATOM     23  H   LIG    1       27.005 -21.729   6.248  0.00  0.00    +0.145 HD
ENDBRANCH  17  19
BRANCH  17  24
ATOM     24  C   LIG    1       26.188 -19.941   4.263  0.00  0.00    +0.344 C 
ATOM     25  O   LIG    1       26.246 -19.496   3.127  0.00  0.00    -0.245 OA
BRANCH  24  26
ATOM     26  O   LIG    1       27.282 -19.913   5.064  0.00  0.00    -0.477 OA
ATOM     27  H   LIG    1       27.323 -20.634   5.737  0.00  0.00    +0.295 HD
ENDBRANCH  24  26
ENDBRANCH  17  24
ENDBRANCH  12  14
ENDBRANCH   1  10
BRANCH   1  29
ATOM     28  C   LIG    1       21.598 -15.074   5.951  0.00  0.00    +0.197 C 
ATOM     29  O   LIG    1       22.537 -16.122   5.873  0.00  0.00    -0.349 OA
ENDBRANCH   1  29
BRANCH   4  30
ATOM     30  C   LIG    1       24.797 -12.839   2.201  0.00  0.00    +0.351 C 
ATOM     31  O   LIG    1       25.491 -11.886   1.875  0.00  0.00    -0.244 OA
BRANCH  30  32
ATOM     32  O   LIG    1       23.512 -12.866   1.812  0.00  0.00    -0.476 OA
ATOM     33  H   LIG    1       22.911 -13.519   2.233  0.00  0.00    +0.295 HD
ENDBRANCH  30  32
ENDBRANCH   4  30
BRANCH   5  34
ATOM     34  C   LIG    1       27.738 -13.442   2.372  0.00  0.00    +0.111 C 
BRANCH  34  35
ATOM     35  S   LIG    1       28.534 -12.382   3.617  0.00  0.00    -0.080 S 
BRANCH  35  36
ATOM     36  C   LIG    1       27.792 -13.003   5.045  0.00  0.00    +0.209 A 
ATOM     37  N   LIG    1       26.541 -12.659   5.461  0.00  0.00    -0.223 N 
ATOM     38  C   LIG    1       25.584 -11.780   4.851  0.00  0.00    +0.177 C 
ATOM     39  N   LIG    1       26.253 -13.313   6.602  0.00  0.00    -0.043 NA
ATOM     40  N   LIG    1       27.333 -14.040   6.865  0.00  0.00    -0.022 NA
ATOM     41  N   LIG    1       28.301 -13.854   5.905  0.00  0.00    -0.102 NA
ENDBRANCH  35  36
ENDBRANCH  34  35
ENDBRANCH   5  34
TORSDOF 11
ENDMDL
MODEL 3
REMARK VINA RESULT:      15.3      2.526      7.847
REMARK  Name = *****
REMARK                            x       y       z     vdW  Elec       q    Type
REMARK                         _______ _______ _______ _____ _____    ______ ____
ROOT
ATOM      1  C   LIG    1       23.824 -14.657   3.900  0.00  0.00    +0.242 C 
ATOM      2  C   LIG    1       24.249 -16.012   3.169  0.00  0.00    +0.199 C 
ATOM      3  N   LIG    1       23.277 -16.715   4.003  0.00  0.00    -0.244 N 
ATOM      4  C   LIG    1       23.090 -18.063   4.016  0.00  0.00    +0.123 C 
ATOM      5  C   LIG    1       24.064 -18.881   3.523  0.00  0.00    -0.021 C 
ATOM      6  C   LIG    1       25.388 -18.383   2.950  0.00  0.00    +0.104 C 
ATOM      7  S   LIG    1       25.879 -16.718   3.519  0.00  0.00    -0.129 S 
ATOM      8  C   LIG    1       22.660 -15.607   4.456  0.00  0.00    +0.275 C 
ATOM      9  O   LIG    1       21.603 -15.500   5.042  0.00  0.00    -0.270 OA
ENDROOT
BRANCH   1  10
ATOM     10  N   LIG    1       24.804 -14.087   4.899  0.00  0.00    -0.276 N 
ATOM     11  H   LIG    1       25.522 -14.699   5.263  0.00  0.00    +0.152 HD
ATOM     12  C   LIG    1       24.770 -12.783   5.394  0.00  0.00    +0.239 C 
ATOM     13  O   LIG    1       23.860 -12.021   5.063  0.00  0.00    -0.274 OA
BRANCH  12  14
ATOM     14  C   LIG    1       25.965 -12.424   6.386  0.00  0.00    +0.200 C 
ATOM     15  S   LIG    1       27.392 -11.621   5.558  0.00  0.00    -0.093 S 
ATOM     16  C   LIG    1       27.668 -13.341   5.320  0.00  0.00    +0.063 C 
ATOM     17  C   LIG    1       28.213 -14.039   4.295  0.00  0.00    +0.140 C 
ATOM     18  S   LIG    1       27.026 -13.829   6.875  0.00  0.00    -0.093 S 
BRANCH  17  19
ATOM     19  C   LIG    1       28.707 -13.347   3.073  0.00  0.00    +0.250 C 
ATOM     20  O   LIG    1       28.697 -13.930   1.988  0.00  0.00    -0.270 OA
ATOM     21  N   LIG    1       29.215 -12.092   3.151  0.00  0.00    -0.325 N 
ATOM     22  H   LIG    1       29.549 -11.649   2.304  0.00  0.00    +0.145 HD
ATOM     23  H   LIG    1       29.235 -11.551   4.007  0.00  0.00    +0.145 HD
ENDBRANCH  17  19
BRANCH  17  24
ATOM     24  C   LIG    1       28.264 -15.528   4.378  0.00  0.00    +0.344 C 
ATOM     25  O   LIG    1       28.852 -16.164   5.238  0.00  0.00    -0.245 OA
BRANCH  24  26
ATOM     26  O   LIG    1       27.606 -16.171   3.382  0.00  0.00    -0.477 OA
ATOM     27  H   LIG    1       27.512 -15.655   2.545  0.00  0.00    +0.295 HD
ENDBRANCH  24  26
ENDBRANCH  17  24
ENDBRANCH  12  14
ENDBRANCH   1  10
BRANCH   1  29
ATOM     28  C   LIG    1       23.912 -13.015   2.034  0.00  0.00    +0.197 C 
ATOM     29  O   LIG    1       23.189 -13.648   3.064  0.00  0.00    -0.349 OA
ENDBRANCH   1  29
BRANCH   4  30
ATOM     30  C   LIG    1       21.831 -18.653   4.639  0.00  0.00    +0.351 C 
ATOM     31  O   LIG    1       21.812 -19.193   5.736  0.00  0.00    -0.244 OA
BRANCH  30  32
ATOM     32  O   LIG    1       20.682 -18.542   3.953  0.00  0.00    -0.476 OA
ATOM     33  H   LIG    1       20.657 -18.872   3.028  0.00  0.00    +0.295 HD
ENDBRANCH  30  32
ENDBRANCH   4  30
BRANCH   5  34
ATOM     34  C   LIG    1       23.988 -20.406   3.492  0.00  0.00    +0.111 C 
BRANCH  34  35
ATOM     35  S   LIG    1       25.666 -21.090   3.335  0.00  0.00    -0.080 S 
BRANCH  35  36
ATOM     36  C   LIG    1       26.314 -20.625   4.864  0.00  0.00    +0.209 A 
ATOM     37  N   LIG    1       25.706 -20.880   6.056  0.00  0.00    -0.223 N 
ATOM     38  C   LIG    1       24.477 -21.572   6.325  0.00  0.00    +0.177 C 
ATOM     39  N   LIG    1       26.463 -20.395   7.058  0.00  0.00    -0.043 NA
ATOM     40  N   LIG    1       27.516 -19.849   6.462  0.00  0.00    -0.022 NA
ATOM     41  N   LIG    1       27.435 -19.982   5.094  0.00  0.00    -0.102 NA
ENDBRANCH  35  36
ENDBRANCH  34  35
ENDBRANCH   5  34
TORSDOF 11
ENDMDL
