MODEL 1
REMARK VINA RESULT:       3.1      0.000      0.000
REMARK  Name = *****
REMARK                            x       y       z     vdW  Elec       q    Type
REMARK                         _______ _______ _______ _____ _____    ______ ____
ROOT
ATOM      1  N   LIG    1       22.519 -21.100   4.511  0.00  0.00    -0.302 NA
ATOM      2  C   LIG    1       23.527 -20.856   5.549  0.00  0.00    +0.087 C 
ATOM      3  C   LIG    1       24.934 -21.316   5.197  0.00  0.00    +0.047 C 
ATOM      4  C   LIG    1       25.401 -20.668   3.900  0.00  0.00    +0.122 C 
ATOM      5  C   LIG    1       24.431 -21.157   2.819  0.00  0.00    +0.047 C 
ATOM      6  C   LIG    1       22.970 -20.812   3.135  0.00  0.00    +0.087 C 
ENDROOT
BRANCH   1   7
ATOM      7  C   LIG    1       21.261 -20.359   4.791  0.00  0.00    +0.085 C 
BRANCH   7   8
ATOM      8  C   LIG    1       20.629 -19.671   3.566  0.00  0.00    +0.023 C 
BRANCH   8   9
ATOM      9  C   LIG    1       20.894 -18.165   3.545  0.00  0.00    +0.081 C 
BRANCH   9  10
ATOM     10  C   LIG    1       21.809 -17.760   4.712  0.00  0.00    +0.163 C 
ATOM     11  O   LIG    1       22.109 -18.552   5.584  0.00  0.00    -0.292 OA
BRANCH  10  15
ATOM     12  C   LIG    1       23.413 -13.707   4.819  0.00  0.00    -0.042 A 
ATOM     13  C   LIG    1       22.748 -14.279   5.911  0.00  0.00    +0.005 A 
ATOM     14  C   LIG    1       22.237 -15.575   5.871  0.00  0.00    +0.012 A 
ATOM     15  C   LIG    1       22.361 -16.362   4.741  0.00  0.00    +0.017 A 
ATOM     16  C   LIG    1       23.016 -15.818   3.619  0.00  0.00    +0.012 A 
ATOM     17  C   LIG    1       23.537 -14.505   3.665  0.00  0.00    +0.005 A 
BRANCH  12  19
ATOM     18  C   LIG    1       25.500 -12.248   5.155  0.00  0.00    +0.015 C 
ATOM     19  C   LIG    1       23.971 -12.272   4.901  0.00  0.00    -0.013 C 
ATOM     20  C   LIG    1       23.731 -11.511   3.583  0.00  0.00    +0.015 C 
ATOM     21  C   LIG    1       23.292 -11.487   6.042  0.00  0.00    +0.015 C 
ENDBRANCH  12  19
ENDBRANCH  10  15
ENDBRANCH   9  10
ENDBRANCH   8   9
ENDBRANCH   7   8
ENDBRANCH   1   7
BRANCH   4  22
ATOM     22  O   LIG    1       25.455 -19.220   3.934  0.00  0.00    -0.364 OA
BRANCH  22  23
ATOM     23  C   LIG    1       26.777 -18.650   3.777  0.00  0.00    +0.179 C 
BRANCH  23  24
ATOM     24  C   LIG    1       27.770 -19.176   4.824  0.00  0.00    -0.015 A 
ATOM     25  C   LIG    1       28.716 -18.290   5.376  0.00  0.00    +0.006 A 
ATOM     26  C   LIG    1       29.474 -18.643   6.497  0.00  0.00    +0.000 A 
ATOM     27  C   LIG    1       29.335 -19.907   7.062  0.00  0.00    +0.000 A 
ATOM     28  C   LIG    1       28.476 -20.832   6.474  0.00  0.00    +0.000 A 
ATOM     29  C   LIG    1       27.705 -20.475   5.359  0.00  0.00    +0.006 A 
ENDBRANCH  23  24
BRANCH  23  30
ATOM     30  C   LIG    1       26.783 -17.127   3.640  0.00  0.00    -0.015 A 
ATOM     31  C   LIG    1       27.603 -16.348   4.477  0.00  0.00    +0.006 A 
ATOM     32  C   LIG    1       27.681 -14.963   4.312  0.00  0.00    +0.000 A 
ATOM     33  C   LIG    1       26.931 -14.338   3.318  0.00  0.00    +0.000 A 
ATOM     34  C   LIG    1       26.079 -15.090   2.512  0.00  0.00    +0.000 A 
ATOM     35  C   LIG    1       25.995 -16.473   2.680  0.00  0.00    +0.006 A 
ENDBRANCH  23  30
ENDBRANCH  22  23
ENDBRANCH   4  22
TORSDOF 10
ENDMDL
