MODEL 1
REMARK VINA RESULT:      -3.8      0.000      0.000
REMARK  Name = *****
REMARK                            x       y       z     vdW  Elec       q    Type
REMARK                         _______ _______ _______ _____ _____    ______ ____
ROOT
ATOM      1  C   LIG    1       25.755 -16.891   3.413  0.00  0.00    +0.182 A 
ATOM      2  N   LIG    1       24.600 -17.322   4.030  0.00  0.00    -0.207 NA
ATOM      3  C   LIG    1       24.645 -18.639   3.932  0.00  0.00    +0.157 A 
ATOM      4  N   LIG    1       25.795 -18.965   3.265  0.00  0.00    -0.258 N 
ATOM      5  H   LIG    1       26.144 -19.881   3.012  0.00  0.00    +0.191 HD
ATOM      6  N   LIG    1       26.512 -17.886   2.931  0.00  0.00    -0.152 NA
ENDROOT
BRANCH   1  11
ATOM      7  C   LIG    1       25.586 -13.223   2.731  0.00  0.00    +0.141 A 
ATOM      8  N   LIG    1       26.809 -12.775   3.109  0.00  0.00    -0.245 NA
ATOM      9  C   LIG    1       27.676 -13.693   3.584  0.00  0.00    +0.113 A 
ATOM     10  C   LIG    1       27.380 -15.037   3.699  0.00  0.00    +0.031 A 
ATOM     11  C   LIG    1       26.113 -15.483   3.306  0.00  0.00    +0.025 A 
ATOM     12  C   LIG    1       25.197 -14.552   2.811  0.00  0.00    +0.050 A 
BRANCH   7  14
ATOM     13  N   LIG    1       23.922 -11.447   1.823  0.00  0.00    -0.189 NA
ATOM     14  C   LIG    1       24.681 -12.226   2.227  0.00  0.00    +0.119 C 
ENDBRANCH   7  14
ENDBRANCH   1  11
BRANCH   3  15
ATOM     15  C   LIG    1       23.665 -19.605   4.434  0.00  0.00    +0.021 A 
ATOM     16  C   LIG    1       24.004 -20.607   5.348  0.00  0.00    +0.031 A 
ATOM     17  C   LIG    1       23.018 -21.484   5.773  0.00  0.00    +0.111 A 
ATOM     18  N   LIG    1       21.739 -21.432   5.357  0.00  0.00    -0.263 NA
ATOM     19  C   LIG    1       21.426 -20.458   4.477  0.00  0.00    +0.111 A 
ATOM     20  C   LIG    1       22.340 -19.535   3.995  0.00  0.00    +0.031 A 
ENDBRANCH   3  15
TORSDOF 3
ENDMDL
MODEL 2
REMARK VINA RESULT:      -3.7      1.446      7.005
REMARK  Name = *****
REMARK                            x       y       z     vdW  Elec       q    Type
REMARK                         _______ _______ _______ _____ _____    ______ ____
ROOT
ATOM      1  C   LIG    1       25.515 -17.561   3.737  0.00  0.00    +0.182 A 
ATOM      2  N   LIG    1       24.624 -16.509   3.764  0.00  0.00    -0.207 NA
ATOM      3  C   LIG    1       25.325 -15.470   3.345  0.00  0.00    +0.157 A 
ATOM      4  N   LIG    1       26.597 -15.906   3.090  0.00  0.00    -0.258 N 
ATOM      5  H   LIG    1       27.395 -15.377   2.760  0.00  0.00    +0.191 HD
ATOM      6  N   LIG    1       26.742 -17.216   3.324  0.00  0.00    -0.152 NA
ENDROOT
BRANCH   1  11
ATOM      7  C   LIG    1       23.507 -20.606   4.535  0.00  0.00    +0.141 A 
ATOM      8  N   LIG    1       24.448 -21.533   4.843  0.00  0.00    -0.245 NA
ATOM      9  C   LIG    1       25.737 -21.139   4.784  0.00  0.00    +0.113 A 
ATOM     10  C   LIG    1       26.130 -19.861   4.433  0.00  0.00    +0.031 A 
ATOM     11  C   LIG    1       25.147 -18.918   4.117  0.00  0.00    +0.025 A 
ATOM     12  C   LIG    1       23.805 -19.302   4.170  0.00  0.00    +0.050 A 
BRANCH   7  14
ATOM     13  N   LIG    1       21.053 -21.446   4.679  0.00  0.00    -0.189 NA
ATOM     14  C   LIG    1       22.142 -21.052   4.606  0.00  0.00    +0.119 C 
ENDBRANCH   7  14
ENDBRANCH   1  11
BRANCH   3  15
ATOM     15  C   LIG    1       24.860 -14.092   3.172  0.00  0.00    +0.021 A 
ATOM     16  C   LIG    1       25.018 -13.397   1.970  0.00  0.00    +0.031 A 
ATOM     17  C   LIG    1       24.552 -12.093   1.886  0.00  0.00    +0.111 A 
ATOM     18  N   LIG    1       23.951 -11.447   2.902  0.00  0.00    -0.263 NA
ATOM     19  C   LIG    1       23.803 -12.132   4.055  0.00  0.00    +0.111 A 
ATOM     20  C   LIG    1       24.233 -13.436   4.235  0.00  0.00    +0.031 A 
ENDBRANCH   3  15
TORSDOF 3
ENDMDL
MODEL 3
REMARK VINA RESULT:      -3.7      1.588      2.903
REMARK  Name = *****
REMARK                            x       y       z     vdW  Elec       q    Type
REMARK                         _______ _______ _______ _____ _____    ______ ____
ROOT
ATOM      1  C   LIG    1       24.000 -15.298   3.916  0.00  0.00    +0.182 A 
ATOM      2  N   LIG    1       24.380 -16.613   3.753  0.00  0.00    -0.207 NA
ATOM      3  C   LIG    1       23.390 -17.312   4.280  0.00  0.00    +0.157 A 
ATOM      4  N   LIG    1       22.460 -16.422   4.747  0.00  0.00    -0.258 N 
ATOM      5  H   LIG    1       21.580 -16.609   5.212  0.00  0.00    +0.191 HD
ATOM      6  N   LIG    1       22.817 -15.152   4.527  0.00  0.00    -0.152 NA
ENDROOT
BRANCH   1  11
ATOM      7  C   LIG    1       26.917 -13.068   3.236  0.00  0.00    +0.141 A 
ATOM      8  N   LIG    1       26.367 -12.026   2.564  0.00  0.00    -0.245 NA
ATOM      9  C   LIG    1       25.038 -12.073   2.344  0.00  0.00    +0.113 A 
ATOM     10  C   LIG    1       24.229 -13.112   2.765  0.00  0.00    +0.031 A 
ATOM     11  C   LIG    1       24.812 -14.179   3.457  0.00  0.00    +0.025 A 
ATOM     12  C   LIG    1       26.188 -14.154   3.696  0.00  0.00    +0.050 A 
BRANCH   7  14
ATOM     13  N   LIG    1       29.474 -12.916   3.674  0.00  0.00    -0.189 NA
ATOM     14  C   LIG    1       28.336 -12.992   3.458  0.00  0.00    +0.119 C 
ENDBRANCH   7  14
ENDBRANCH   1  11
BRANCH   3  15
ATOM     15  C   LIG    1       23.274 -18.769   4.366  0.00  0.00    +0.021 A 
ATOM     16  C   LIG    1       22.272 -19.395   5.114  0.00  0.00    +0.031 A 
ATOM     17  C   LIG    1       22.230 -20.781   5.146  0.00  0.00    +0.111 A 
ATOM     18  N   LIG    1       23.104 -21.571   4.496  0.00  0.00    -0.263 NA
ATOM     19  C   LIG    1       24.063 -20.953   3.776  0.00  0.00    +0.111 A 
ATOM     20  C   LIG    1       24.186 -19.576   3.681  0.00  0.00    +0.031 A 
ENDBRANCH   3  15
TORSDOF 3
ENDMDL
MODEL 4
REMARK VINA RESULT:      -3.6      0.809      2.299
REMARK  Name = *****
REMARK                            x       y       z     vdW  Elec       q    Type
REMARK                         _______ _______ _______ _____ _____    ______ ____
ROOT
ATOM      1  C   LIG    1       25.622 -16.709   3.402  0.00  0.00    +0.182 A 
ATOM      2  N   LIG    1       24.508 -17.222   4.032  0.00  0.00    -0.207 NA
ATOM      3  C   LIG    1       24.665 -18.532   3.967  0.00  0.00    +0.157 A 
ATOM      4  N   LIG    1       25.838 -18.775   3.306  0.00  0.00    -0.258 N 
ATOM      5  H   LIG    1       26.264 -19.665   3.075  0.00  0.00    +0.191 HD
ATOM      6  N   LIG    1       26.461 -17.648   2.943  0.00  0.00    -0.152 NA
ENDROOT
BRANCH   1  11
ATOM      7  C   LIG    1       27.259 -13.353   3.478  0.00  0.00    +0.141 A 
ATOM      8  N   LIG    1       26.310 -12.528   2.969  0.00  0.00    -0.245 NA
ATOM      9  C   LIG    1       25.139 -13.092   2.608  0.00  0.00    +0.113 A 
ATOM     10  C   LIG    1       24.870 -14.441   2.732  0.00  0.00    +0.031 A 
ATOM     11  C   LIG    1       25.859 -15.279   3.257  0.00  0.00    +0.025 A 
ATOM     12  C   LIG    1       27.081 -14.720   3.638  0.00  0.00    +0.050 A 
BRANCH   7  14
ATOM     13  N   LIG    1       29.475 -12.192   4.177  0.00  0.00    -0.189 NA
ATOM     14  C   LIG    1       28.496 -12.728   3.856  0.00  0.00    +0.119 C 
ENDBRANCH   7  14
ENDBRANCH   1  11
BRANCH   3  15
ATOM     15  C   LIG    1       23.770 -19.564   4.496  0.00  0.00    +0.021 A 
ATOM     16  C   LIG    1       22.393 -19.554   4.253  0.00  0.00    +0.031 A 
ATOM     17  C   LIG    1       21.613 -20.567   4.791  0.00  0.00    +0.111 A 
ATOM     18  N   LIG    1       22.103 -21.572   5.540  0.00  0.00    -0.263 NA
ATOM     19  C   LIG    1       23.434 -21.570   5.763  0.00  0.00    +0.111 A 
ATOM     20  C   LIG    1       24.295 -20.604   5.268  0.00  0.00    +0.031 A 
ENDBRANCH   3  15
TORSDOF 3
ENDMDL
MODEL 5
REMARK VINA RESULT:      -1.9      1.347      7.003
REMARK  Name = *****
REMARK                            x       y       z     vdW  Elec       q    Type
REMARK                         _______ _______ _______ _____ _____    ______ ____
ROOT
ATOM      1  C   LIG    1       25.254 -18.108   3.812  0.00  0.00    +0.182 A 
ATOM      2  N   LIG    1       25.112 -16.742   3.702  0.00  0.00    -0.207 NA
ATOM      3  C   LIG    1       26.341 -16.296   3.507  0.00  0.00    +0.157 A 
ATOM      4  N   LIG    1       27.178 -17.379   3.513  0.00  0.00    -0.258 N 
ATOM      5  H   LIG    1       28.184 -17.404   3.396  0.00  0.00    +0.191 HD
ATOM      6  N   LIG    1       26.521 -18.529   3.698  0.00  0.00    -0.152 NA
ENDROOT
BRANCH   1  11
ATOM      7  C   LIG    1       21.788 -19.495   3.915  0.00  0.00    +0.141 A 
ATOM      8  N   LIG    1       21.961 -20.738   4.430  0.00  0.00    -0.245 NA
ATOM      9  C   LIG    1       23.223 -21.102   4.739  0.00  0.00    +0.113 A 
ATOM     10  C   LIG    1       24.321 -20.283   4.558  0.00  0.00    +0.031 A 
ATOM     11  C   LIG    1       24.125 -19.005   4.025  0.00  0.00    +0.025 A 
ATOM     12  C   LIG    1       22.828 -18.604   3.696  0.00  0.00    +0.050 A 
BRANCH   7  14
ATOM     13  N   LIG    1       19.350 -18.843   3.300  0.00  0.00    -0.189 NA
ATOM     14  C   LIG    1       20.434 -19.132   3.596  0.00  0.00    +0.119 C 
ENDBRANCH   7  14
ENDBRANCH   1  11
BRANCH   3  15
ATOM     15  C   LIG    1       26.766 -14.908   3.316  0.00  0.00    +0.021 A 
ATOM     16  C   LIG    1       26.011 -13.991   2.577  0.00  0.00    +0.031 A 
ATOM     17  C   LIG    1       26.483 -12.695   2.439  0.00  0.00    +0.111 A 
ATOM     18  N   LIG    1       27.636 -12.257   2.979  0.00  0.00    -0.263 NA
ATOM     19  C   LIG    1       28.351 -13.152   3.692  0.00  0.00    +0.111 A 
ATOM     20  C   LIG    1       27.963 -14.467   3.886  0.00  0.00    +0.031 A 
ENDBRANCH   3  15
TORSDOF 3
ENDMDL
MODEL 6
REMARK VINA RESULT:      -1.2      2.083      7.457
REMARK  Name = *****
REMARK                            x       y       z     vdW  Elec       q    Type
REMARK                         _______ _______ _______ _____ _____    ______ ____
ROOT
ATOM      1  C   LIG    1       23.954 -15.633   4.109  0.00  0.00    +0.182 A 
ATOM      2  N   LIG    1       25.329 -15.537   4.110  0.00  0.00    -0.207 NA
ATOM      3  C   LIG    1       25.570 -14.239   4.144  0.00  0.00    +0.157 A 
ATOM      4  N   LIG    1       24.363 -13.594   4.153  0.00  0.00    -0.258 N 
ATOM      5  H   LIG    1       24.174 -12.600   4.173  0.00  0.00    +0.191 HD
ATOM      6  N   LIG    1       23.332 -14.447   4.136  0.00  0.00    -0.152 NA
ENDROOT
BRANCH   1  11
ATOM      7  C   LIG    1       23.247 -19.300   4.060  0.00  0.00    +0.141 A 
ATOM      8  N   LIG    1       21.892 -19.359   4.054  0.00  0.00    -0.245 NA
ATOM      9  C   LIG    1       21.228 -18.186   4.064  0.00  0.00    +0.113 A 
ATOM     10  C   LIG    1       21.853 -16.954   4.080  0.00  0.00    +0.031 A 
ATOM     11  C   LIG    1       23.252 -16.909   4.087  0.00  0.00    +0.025 A 
ATOM     12  C   LIG    1       23.963 -18.112   4.078  0.00  0.00    +0.050 A 
BRANCH   7  14
ATOM     13  N   LIG    1       24.507 -21.572   4.065  0.00  0.00    -0.189 NA
ATOM     14  C   LIG    1       23.930 -20.565   4.047  0.00  0.00    +0.119 C 
ENDBRANCH   7  14
ENDBRANCH   1  11
BRANCH   3  15
ATOM     15  C   LIG    1       26.875 -13.574   4.169  0.00  0.00    +0.021 A 
ATOM     16  C   LIG    1       27.335 -12.876   5.290  0.00  0.00    +0.031 A 
ATOM     17  C   LIG    1       28.583 -12.272   5.234  0.00  0.00    +0.111 A 
ATOM     18  N   LIG    1       29.389 -12.316   4.157  0.00  0.00    -0.263 NA
ATOM     19  C   LIG    1       28.932 -12.997   3.085  0.00  0.00    +0.111 A 
ATOM     20  C   LIG    1       27.702 -13.633   3.045  0.00  0.00    +0.031 A 
ENDBRANCH   3  15
TORSDOF 3
ENDMDL
MODEL 7
REMARK VINA RESULT:      -1.2      2.080      3.036
REMARK  Name = *****
REMARK                            x       y       z     vdW  Elec       q    Type
REMARK                         _______ _______ _______ _____ _____    ______ ____
ROOT
ATOM      1  C   LIG    1       25.732 -15.410   3.345  0.00  0.00    +0.182 A 
ATOM      2  N   LIG    1       25.094 -16.510   3.876  0.00  0.00    -0.207 NA
ATOM      3  C   LIG    1       25.960 -17.498   3.729  0.00  0.00    +0.157 A 
ATOM      4  N   LIG    1       27.071 -16.985   3.117  0.00  0.00    -0.258 N 
ATOM      5  H   LIG    1       27.924 -17.461   2.849  0.00  0.00    +0.191 HD
ATOM      6  N   LIG    1       26.957 -15.676   2.868  0.00  0.00    -0.152 NA
ENDROOT
BRANCH   1  11
ATOM      7  C   LIG    1       23.819 -12.354   4.316  0.00  0.00    +0.141 A 
ATOM      8  N   LIG    1       23.975 -11.532   3.248  0.00  0.00    -0.245 NA
ATOM      9  C   LIG    1       24.710 -11.999   2.219  0.00  0.00    +0.113 A 
ATOM     10  C   LIG    1       25.297 -13.250   2.204  0.00  0.00    +0.031 A 
ATOM     11  C   LIG    1       25.128 -14.085   3.314  0.00  0.00    +0.025 A 
ATOM     12  C   LIG    1       24.371 -13.624   4.394  0.00  0.00    +0.050 A 
BRANCH   7  14
ATOM     13  N   LIG    1       22.382 -11.449   6.282  0.00  0.00    -0.189 NA
ATOM     14  C   LIG    1       23.031 -11.832   5.399  0.00  0.00    +0.119 C 
ENDBRANCH   7  14
ENDBRANCH   1  11
BRANCH   3  15
ATOM     15  C   LIG    1       25.795 -18.896   4.134  0.00  0.00    +0.021 A 
ATOM     16  C   LIG    1       24.747 -19.692   3.661  0.00  0.00    +0.031 A 
ATOM     17  C   LIG    1       24.659 -21.006   4.094  0.00  0.00    +0.111 A 
ATOM     18  N   LIG    1       25.528 -21.571   4.952  0.00  0.00    -0.263 NA
ATOM     19  C   LIG    1       26.535 -20.792   5.398  0.00  0.00    +0.111 A 
ATOM     20  C   LIG    1       26.708 -19.470   5.023  0.00  0.00    +0.031 A 
ENDBRANCH   3  15
TORSDOF 3
ENDMDL
MODEL 8
REMARK VINA RESULT:      -0.9      1.915      7.367
REMARK  Name = *****
REMARK                            x       y       z     vdW  Elec       q    Type
REMARK                         _______ _______ _______ _____ _____    ______ ____
ROOT
ATOM      1  C   LIG    1       23.852 -17.419   4.087  0.00  0.00    +0.182 A 
ATOM      2  N   LIG    1       24.734 -16.494   3.572  0.00  0.00    -0.207 NA
ATOM      3  C   LIG    1       24.093 -15.341   3.659  0.00  0.00    +0.157 A 
ATOM      4  N   LIG    1       22.863 -15.594   4.203  0.00  0.00    -0.258 N 
ATOM      5  H   LIG    1       22.113 -14.944   4.406  0.00  0.00    +0.191 HD
ATOM      6  N   LIG    1       22.687 -16.890   4.485  0.00  0.00    -0.152 NA
ENDROOT
BRANCH   1  11
ATOM      7  C   LIG    1       25.384 -20.649   5.170  0.00  0.00    +0.141 A 
ATOM      8  N   LIG    1       24.763 -21.569   4.390  0.00  0.00    -0.245 NA
ATOM      9  C   LIG    1       23.846 -21.110   3.515  0.00  0.00    +0.113 A 
ATOM     10  C   LIG    1       23.519 -19.774   3.380  0.00  0.00    +0.031 A 
ATOM     11  C   LIG    1       24.168 -18.838   4.191  0.00  0.00    +0.025 A 
ATOM     12  C   LIG    1       25.122 -19.288   5.107  0.00  0.00    +0.050 A 
BRANCH   7  14
ATOM     13  N   LIG    1       27.163 -21.544   6.838  0.00  0.00    -0.189 NA
ATOM     14  C   LIG    1       26.358 -21.164   6.093  0.00  0.00    +0.119 C 
ENDBRANCH   7  14
ENDBRANCH   1  11
BRANCH   3  15
ATOM     15  C   LIG    1       24.578 -14.019   3.258  0.00  0.00    +0.021 A 
ATOM     16  C   LIG    1       25.913 -13.786   2.915  0.00  0.00    +0.031 A 
ATOM     17  C   LIG    1       26.294 -12.504   2.548  0.00  0.00    +0.111 A 
ATOM     18  N   LIG    1       25.449 -11.457   2.500  0.00  0.00    -0.263 NA
ATOM     19  C   LIG    1       24.163 -11.698   2.832  0.00  0.00    +0.111 A 
ATOM     20  C   LIG    1       23.687 -12.943   3.209  0.00  0.00    +0.031 A 
ENDBRANCH   3  15
TORSDOF 3
ENDMDL
MODEL 9
REMARK VINA RESULT:      -0.9      1.862      7.380
REMARK  Name = *****
REMARK                            x       y       z     vdW  Elec       q    Type
REMARK                         _______ _______ _______ _____ _____    ______ ____
ROOT
ATOM      1  C   LIG    1       24.798 -16.957   3.795  0.00  0.00    +0.182 A 
ATOM      2  N   LIG    1       26.080 -16.452   3.840  0.00  0.00    -0.207 NA
ATOM      3  C   LIG    1       25.916 -15.146   3.962  0.00  0.00    +0.157 A 
ATOM      4  N   LIG    1       24.570 -14.898   3.977  0.00  0.00    -0.258 N 
ATOM      5  H   LIG    1       24.089 -14.010   4.054  0.00  0.00    +0.191 HD
ATOM      6  N   LIG    1       23.846 -16.018   3.878  0.00  0.00    -0.152 NA
ENDROOT
BRANCH   1  11
ATOM      7  C   LIG    1       23.126 -20.284   4.078  0.00  0.00    +0.141 A 
ATOM      8  N   LIG    1       23.975 -21.120   3.429  0.00  0.00    -0.245 NA
ATOM      9  C   LIG    1       25.092 -20.573   2.907  0.00  0.00    +0.113 A 
ATOM     10  C   LIG    1       25.402 -19.230   3.002  0.00  0.00    +0.031 A 
ATOM     11  C   LIG    1       24.515 -18.381   3.674  0.00  0.00    +0.025 A 
ATOM     12  C   LIG    1       23.351 -18.923   4.223  0.00  0.00    +0.050 A 
BRANCH   7  14
ATOM     13  N   LIG    1       20.993 -21.412   5.041  0.00  0.00    -0.189 NA
ATOM     14  C   LIG    1       21.945 -20.893   4.627  0.00  0.00    +0.119 C 
ENDBRANCH   7  14
ENDBRANCH   1  11
BRANCH   3  15
ATOM     15  C   LIG    1       26.959 -14.123   4.066  0.00  0.00    +0.021 A 
ATOM     16  C   LIG    1       27.780 -13.782   2.987  0.00  0.00    +0.031 A 
ATOM     17  C   LIG    1       28.746 -12.803   3.166  0.00  0.00    +0.111 A 
ATOM     18  N   LIG    1       28.945 -12.152   4.327  0.00  0.00    -0.263 NA
ATOM     19  C   LIG    1       28.143 -12.490   5.358  0.00  0.00    +0.111 A 
ATOM     20  C   LIG    1       27.150 -13.452   5.277  0.00  0.00    +0.031 A 
ENDBRANCH   3  15
TORSDOF 3
ENDMDL
