MODEL 1
REMARK VINA RESULT:      11.3      0.000      0.000
REMARK  Name = *****
REMARK                            x       y       z     vdW  Elec       q    Type
REMARK                         _______ _______ _______ _____ _____    ______ ____
ROOT
ATOM      1  C   LIG    1       24.939 -15.564   3.745  0.00  0.00    +0.247 C 
ATOM      2  N   LIG    1       25.395 -14.306   3.329  0.00  0.00    -0.262 N 
ATOM      3  C   LIG    1       24.498 -13.233   3.530  0.00  0.00    +0.164 A 
ATOM      4  C   LIG    1       24.353 -12.647   4.795  0.00  0.00    +0.085 A 
ATOM      5  C   LIG    1       23.287 -11.765   4.983  0.00  0.00    +0.031 A 
ATOM      6  C   LIG    1       22.454 -11.448   3.912  0.00  0.00    +0.022 A 
ATOM      7  C   LIG    1       22.706 -12.038   2.688  0.00  0.00    +0.113 A 
ATOM      8  N   LIG    1       25.173 -12.921   5.905  0.00  0.00    -0.319 N 
ATOM      9  H   LIG    1       24.827 -12.657   6.820  0.00  0.00    +0.169 HD
ATOM     10  C   LIG    1       26.466 -13.382   5.947  0.00  0.00    +0.258 A 
ATOM     11  O   LIG    1       26.998 -13.576   7.037  0.00  0.00    -0.267 OA
ATOM     12  C   LIG    1       27.276 -13.520   4.715  0.00  0.00    +0.063 A 
ATOM     13  C   LIG    1       28.647 -13.227   4.807  0.00  0.00    +0.015 A 
ATOM     14  C   LIG    1       29.473 -13.321   3.685  0.00  0.00    +0.001 A 
ATOM     15  C   LIG    1       28.938 -13.715   2.462  0.00  0.00    +0.002 A 
ATOM     16  C   LIG    1       27.582 -14.024   2.365  0.00  0.00    +0.027 A 
ATOM     17  N   LIG    1       23.700 -12.924   2.475  0.00  0.00    -0.235 NA
ATOM     18  C   LIG    1       26.748 -13.939   3.491  0.00  0.00    +0.064 A 
ATOM     19  O   LIG    1       23.780 -15.785   4.119  0.00  0.00    -0.271 OA
ENDROOT
BRANCH   1  20
ATOM     20  C   LIG    1       25.936 -16.734   3.696  0.00  0.00    +0.184 C 
BRANCH  20  25
ATOM     21  C   LIG    1       24.229 -21.243   4.243  0.00  0.00    +0.105 C 
ATOM     22  N   LIG    1       24.746 -20.062   4.933  0.00  0.00    -0.303 NA
ATOM     23  C   LIG    1       26.129 -19.756   4.516  0.00  0.00    +0.099 C 
ATOM     24  C   LIG    1       26.265 -19.076   3.131  0.00  0.00    +0.100 C 
ATOM     25  N   LIG    1       25.406 -17.889   2.935  0.00  0.00    -0.291 NA
ATOM     26  C   LIG    1       24.020 -18.232   3.319  0.00  0.00    +0.100 C 
ATOM     27  C   LIG    1       23.877 -18.889   4.712  0.00  0.00    +0.099 C 
ENDBRANCH  20  25
ENDBRANCH   1  20
TORSDOF 2
ENDMDL
MODEL 2
REMARK VINA RESULT:      11.4      1.675      4.209
REMARK  Name = *****
REMARK                            x       y       z     vdW  Elec       q    Type
REMARK                         _______ _______ _______ _____ _____    ______ ____
ROOT
ATOM      1  C   LIG    1       25.162 -15.413   3.945  0.00  0.00    +0.247 C 
ATOM      2  N   LIG    1       25.553 -14.246   4.617  0.00  0.00    -0.262 N 
ATOM      3  C   LIG    1       26.790 -13.694   4.216  0.00  0.00    +0.164 A 
ATOM      4  C   LIG    1       26.887 -12.929   3.046  0.00  0.00    +0.085 A 
ATOM      5  C   LIG    1       28.166 -12.619   2.579  0.00  0.00    +0.031 A 
ATOM      6  C   LIG    1       29.285 -13.016   3.308  0.00  0.00    +0.022 A 
ATOM      7  C   LIG    1       29.087 -13.725   4.478  0.00  0.00    +0.113 A 
ATOM      8  N   LIG    1       25.792 -12.492   2.279  0.00  0.00    -0.319 N 
ATOM      9  H   LIG    1       25.975 -12.184   1.331  0.00  0.00    +0.169 HD
ATOM     10  C   LIG    1       24.489 -12.278   2.655  0.00  0.00    +0.258 A 
ATOM     11  O   LIG    1       23.674 -11.910   1.812  0.00  0.00    -0.267 OA
ATOM     12  C   LIG    1       24.074 -12.351   4.075  0.00  0.00    +0.063 A 
ATOM     13  C   LIG    1       23.086 -11.449   4.506  0.00  0.00    +0.015 A 
ATOM     14  C   LIG    1       22.653 -11.448   5.834  0.00  0.00    +0.001 A 
ATOM     15  C   LIG    1       23.197 -12.351   6.742  0.00  0.00    +0.002 A 
ATOM     16  C   LIG    1       24.166 -13.260   6.319  0.00  0.00    +0.027 A 
ATOM     17  N   LIG    1       27.872 -14.077   4.943  0.00  0.00    -0.235 NA
ATOM     18  C   LIG    1       24.600 -13.271   4.984  0.00  0.00    +0.064 A 
ATOM     19  O   LIG    1       25.895 -16.032   3.163  0.00  0.00    -0.271 OA
ENDROOT
BRANCH   1  20
ATOM     20  C   LIG    1       23.754 -15.961   4.231  0.00  0.00    +0.184 C 
BRANCH  20  25
ATOM     21  C   LIG    1       23.185 -20.777   4.387  0.00  0.00    +0.105 C 
ATOM     22  N   LIG    1       23.485 -19.577   5.166  0.00  0.00    -0.303 NA
ATOM     23  C   LIG    1       24.713 -18.914   4.684  0.00  0.00    +0.099 C 
ATOM     24  C   LIG    1       24.550 -18.094   3.378  0.00  0.00    +0.100 C 
ATOM     25  N   LIG    1       23.428 -17.133   3.384  0.00  0.00    -0.291 NA
ATOM     26  C   LIG    1       22.202 -17.829   3.831  0.00  0.00    +0.100 C 
ATOM     27  C   LIG    1       22.354 -18.628   5.147  0.00  0.00    +0.099 C 
ENDBRANCH  20  25
ENDBRANCH   1  20
TORSDOF 2
ENDMDL
MODEL 3
REMARK VINA RESULT:      12.8      1.825      2.154
REMARK  Name = *****
REMARK                            x       y       z     vdW  Elec       q    Type
REMARK                         _______ _______ _______ _____ _____    ______ ____
ROOT
ATOM      1  C   LIG    1       23.601 -15.752   4.701  0.00  0.00    +0.247 C 
ATOM      2  N   LIG    1       24.634 -15.341   3.847  0.00  0.00    -0.262 N 
ATOM      3  C   LIG    1       24.558 -14.005   3.394  0.00  0.00    +0.164 A 
ATOM      4  C   LIG    1       24.958 -12.944   4.218  0.00  0.00    +0.085 A 
ATOM      5  C   LIG    1       24.634 -11.649   3.810  0.00  0.00    +0.031 A 
ATOM      6  C   LIG    1       23.995 -11.447   2.589  0.00  0.00    +0.022 A 
ATOM      7  C   LIG    1       23.684 -12.553   1.820  0.00  0.00    +0.113 A 
ATOM      8  N   LIG    1       25.616 -13.092   5.452  0.00  0.00    -0.319 N 
ATOM      9  H   LIG    1       25.620 -12.296   6.080  0.00  0.00    +0.169 HD
ATOM     10  C   LIG    1       26.398 -14.123   5.910  0.00  0.00    +0.258 A 
ATOM     11  O   LIG    1       26.869 -14.061   7.044  0.00  0.00    -0.267 OA
ATOM     12  C   LIG    1       26.797 -15.242   5.025  0.00  0.00    +0.063 A 
ATOM     13  C   LIG    1       28.083 -15.780   5.202  0.00  0.00    +0.015 A 
ATOM     14  C   LIG    1       28.534 -16.827   4.396  0.00  0.00    +0.001 A 
ATOM     15  C   LIG    1       27.704 -17.351   3.410  0.00  0.00    +0.002 A 
ATOM     16  C   LIG    1       26.421 -16.834   3.238  0.00  0.00    +0.027 A 
ATOM     17  N   LIG    1       23.944 -13.822   2.195  0.00  0.00    -0.235 NA
ATOM     18  C   LIG    1       25.958 -15.786   4.050  0.00  0.00    +0.064 A 
ATOM     19  O   LIG    1       22.594 -15.073   4.936  0.00  0.00    -0.271 OA
ENDROOT
BRANCH   1  20
ATOM     20  C   LIG    1       23.723 -17.141   5.348  0.00  0.00    +0.184 C 
BRANCH  20  25
ATOM     21  C   LIG    1       23.523 -21.526   3.278  0.00  0.00    +0.105 C 
ATOM     22  N   LIG    1       24.395 -20.524   3.887  0.00  0.00    -0.303 NA
ATOM     23  C   LIG    1       24.378 -19.258   3.126  0.00  0.00    +0.099 C 
ATOM     24  C   LIG    1       23.122 -18.377   3.342  0.00  0.00    +0.100 C 
ATOM     25  N   LIG    1       22.779 -18.119   4.756  0.00  0.00    -0.291 NA
ATOM     26  C   LIG    1       22.763 -19.404   5.488  0.00  0.00    +0.100 C 
ATOM     27  C   LIG    1       24.026 -20.275   5.295  0.00  0.00    +0.099 C 
ENDBRANCH  20  25
ENDBRANCH   1  20
TORSDOF 2
ENDMDL
