MODEL 1
REMARK VINA RESULT:      -4.8      0.000      0.000
REMARK  Name = *****
REMARK                            x       y       z     vdW  Elec       q    Type
REMARK                         _______ _______ _______ _____ _____    ______ ____
ROOT
ATOM      1  C   LIG    1       26.678 -13.575   4.798  0.00  0.00    +0.147 A 
ATOM      2  C   LIG    1       25.541 -13.089   4.130  0.00  0.00    +0.147 A 
ATOM      3  C   LIG    1       25.457 -13.365   2.775  0.00  0.00    +0.163 A 
ATOM      4  N   LIG    1       24.270 -12.825   2.375  0.00  0.00    -0.329 N 
ATOM      5  H   LIG    1       23.895 -12.869   1.439  0.00  0.00    +0.168 HD
ATOM      6  C   LIG    1       23.698 -12.230   3.467  0.00  0.00    +0.198 A 
ATOM      7  N   LIG    1       26.336 -14.035   2.017  0.00  0.00    -0.216 NA
ATOM      8  C   LIG    1       27.392 -14.430   2.758  0.00  0.00    +0.225 A 
ATOM      9  N   LIG    1       24.441 -12.365   4.548  0.00  0.00    -0.231 NA
ATOM     10  N   LIG    1       27.614 -14.237   4.078  0.00  0.00    -0.219 NA
ENDROOT
BRANCH   1  11
ATOM     11  N   LIG    1       26.890 -13.411   6.160  0.00  0.00    -0.341 N 
ATOM     12  H   LIG    1       26.594 -12.510   6.518  0.00  0.00    +0.144 HD
ATOM     13  H   LIG    1       27.776 -13.783   6.469  0.00  0.00    +0.144 HD
ENDBRANCH   1  11
TORSDOF 1
ENDMDL
MODEL 2
REMARK VINA RESULT:      -4.7      7.047      7.845
REMARK  Name = *****
REMARK                            x       y       z     vdW  Elec       q    Type
REMARK                         _______ _______ _______ _____ _____    ______ ____
ROOT
ATOM      1  C   LIG    1       23.932 -20.720   5.947  0.00  0.00    +0.147 A 
ATOM      2  C   LIG    1       25.326 -20.542   5.944  0.00  0.00    +0.147 A 
ATOM      3  C   LIG    1       25.887 -20.080   4.765  0.00  0.00    +0.163 A 
ATOM      4  N   LIG    1       27.220 -19.963   5.026  0.00  0.00    -0.329 N 
ATOM      5  H   LIG    1       27.916 -19.628   4.376  0.00  0.00    +0.168 HD
ATOM      6  C   LIG    1       27.425 -20.372   6.316  0.00  0.00    +0.198 A 
ATOM      7  N   LIG    1       25.260 -19.789   3.616  0.00  0.00    -0.216 NA
ATOM      8  C   LIG    1       23.936 -20.020   3.730  0.00  0.00    +0.225 A 
ATOM      9  N   LIG    1       26.303 -20.735   6.903  0.00  0.00    -0.231 NA
ATOM     10  N   LIG    1       23.248 -20.467   4.806  0.00  0.00    -0.219 NA
ENDROOT
BRANCH   1  11
ATOM     11  N   LIG    1       23.220 -21.142   7.061  0.00  0.00    -0.341 N 
ATOM     12  H   LIG    1       22.221 -21.224   6.906  0.00  0.00    +0.144 HD
ATOM     13  H   LIG    1       23.539 -20.715   7.919  0.00  0.00    +0.144 HD
ENDBRANCH   1  11
TORSDOF 1
ENDMDL
MODEL 3
REMARK VINA RESULT:      -4.4      7.484      8.169
REMARK  Name = *****
REMARK                            x       y       z     vdW  Elec       q    Type
REMARK                         _______ _______ _______ _____ _____    ______ ____
ROOT
ATOM      1  C   LIG    1       23.100 -21.157   5.395  0.00  0.00    +0.147 A 
ATOM      2  C   LIG    1       24.096 -20.550   4.611  0.00  0.00    +0.147 A 
ATOM      3  C   LIG    1       25.356 -20.456   5.177  0.00  0.00    +0.163 A 
ATOM      4  N   LIG    1       26.133 -19.870   4.221  0.00  0.00    -0.329 N 
ATOM      5  H   LIG    1       27.120 -19.676   4.309  0.00  0.00    +0.168 HD
ATOM      6  C   LIG    1       25.333 -19.611   3.141  0.00  0.00    +0.198 A 
ATOM      7  N   LIG    1       25.743 -20.866   6.393  0.00  0.00    -0.216 NA
ATOM      8  C   LIG    1       24.703 -21.408   7.060  0.00  0.00    +0.225 A 
ATOM      9  N   LIG    1       24.092 -20.004   3.341  0.00  0.00    -0.231 NA
ATOM     10  N   LIG    1       23.426 -21.568   6.644  0.00  0.00    -0.219 NA
ENDROOT
BRANCH   1  11
ATOM     11  N   LIG    1       21.799 -21.356   4.956  0.00  0.00    -0.341 N 
ATOM     12  H   LIG    1       21.142 -20.653   5.277  0.00  0.00    +0.144 HD
ATOM     13  H   LIG    1       21.517 -22.326   4.984  0.00  0.00    +0.144 HD
ENDBRANCH   1  11
TORSDOF 1
ENDMDL
MODEL 4
REMARK VINA RESULT:      -4.3      7.366      7.908
REMARK  Name = *****
REMARK                            x       y       z     vdW  Elec       q    Type
REMARK                         _______ _______ _______ _____ _____    ______ ____
ROOT
ATOM      1  C   LIG    1       25.589 -19.925   4.526  0.00  0.00    +0.147 A 
ATOM      2  C   LIG    1       24.369 -20.447   4.990  0.00  0.00    +0.147 A 
ATOM      3  C   LIG    1       24.387 -21.044   6.239  0.00  0.00    +0.163 A 
ATOM      4  N   LIG    1       23.100 -21.432   6.467  0.00  0.00    -0.329 N 
ATOM      5  H   LIG    1       22.766 -21.884   7.305  0.00  0.00    +0.168 HD
ATOM      6  C   LIG    1       22.364 -21.090   5.364  0.00  0.00    +0.198 A 
ATOM      7  N   LIG    1       25.434 -21.194   7.062  0.00  0.00    -0.216 NA
ATOM      8  C   LIG    1       26.550 -20.679   6.505  0.00  0.00    +0.225 A 
ATOM      9  N   LIG    1       23.099 -20.495   4.446  0.00  0.00    -0.231 NA
ATOM     10  N   LIG    1       26.688 -20.071   5.304  0.00  0.00    -0.219 NA
ENDROOT
BRANCH   1  11
ATOM     11  N   LIG    1       25.725 -19.267   3.312  0.00  0.00    -0.341 N 
ATOM     12  H   LIG    1       25.750 -19.885   2.508  0.00  0.00    +0.144 HD
ATOM     13  H   LIG    1       26.383 -18.501   3.350  0.00  0.00    +0.144 HD
ENDBRANCH   1  11
TORSDOF 1
ENDMDL
MODEL 5
REMARK VINA RESULT:      -4.3      7.212      8.081
REMARK  Name = *****
REMARK                            x       y       z     vdW  Elec       q    Type
REMARK                         _______ _______ _______ _____ _____    ______ ____
ROOT
ATOM      1  C   LIG    1       24.774 -19.578   4.193  0.00  0.00    +0.147 A 
ATOM      2  C   LIG    1       25.096 -20.365   5.312  0.00  0.00    +0.147 A 
ATOM      3  C   LIG    1       24.033 -20.818   6.075  0.00  0.00    +0.163 A 
ATOM      4  N   LIG    1       24.598 -21.570   7.062  0.00  0.00    -0.329 N 
ATOM      5  H   LIG    1       24.091 -22.065   7.781  0.00  0.00    +0.168 HD
ATOM      6  C   LIG    1       25.955 -21.530   6.886  0.00  0.00    +0.198 A 
ATOM      7  N   LIG    1       22.726 -20.587   5.882  0.00  0.00    -0.216 NA
ATOM      8  C   LIG    1       22.541 -19.805   4.798  0.00  0.00    +0.225 A 
ATOM      9  N   LIG    1       26.295 -20.806   5.839  0.00  0.00    -0.231 NA
ATOM     10  N   LIG    1       23.471 -19.290   3.962  0.00  0.00    -0.219 NA
ENDROOT
BRANCH   1  11
ATOM     11  N   LIG    1       25.724 -19.080   3.312  0.00  0.00    -0.341 N 
ATOM     12  H   LIG    1       25.672 -18.077   3.173  0.00  0.00    +0.144 HD
ATOM     13  H   LIG    1       25.861 -19.670   2.504  0.00  0.00    +0.144 HD
ENDBRANCH   1  11
TORSDOF 1
ENDMDL
MODEL 6
REMARK VINA RESULT:      -4.2      7.054      7.650
REMARK  Name = *****
REMARK                            x       y       z     vdW  Elec       q    Type
REMARK                         _______ _______ _______ _____ _____    ______ ____
ROOT
ATOM      1  C   LIG    1       23.142 -19.169   4.382  0.00  0.00    +0.147 A 
ATOM      2  C   LIG    1       23.500 -20.136   5.336  0.00  0.00    +0.147 A 
ATOM      3  C   LIG    1       24.824 -20.543   5.336  0.00  0.00    +0.163 A 
ATOM      4  N   LIG    1       24.920 -21.444   6.355  0.00  0.00    -0.329 N 
ATOM      5  H   LIG    1       25.765 -21.917   6.639  0.00  0.00    +0.168 HD
ATOM      6  C   LIG    1       23.676 -21.572   6.911  0.00  0.00    +0.198 A 
ATOM      7  N   LIG    1       25.810 -20.131   4.526  0.00  0.00    -0.216 NA
ATOM      8  C   LIG    1       25.345 -19.225   3.641  0.00  0.00    +0.225 A 
ATOM      9  N   LIG    1       22.788 -20.799   6.318  0.00  0.00    -0.231 NA
ATOM     10  N   LIG    1       24.091 -18.734   3.518  0.00  0.00    -0.219 NA
ENDROOT
BRANCH   1  11
ATOM     11  N   LIG    1       21.865 -18.636   4.278  0.00  0.00    -0.341 N 
ATOM     12  H   LIG    1       21.161 -19.145   4.802  0.00  0.00    +0.144 HD
ATOM     13  H   LIG    1       21.640 -18.329   3.343  0.00  0.00    +0.144 HD
ENDBRANCH   1  11
TORSDOF 1
ENDMDL
MODEL 7
REMARK VINA RESULT:      -4.0      6.857      8.129
REMARK  Name = *****
REMARK                            x       y       z     vdW  Elec       q    Type
REMARK                         _______ _______ _______ _____ _____    ______ ____
ROOT
ATOM      1  C   LIG    1       25.713 -19.731   4.482  0.00  0.00    +0.147 A 
ATOM      2  C   LIG    1       26.758 -20.097   5.347  0.00  0.00    +0.147 A 
ATOM      3  C   LIG    1       26.442 -20.997   6.352  0.00  0.00    +0.163 A 
ATOM      4  N   LIG    1       27.611 -21.209   7.020  0.00  0.00    -0.329 N 
ATOM      5  H   LIG    1       27.731 -21.836   7.803  0.00  0.00    +0.168 HD
ATOM      6  C   LIG    1       28.571 -20.432   6.431  0.00  0.00    +0.198 A 
ATOM      7  N   LIG    1       25.252 -21.557   6.607  0.00  0.00    -0.216 NA
ATOM      8  C   LIG    1       24.325 -21.116   5.732  0.00  0.00    +0.225 A 
ATOM      9  N   LIG    1       28.092 -19.740   5.417  0.00  0.00    -0.231 NA
ATOM     10  N   LIG    1       24.481 -20.246   4.708  0.00  0.00    -0.219 NA
ENDROOT
BRANCH   1  11
ATOM     11  N   LIG    1       25.880 -18.869   3.408  0.00  0.00    -0.341 N 
ATOM     12  H   LIG    1       26.076 -19.336   2.530  0.00  0.00    +0.144 HD
ATOM     13  H   LIG    1       26.413 -18.044   3.642  0.00  0.00    +0.144 HD
ENDBRANCH   1  11
TORSDOF 1
ENDMDL
MODEL 8
REMARK VINA RESULT:      -4.0      6.640      7.628
REMARK  Name = *****
REMARK                            x       y       z     vdW  Elec       q    Type
REMARK                         _______ _______ _______ _____ _____    ______ ____
ROOT
ATOM      1  C   LIG    1       28.285 -19.335   5.424  0.00  0.00    +0.147 A 
ATOM      2  C   LIG    1       27.006 -19.901   5.296  0.00  0.00    +0.147 A 
ATOM      3  C   LIG    1       26.716 -20.968   6.131  0.00  0.00    +0.163 A 
ATOM      4  N   LIG    1       25.429 -21.309   5.839  0.00  0.00    -0.329 N 
ATOM      5  H   LIG    1       24.902 -22.043   6.290  0.00  0.00    +0.168 HD
ATOM      6  C   LIG    1       24.996 -20.476   4.842  0.00  0.00    +0.198 A 
ATOM      7  N   LIG    1       27.515 -21.535   7.045  0.00  0.00    -0.216 NA
ATOM      8  C   LIG    1       28.719 -20.927   7.062  0.00  0.00    +0.225 A 
ATOM      9  N   LIG    1       25.925 -19.613   4.483  0.00  0.00    -0.231 NA
ATOM     10  N   LIG    1       29.146 -19.884   6.313  0.00  0.00    -0.219 NA
ENDROOT
BRANCH   1  11
ATOM     11  N   LIG    1       28.713 -18.241   4.684  0.00  0.00    -0.341 N 
ATOM     12  H   LIG    1       29.116 -17.497   5.243  0.00  0.00    +0.144 HD
ATOM     13  H   LIG    1       28.074 -17.992   3.942  0.00  0.00    +0.144 HD
ENDBRANCH   1  11
TORSDOF 1
ENDMDL
MODEL 9
REMARK VINA RESULT:      -3.9      0.894      2.983
REMARK  Name = *****
REMARK                            x       y       z     vdW  Elec       q    Type
REMARK                         _______ _______ _______ _____ _____    ______ ____
ROOT
ATOM      1  C   LIG    1       24.538 -12.538   4.069  0.00  0.00    +0.147 A 
ATOM      2  C   LIG    1       25.752 -13.228   4.220  0.00  0.00    +0.147 A 
ATOM      3  C   LIG    1       26.292 -13.787   3.073  0.00  0.00    +0.163 A 
ATOM      4  N   LIG    1       27.462 -14.361   3.473  0.00  0.00    -0.329 N 
ATOM      5  H   LIG    1       28.114 -14.839   2.869  0.00  0.00    +0.168 HD
ATOM      6  C   LIG    1       27.580 -14.161   4.822  0.00  0.00    +0.198 A 
ATOM      7  N   LIG    1       25.790 -13.756   1.830  0.00  0.00    -0.216 NA
ATOM      8  C   LIG    1       24.617 -13.090   1.812  0.00  0.00    +0.225 A 
ATOM      9  N   LIG    1       26.561 -13.483   5.311  0.00  0.00    -0.231 NA
ATOM     10  N   LIG    1       23.969 -12.496   2.841  0.00  0.00    -0.219 NA
ENDROOT
BRANCH   1  11
ATOM     11  N   LIG    1       23.891 -11.895   5.115  0.00  0.00    -0.341 N 
ATOM     12  H   LIG    1       23.195 -11.220   4.818  0.00  0.00    +0.144 HD
ATOM     13  H   LIG    1       24.514 -11.642   5.869  0.00  0.00    +0.144 HD
ENDBRANCH   1  11
TORSDOF 1
ENDMDL
