MODEL 1
REMARK VINA RESULT:      17.3      0.000      0.000
REMARK  Name = *****
REMARK                            x       y       z     vdW  Elec       q    Type
REMARK                         _______ _______ _______ _____ _____    ______ ____
ROOT
ATOM      1  C   LIG    1       23.428 -20.830   5.614  0.00  0.00    +0.107 A 
ATOM      2  N   LIG    1       23.861 -19.649   4.989  0.00  0.00    -0.318 N 
ATOM      3  C   LIG    1       25.242 -19.573   5.080  0.00  0.00    +0.147 A 
ATOM      4  C   LIG    1       25.712 -20.727   5.657  0.00  0.00    +0.038 A 
ATOM      5  C   LIG    1       27.081 -20.795   5.879  0.00  0.00    +0.126 A 
ATOM      6  N   LIG    1       27.875 -19.760   5.512  0.00  0.00    -0.222 NA
ATOM      7  C   LIG    1       27.323 -18.706   4.879  0.00  0.00    +0.222 A 
ATOM      8  N   LIG    1       26.007 -18.562   4.661  0.00  0.00    -0.196 NA
ATOM      9  C   LIG    1       24.597 -21.559   5.844  0.00  0.00    +0.044 A 
ENDROOT
BRANCH   1  12
ATOM     10  C   LIG    1       19.707 -21.571   5.190  0.00  0.00    +0.132 C 
ATOM     11  N   LIG    1       21.077 -21.193   4.874  0.00  0.00    -0.302 N 
ATOM     12  C   LIG    1       22.040 -21.207   5.898  0.00  0.00    +0.263 C 
ATOM     13  O   LIG    1       21.701 -21.572   7.037  0.00  0.00    -0.268 OA
ATOM     14  C   LIG    1       21.255 -20.664   3.531  0.00  0.00    +0.132 C 
ENDBRANCH   1  12
BRANCH   2  15
ATOM     15  C   LIG    1       23.050 -18.635   4.328  0.00  0.00    +0.089 C 
ATOM     16  C   LIG    1       21.844 -18.098   5.113  0.00  0.00    +0.025 C 
ATOM     17  C   LIG    1       21.465 -16.848   4.327  0.00  0.00    +0.002 C 
ATOM     18  C   LIG    1       22.799 -16.220   3.950  0.00  0.00    +0.002 C 
ATOM     19  C   LIG    1       23.819 -17.364   3.917  0.00  0.00    +0.025 C 
ENDBRANCH   2  15
BRANCH   7  20
ATOM     20  N   LIG    1       28.211 -17.734   4.418  0.00  0.00    -0.268 N 
ATOM     21  H   LIG    1       28.972 -18.132   3.893  0.00  0.00    +0.156 HD
BRANCH  20  22
ATOM     22  C   LIG    1       27.937 -16.408   4.080  0.00  0.00    +0.125 A 
ATOM     23  N   LIG    1       28.145 -15.454   5.010  0.00  0.00    -0.238 NA
ATOM     24  C   LIG    1       27.843 -14.160   4.675  0.00  0.00    +0.136 A 
ATOM     25  C   LIG    1       27.290 -13.722   3.468  0.00  0.00    +0.048 A 
ATOM     26  C   LIG    1       27.139 -14.735   2.531  0.00  0.00    +0.028 A 
ATOM     27  C   LIG    1       27.450 -16.057   2.833  0.00  0.00    +0.045 A 
BRANCH  25  28
ATOM     28  N   LIG    1       26.938 -12.408   3.145  0.00  0.00    -0.326 N 
ATOM     29  C   LIG    1       26.206 -12.211   1.864  0.00  0.00    +0.120 C 
ATOM     30  C   LIG    1       24.684 -12.376   2.080  0.00  0.00    +0.100 C 
ATOM     31  N   LIG    1       24.148 -11.449   3.100  0.00  0.00    -0.313 NA
ATOM     32  H   LIG    1       24.321 -10.497   2.774  0.00  0.00    +0.122 HD
ATOM     33  C   LIG    1       24.900 -11.641   4.362  0.00  0.00    +0.100 C 
ATOM     34  C   LIG    1       26.433 -11.505   4.198  0.00  0.00    +0.120 C 
ENDBRANCH  25  28
ENDBRANCH  20  22
ENDBRANCH   7  20
TORSDOF 5
ENDMDL
