MODEL 1
REMARK VINA RESULT:      -3.0      0.000      0.000
REMARK  Name = *****
REMARK                            x       y       z     vdW  Elec       q    Type
REMARK                         _______ _______ _______ _____ _____    ______ ____
ROOT
ATOM      1  C   LIG    1       21.955 -21.569   5.474  0.00  0.00    +0.105 C 
ATOM      2  N   LIG    1       22.733 -20.425   5.059  0.00  0.00    -0.301 NA
ATOM      3  C   LIG    1       23.933 -20.768   4.291  0.00  0.00    +0.120 C 
ATOM      4  C   LIG    1       24.789 -19.509   4.238  0.00  0.00    -0.022 C 
ATOM      5  C   LIG    1       26.088 -19.547   4.957  0.00  0.00    -0.017 A 
ATOM      6  C   LIG    1       27.215 -18.845   4.502  0.00  0.00    -0.036 A 
ATOM      7  C   LIG    1       27.116 -17.940   3.297  0.00  0.00    +0.071 C 
ATOM      8  C   LIG    1       26.158 -16.796   3.553  0.00  0.00    -0.036 A 
ATOM      9  C   LIG    1       24.781 -17.032   3.761  0.00  0.00    -0.018 A 
ATOM     10  C   LIG    1       23.959 -15.935   4.069  0.00  0.00    +0.008 A 
ATOM     11  C   LIG    1       24.473 -14.641   4.172  0.00  0.00    +0.001 A 
ATOM     12  C   LIG    1       25.827 -14.417   3.968  0.00  0.00    +0.000 A 
ATOM     13  C   LIG    1       26.666 -15.486   3.659  0.00  0.00    +0.004 A 
ATOM     14  C   LIG    1       28.424 -18.941   5.217  0.00  0.00    +0.004 A 
ATOM     15  C   LIG    1       28.510 -19.715   6.375  0.00  0.00    +0.000 A 
ATOM     16  C   LIG    1       27.388 -20.382   6.847  0.00  0.00    +0.001 A 
ATOM     17  C   LIG    1       26.188 -20.287   6.148  0.00  0.00    +0.008 A 
ATOM     18  C   LIG    1       24.203 -18.403   3.724  0.00  0.00    -0.034 C 
ATOM     19  C   LIG    1       22.744 -18.588   3.315  0.00  0.00    +0.051 C 
ATOM     20  C   LIG    1       21.980 -19.316   4.453  0.00  0.00    +0.089 C 
ENDROOT
TORSDOF 0
ENDMDL
MODEL 2
REMARK VINA RESULT:      -1.7      1.879      5.647
REMARK  Name = *****
REMARK                            x       y       z     vdW  Elec       q    Type
REMARK                         _______ _______ _______ _____ _____    ______ ____
ROOT
ATOM      1  C   LIG    1       26.625 -13.991   3.537  0.00  0.00    +0.105 C 
ATOM      2  N   LIG    1       26.595 -15.384   3.920  0.00  0.00    -0.301 NA
ATOM      3  C   LIG    1       25.929 -16.255   2.947  0.00  0.00    +0.120 C 
ATOM      4  C   LIG    1       25.689 -17.585   3.649  0.00  0.00    -0.022 C 
ATOM      5  C   LIG    1       24.276 -17.963   3.908  0.00  0.00    -0.017 A 
ATOM      6  C   LIG    1       23.845 -19.300   3.896  0.00  0.00    -0.036 A 
ATOM      7  C   LIG    1       24.841 -20.420   3.707  0.00  0.00    +0.071 C 
ATOM      8  C   LIG    1       25.839 -20.458   4.845  0.00  0.00    -0.036 A 
ATOM      9  C   LIG    1       26.746 -19.395   5.052  0.00  0.00    -0.018 A 
ATOM     10  C   LIG    1       27.596 -19.456   6.170  0.00  0.00    +0.008 A 
ATOM     11  C   LIG    1       27.557 -20.529   7.061  0.00  0.00    +0.001 A 
ATOM     12  C   LIG    1       26.662 -21.569   6.851  0.00  0.00    +0.000 A 
ATOM     13  C   LIG    1       25.809 -21.536   5.750  0.00  0.00    +0.004 A 
ATOM     14  C   LIG    1       22.487 -19.591   4.126  0.00  0.00    +0.004 A 
ATOM     15  C   LIG    1       21.570 -18.569   4.375  0.00  0.00    +0.000 A 
ATOM     16  C   LIG    1       21.999 -17.250   4.423  0.00  0.00    +0.001 A 
ATOM     17  C   LIG    1       23.341 -16.956   4.201  0.00  0.00    +0.008 A 
ATOM     18  C   LIG    1       26.778 -18.201   4.163  0.00  0.00    -0.034 C 
ATOM     19  C   LIG    1       28.085 -17.432   3.991  0.00  0.00    +0.051 C 
ATOM     20  C   LIG    1       27.866 -15.951   4.398  0.00  0.00    +0.089 C 
ENDROOT
TORSDOF 0
ENDMDL
MODEL 3
REMARK VINA RESULT:      -0.9      1.798      4.575
REMARK  Name = *****
REMARK                            x       y       z     vdW  Elec       q    Type
REMARK                         _______ _______ _______ _____ _____    ______ ____
ROOT
ATOM      1  C   LIG    1       29.475 -20.679   7.062  0.00  0.00    +0.105 C 
ATOM      2  N   LIG    1       28.201 -20.390   6.444  0.00  0.00    -0.301 NA
ATOM      3  C   LIG    1       28.289 -20.079   5.015  0.00  0.00    +0.120 C 
ATOM      4  C   LIG    1       26.946 -19.480   4.618  0.00  0.00    -0.022 C 
ATOM      5  C   LIG    1       26.940 -18.050   4.216  0.00  0.00    -0.017 A 
ATOM      6  C   LIG    1       26.054 -17.550   3.248  0.00  0.00    -0.036 A 
ATOM      7  C   LIG    1       25.001 -18.447   2.641  0.00  0.00    +0.071 C 
ATOM      8  C   LIG    1       24.023 -18.926   3.693  0.00  0.00    -0.036 A 
ATOM      9  C   LIG    1       24.443 -19.768   4.747  0.00  0.00    -0.018 A 
ATOM     10  C   LIG    1       23.504 -20.116   5.732  0.00  0.00    +0.008 A 
ATOM     11  C   LIG    1       22.189 -19.651   5.687  0.00  0.00    +0.001 A 
ATOM     12  C   LIG    1       21.784 -18.823   4.650  0.00  0.00    +0.000 A 
ATOM     13  C   LIG    1       22.694 -18.463   3.657  0.00  0.00    +0.004 A 
ATOM     14  C   LIG    1       26.114 -16.189   2.894  0.00  0.00    +0.004 A 
ATOM     15  C   LIG    1       27.034 -15.333   3.501  0.00  0.00    +0.000 A 
ATOM     16  C   LIG    1       27.886 -15.816   4.484  0.00  0.00    +0.001 A 
ATOM     17  C   LIG    1       27.829 -17.160   4.842  0.00  0.00    +0.008 A 
ATOM     18  C   LIG    1       25.852 -20.235   4.868  0.00  0.00    -0.034 C 
ATOM     19  C   LIG    1       26.141 -21.566   5.557  0.00  0.00    +0.051 C 
ATOM     20  C   LIG    1       27.109 -21.330   6.745  0.00  0.00    +0.089 C 
ENDROOT
TORSDOF 0
ENDMDL
MODEL 4
REMARK VINA RESULT:      -0.7      2.026      5.409
REMARK  Name = *****
REMARK                            x       y       z     vdW  Elec       q    Type
REMARK                         _______ _______ _______ _____ _____    ______ ____
ROOT
ATOM      1  C   LIG    1       24.916 -12.588   3.821  0.00  0.00    +0.105 C 
ATOM      2  N   LIG    1       25.482 -13.911   3.949  0.00  0.00    -0.301 NA
ATOM      3  C   LIG    1       24.991 -14.868   2.954  0.00  0.00    +0.120 C 
ATOM      4  C   LIG    1       25.412 -16.250   3.436  0.00  0.00    -0.022 C 
ATOM      5  C   LIG    1       24.327 -17.180   3.842  0.00  0.00    -0.017 A 
ATOM      6  C   LIG    1       24.426 -18.569   3.660  0.00  0.00    -0.036 A 
ATOM      7  C   LIG    1       25.698 -19.179   3.120  0.00  0.00    +0.071 C 
ATOM      8  C   LIG    1       26.859 -18.937   4.061  0.00  0.00    -0.036 A 
ATOM      9  C   LIG    1       27.334 -17.630   4.310  0.00  0.00    -0.018 A 
ATOM     10  C   LIG    1       28.364 -17.466   5.251  0.00  0.00    +0.008 A 
ATOM     11  C   LIG    1       28.914 -18.554   5.931  0.00  0.00    +0.001 A 
ATOM     12  C   LIG    1       28.441 -19.835   5.683  0.00  0.00    +0.000 A 
ATOM     13  C   LIG    1       27.421 -20.027   4.754  0.00  0.00    +0.004 A 
ATOM     14  C   LIG    1       23.353 -19.395   4.045  0.00  0.00    +0.004 A 
ATOM     15  C   LIG    1       22.200 -18.850   4.613  0.00  0.00    +0.000 A 
ATOM     16  C   LIG    1       22.114 -17.481   4.827  0.00  0.00    +0.001 A 
ATOM     17  C   LIG    1       23.173 -16.660   4.453  0.00  0.00    +0.008 A 
ATOM     18  C   LIG    1       26.733 -16.436   3.654  0.00  0.00    -0.034 C 
ATOM     19  C   LIG    1       27.597 -15.200   3.419  0.00  0.00    +0.051 C 
ATOM     20  C   LIG    1       26.943 -13.976   4.113  0.00  0.00    +0.089 C 
ENDROOT
TORSDOF 0
ENDMDL
