MODEL 1
REMARK VINA RESULT:      -0.4      0.000      0.000
REMARK  Name = *****
REMARK                            x       y       z     vdW  Elec       q    Type
REMARK                         _______ _______ _______ _____ _____    ______ ____
ROOT
ATOM      1  C   LIG    1       25.277 -15.965   3.617  0.00  0.00    +0.144 C 
ATOM      2  C   LIG    1       26.602 -16.027   3.985  0.00  0.00    +0.014 C 
ENDROOT
BRANCH   2   3
ATOM      3  C   LIG    1       27.346 -17.253   4.431  0.00  0.00    -0.016 A 
ATOM      4  C   LIG    1       26.761 -18.519   4.475  0.00  0.00    +0.012 A 
ATOM      5  C   LIG    1       27.441 -19.626   4.986  0.00  0.00    +0.046 A 
ATOM      6  C   LIG    1       28.710 -19.490   5.535  0.00  0.00    +0.120 A 
ATOM      7  C   LIG    1       29.290 -18.227   5.571  0.00  0.00    +0.046 A 
ATOM      8  C   LIG    1       28.630 -17.130   4.999  0.00  0.00    +0.012 A 
BRANCH   6   9
ATOM      9  O   LIG    1       29.457 -20.513   6.050  0.00  0.00    -0.495 OA
ATOM     10  C   LIG    1       28.817 -21.291   7.059  0.00  0.00    +0.277 C 
ENDBRANCH   6   9
ENDBRANCH   2   3
BRANCH   2  11
ATOM     11  C   LIG    1       27.372 -14.703   4.030  0.00  0.00    -0.016 A 
ATOM     12  C   LIG    1       27.980 -14.179   2.878  0.00  0.00    +0.008 A 
ATOM     13  C   LIG    1       28.678 -12.963   2.924  0.00  0.00    +0.001 A 
ATOM     14  C   LIG    1       28.784 -12.256   4.119  0.00  0.00    +0.000 A 
ATOM     15  C   LIG    1       28.195 -12.767   5.274  0.00  0.00    +0.001 A 
ATOM     16  C   LIG    1       27.492 -13.981   5.232  0.00  0.00    +0.008 A 
ENDBRANCH   2  11
BRANCH   1  17
ATOM     17  C   LIG    1       24.254 -17.049   3.564  0.00  0.00    +0.350 C 
ATOM     18  O   LIG    1       24.411 -18.155   3.141  0.00  0.00    -0.244 OA
BRANCH  17  19
ATOM     19  O   LIG    1       23.052 -16.561   4.016  0.00  0.00    -0.460 OA
BRANCH  19  20
ATOM     20  C   LIG    1       22.257 -17.431   4.841  0.00  0.00    +0.236 C 
BRANCH  20  21
ATOM     21  C   LIG    1       21.537 -18.459   3.943  0.00  0.00    +0.026 C 
BRANCH  21  22
ATOM     22  C   LIG    1       20.032 -18.179   3.811  0.00  0.00    +0.003 C 
ATOM     23  C   LIG    1       19.410 -18.383   2.442  0.00  0.00    +0.004 C 
ENDBRANCH  21  22
BRANCH  21  24
ATOM     24  C   LIG    1       21.814 -19.916   4.418  0.00  0.00    +0.007 C 
BRANCH  24  25
ATOM     25  C   LIG    1       22.743 -20.114   5.635  0.00  0.00    +0.000 C 
BRANCH  25  27
ATOM     26  C   LIG    1       24.685 -21.489   6.512  0.00  0.00    +0.004 C 
ATOM     27  C   LIG    1       23.337 -21.510   5.808  0.00  0.00    -0.003 C 
ENDBRANCH  25  27
ENDBRANCH  24  25
ENDBRANCH  21  24
ENDBRANCH  20  21
ENDBRANCH  19  20
ENDBRANCH  17  19
ENDBRANCH   1  17
BRANCH   1  28
ATOM     28  C   LIG    1       24.752 -14.672   3.436  0.00  0.00    +0.107 C 
ATOM     29  N   LIG    1       24.323 -13.615   3.289  0.00  0.00    -0.191 NA
ENDBRANCH   1  28
TORSDOF 12
ENDMDL
MODEL 2
REMARK VINA RESULT:       0.4      2.073      7.034
REMARK  Name = *****
REMARK                            x       y       z     vdW  Elec       q    Type
REMARK                         _______ _______ _______ _____ _____    ______ ____
ROOT
ATOM      1  C   LIG    1       26.708 -17.769   4.072  0.00  0.00    +0.144 C 
ATOM      2  C   LIG    1       26.234 -18.941   4.618  0.00  0.00    +0.014 C 
ENDROOT
BRANCH   2   3
ATOM      3  C   LIG    1       24.828 -19.462   4.526  0.00  0.00    -0.016 A 
ATOM      4  C   LIG    1       24.057 -19.359   3.368  0.00  0.00    +0.012 A 
ATOM      5  C   LIG    1       22.721 -19.761   3.336  0.00  0.00    +0.046 A 
ATOM      6  C   LIG    1       22.088 -20.219   4.485  0.00  0.00    +0.120 A 
ATOM      7  C   LIG    1       22.812 -20.265   5.672  0.00  0.00    +0.046 A 
ATOM      8  C   LIG    1       24.171 -19.920   5.685  0.00  0.00    +0.012 A 
BRANCH   6   9
ATOM      9  O   LIG    1       20.790 -20.642   4.551  0.00  0.00    -0.495 OA
ATOM     10  C   LIG    1       19.855 -19.870   3.802  0.00  0.00    +0.277 C 
ENDBRANCH   6   9
ENDBRANCH   2   3
BRANCH   2  11
ATOM     11  C   LIG    1       27.211 -19.749   5.479  0.00  0.00    -0.016 A 
ATOM     12  C   LIG    1       26.766 -20.829   6.259  0.00  0.00    +0.008 A 
ATOM     13  C   LIG    1       27.664 -21.570   7.040  0.00  0.00    +0.001 A 
ATOM     14  C   LIG    1       29.018 -21.241   7.058  0.00  0.00    +0.000 A 
ATOM     15  C   LIG    1       29.475 -20.167   6.298  0.00  0.00    +0.001 A 
ATOM     16  C   LIG    1       28.579 -19.425   5.512  0.00  0.00    +0.008 A 
ENDBRANCH   2  11
BRANCH   1  17
ATOM     17  C   LIG    1       25.989 -16.734   3.275  0.00  0.00    +0.350 C 
ATOM     18  O   LIG    1       24.835 -16.748   2.965  0.00  0.00    -0.244 OA
BRANCH  17  19
ATOM     19  O   LIG    1       26.881 -15.770   2.873  0.00  0.00    -0.460 OA
BRANCH  19  20
ATOM     20  C   LIG    1       27.224 -14.752   3.829  0.00  0.00    +0.236 C 
BRANCH  20  21
ATOM     21  C   LIG    1       27.676 -13.483   3.076  0.00  0.00    +0.026 C 
BRANCH  21  22
ATOM     22  C   LIG    1       28.879 -12.796   3.740  0.00  0.00    +0.003 C 
ATOM     23  C   LIG    1       28.673 -12.244   5.138  0.00  0.00    +0.004 C 
ENDBRANCH  21  22
BRANCH  21  24
ATOM     24  C   LIG    1       26.489 -12.496   2.867  0.00  0.00    +0.007 C 
BRANCH  24  25
ATOM     25  C   LIG    1       25.191 -13.051   2.244  0.00  0.00    +0.000 C 
BRANCH  25  27
ATOM     26  C   LIG    1       24.096 -12.119   4.333  0.00  0.00    +0.004 C 
ATOM     27  C   LIG    1       23.962 -13.065   3.149  0.00  0.00    -0.003 C 
ENDBRANCH  25  27
ENDBRANCH  24  25
ENDBRANCH  21  24
ENDBRANCH  20  21
ENDBRANCH  19  20
ENDBRANCH  17  19
ENDBRANCH   1  17
BRANCH   1  28
ATOM     28  C   LIG    1       28.005 -17.392   4.465  0.00  0.00    +0.107 C 
ATOM     29  N   LIG    1       29.066 -17.083   4.787  0.00  0.00    -0.191 NA
ENDBRANCH   1  28
TORSDOF 12
ENDMDL
MODEL 3
REMARK VINA RESULT:       0.5      0.629      2.744
REMARK  Name = *****
REMARK                            x       y       z     vdW  Elec       q    Type
REMARK                         _______ _______ _______ _____ _____    ______ ____
ROOT
ATOM      1  C   LIG    1       25.202 -16.039   3.716  0.00  0.00    +0.144 C 
ATOM      2  C   LIG    1       26.534 -16.096   4.056  0.00  0.00    +0.014 C 
ENDROOT
BRANCH   2   3
ATOM      3  C   LIG    1       27.287 -17.316   4.506  0.00  0.00    -0.016 A 
ATOM      4  C   LIG    1       26.672 -18.549   4.720  0.00  0.00    +0.012 A 
ATOM      5  C   LIG    1       27.373 -19.642   5.231  0.00  0.00    +0.046 A 
ATOM      6  C   LIG    1       28.704 -19.519   5.611  0.00  0.00    +0.120 A 
ATOM      7  C   LIG    1       29.325 -18.282   5.477  0.00  0.00    +0.046 A 
ATOM      8  C   LIG    1       28.634 -17.204   4.903  0.00  0.00    +0.012 A 
BRANCH   6   9
ATOM      9  O   LIG    1       29.475 -20.531   6.113  0.00  0.00    -0.495 OA
ATOM     10  C   LIG    1       28.809 -21.426   7.001  0.00  0.00    +0.277 C 
ENDBRANCH   6   9
ENDBRANCH   2   3
BRANCH   2  11
ATOM     11  C   LIG    1       27.305 -14.772   4.064  0.00  0.00    -0.016 A 
ATOM     12  C   LIG    1       27.368 -13.978   5.220  0.00  0.00    +0.008 A 
ATOM     13  C   LIG    1       28.080 -12.769   5.223  0.00  0.00    +0.001 A 
ATOM     14  C   LIG    1       28.735 -12.335   4.073  0.00  0.00    +0.000 A 
ATOM     15  C   LIG    1       28.674 -13.106   2.914  0.00  0.00    +0.001 A 
ATOM     16  C   LIG    1       27.966 -14.318   2.908  0.00  0.00    +0.008 A 
ENDBRANCH   2  11
BRANCH   1  17
ATOM     17  C   LIG    1       24.177 -17.124   3.703  0.00  0.00    +0.350 C 
ATOM     18  O   LIG    1       23.030 -17.023   4.018  0.00  0.00    -0.244 OA
BRANCH  17  19
ATOM     19  O   LIG    1       24.773 -18.306   3.335  0.00  0.00    -0.460 OA
BRANCH  19  20
ATOM     20  C   LIG    1       23.914 -19.442   3.136  0.00  0.00    +0.236 C 
BRANCH  20  21
ATOM     21  C   LIG    1       23.409 -19.940   4.507  0.00  0.00    +0.026 C 
BRANCH  21  22
ATOM     22  C   LIG    1       24.029 -21.285   4.914  0.00  0.00    +0.003 C 
ATOM     23  C   LIG    1       24.734 -21.341   6.256  0.00  0.00    +0.004 C 
ENDBRANCH  21  22
BRANCH  21  24
ATOM     24  C   LIG    1       21.852 -19.983   4.554  0.00  0.00    +0.007 C 
BRANCH  24  25
ATOM     25  C   LIG    1       21.081 -18.740   4.062  0.00  0.00    +0.000 C 
BRANCH  25  27
ATOM     26  C   LIG    1       19.366 -17.951   2.369  0.00  0.00    +0.004 C 
ATOM     27  C   LIG    1       19.728 -19.004   3.404  0.00  0.00    -0.003 C 
ENDBRANCH  25  27
ENDBRANCH  24  25
ENDBRANCH  21  24
ENDBRANCH  20  21
ENDBRANCH  19  20
ENDBRANCH  17  19
ENDBRANCH   1  17
BRANCH   1  28
ATOM     28  C   LIG    1       24.673 -14.749   3.526  0.00  0.00    +0.107 C 
ATOM     29  N   LIG    1       24.241 -13.694   3.371  0.00  0.00    -0.191 NA
ENDBRANCH   1  28
TORSDOF 12
ENDMDL
MODEL 4
REMARK VINA RESULT:       0.7      1.991      5.399
REMARK  Name = *****
REMARK                            x       y       z     vdW  Elec       q    Type
REMARK                         _______ _______ _______ _____ _____    ______ ____
ROOT
ATOM      1  C   LIG    1       26.407 -16.185   3.819  0.00  0.00    +0.144 C 
ATOM      2  C   LIG    1       25.064 -15.891   3.887  0.00  0.00    +0.014 C 
ENDROOT
BRANCH   2   3
ATOM      3  C   LIG    1       23.935 -16.882   3.900  0.00  0.00    -0.016 A 
ATOM      4  C   LIG    1       22.672 -16.585   4.412  0.00  0.00    +0.012 A 
ATOM      5  C   LIG    1       21.669 -17.551   4.503  0.00  0.00    +0.046 A 
ATOM      6  C   LIG    1       21.918 -18.871   4.146  0.00  0.00    +0.120 A 
ATOM      7  C   LIG    1       23.190 -19.213   3.700  0.00  0.00    +0.046 A 
ATOM      8  C   LIG    1       24.175 -18.226   3.551  0.00  0.00    +0.012 A 
BRANCH   6   9
ATOM      9  O   LIG    1       21.000 -19.884   4.192  0.00  0.00    -0.495 OA
ATOM     10  C   LIG    1       21.399 -21.038   4.928  0.00  0.00    +0.277 C 
ENDBRANCH   6   9
ENDBRANCH   2   3
BRANCH   2  11
ATOM     11  C   LIG    1       24.676 -14.409   3.857  0.00  0.00    -0.016 A 
ATOM     12  C   LIG    1       24.498 -13.732   2.639  0.00  0.00    +0.008 A 
ATOM     13  C   LIG    1       24.137 -12.377   2.617  0.00  0.00    +0.001 A 
ATOM     14  C   LIG    1       23.953 -11.678   3.807  0.00  0.00    +0.000 A 
ATOM     15  C   LIG    1       24.135 -12.331   5.024  0.00  0.00    +0.001 A 
ATOM     16  C   LIG    1       24.493 -13.688   5.051  0.00  0.00    +0.008 A 
ENDBRANCH   2  11
BRANCH   1  17
ATOM     17  C   LIG    1       27.087 -17.510   3.740  0.00  0.00    +0.350 C 
ATOM     18  O   LIG    1       27.451 -18.065   2.747  0.00  0.00    -0.244 OA
BRANCH  17  19
ATOM     19  O   LIG    1       27.174 -18.052   4.999  0.00  0.00    -0.460 OA
BRANCH  19  20
ATOM     20  C   LIG    1       28.478 -18.447   5.457  0.00  0.00    +0.236 C 
BRANCH  20  21
ATOM     21  C   LIG    1       28.339 -19.178   6.809  0.00  0.00    +0.026 C 
BRANCH  21  22
ATOM     22  C   LIG    1       29.474 -20.183   7.059  0.00  0.00    +0.003 C 
ATOM     23  C   LIG    1       29.309 -21.571   6.468  0.00  0.00    +0.004 C 
ENDBRANCH  21  22
BRANCH  21  24
ATOM     24  C   LIG    1       26.937 -19.843   6.951  0.00  0.00    +0.007 C 
BRANCH  24  25
ATOM     25  C   LIG    1       26.478 -20.803   5.833  0.00  0.00    +0.000 C 
BRANCH  25  27
ATOM     26  C   LIG    1       24.195 -20.563   6.913  0.00  0.00    +0.004 C 
ATOM     27  C   LIG    1       25.073 -21.384   5.981  0.00  0.00    -0.003 C 
ENDBRANCH  25  27
ENDBRANCH  24  25
ENDBRANCH  21  24
ENDBRANCH  20  21
ENDBRANCH  19  20
ENDBRANCH  17  19
ENDBRANCH   1  17
BRANCH   1  28
ATOM     28  C   LIG    1       27.263 -15.088   3.612  0.00  0.00    +0.107 C 
ATOM     29  N   LIG    1       27.964 -14.191   3.443  0.00  0.00    -0.191 NA
ENDBRANCH   1  28
TORSDOF 12
ENDMDL
MODEL 5
REMARK VINA RESULT:       1.6      2.131      6.835
REMARK  Name = *****
REMARK                            x       y       z     vdW  Elec       q    Type
REMARK                         _______ _______ _______ _____ _____    ______ ____
ROOT
ATOM      1  C   LIG    1       26.541 -17.748   3.979  0.00  0.00    +0.144 C 
ATOM      2  C   LIG    1       25.841 -18.806   4.513  0.00  0.00    +0.014 C 
ENDROOT
BRANCH   2   3
ATOM      3  C   LIG    1       24.366 -19.056   4.379  0.00  0.00    -0.016 A 
ATOM      4  C   LIG    1       23.839 -20.279   3.967  0.00  0.00    +0.012 A 
ATOM      5  C   LIG    1       22.471 -20.458   3.756  0.00  0.00    +0.046 A 
ATOM      6  C   LIG    1       21.586 -19.394   3.884  0.00  0.00    +0.120 A 
ATOM      7  C   LIG    1       22.092 -18.143   4.224  0.00  0.00    +0.046 A 
ATOM      8  C   LIG    1       23.458 -17.984   4.497  0.00  0.00    +0.012 A 
BRANCH   6   9
ATOM      9  O   LIG    1       20.233 -19.472   3.706  0.00  0.00    -0.495 OA
ATOM     10  C   LIG    1       19.650 -18.400   2.969  0.00  0.00    +0.277 C 
ENDBRANCH   6   9
ENDBRANCH   2   3
BRANCH   2  11
ATOM     11  C   LIG    1       26.623 -19.777   5.404  0.00  0.00    -0.016 A 
ATOM     12  C   LIG    1       28.027 -19.789   5.403  0.00  0.00    +0.008 A 
ATOM     13  C   LIG    1       28.738 -20.675   6.225  0.00  0.00    +0.001 A 
ATOM     14  C   LIG    1       28.060 -21.564   7.055  0.00  0.00    +0.000 A 
ATOM     15  C   LIG    1       26.667 -21.572   7.061  0.00  0.00    +0.001 A 
ATOM     16  C   LIG    1       25.951 -20.684   6.243  0.00  0.00    +0.008 A 
ENDBRANCH   2  11
BRANCH   1  17
ATOM     17  C   LIG    1       26.053 -16.602   3.159  0.00  0.00    +0.350 C 
ATOM     18  O   LIG    1       25.420 -16.669   2.148  0.00  0.00    -0.244 OA
BRANCH  17  19
ATOM     19  O   LIG    1       26.506 -15.426   3.706  0.00  0.00    -0.460 OA
BRANCH  19  20
ATOM     20  C   LIG    1       25.700 -14.825   4.734  0.00  0.00    +0.236 C 
BRANCH  20  21
ATOM     21  C   LIG    1       25.142 -13.481   4.218  0.00  0.00    +0.026 C 
BRANCH  21  22
ATOM     22  C   LIG    1       24.080 -13.662   3.122  0.00  0.00    +0.003 C 
ATOM     23  C   LIG    1       24.054 -12.631   2.010  0.00  0.00    +0.004 C 
ENDBRANCH  21  22
BRANCH  21  24
ATOM     24  C   LIG    1       26.289 -12.532   3.759  0.00  0.00    +0.007 C 
BRANCH  24  25
ATOM     25  C   LIG    1       27.505 -13.162   3.046  0.00  0.00    +0.000 C 
BRANCH  25  27
ATOM     26  C   LIG    1       28.752 -12.387   5.114  0.00  0.00    +0.004 C 
ATOM     27  C   LIG    1       28.866 -12.914   3.692  0.00  0.00    -0.003 C 
ENDBRANCH  25  27
ENDBRANCH  24  25
ENDBRANCH  21  24
ENDBRANCH  20  21
ENDBRANCH  19  20
ENDBRANCH  17  19
ENDBRANCH   1  17
BRANCH   1  28
ATOM     28  C   LIG    1       27.874 -17.617   4.411  0.00  0.00    +0.107 C 
ATOM     29  N   LIG    1       28.964 -17.510   4.764  0.00  0.00    -0.191 NA
ENDBRANCH   1  28
TORSDOF 12
ENDMDL
MODEL 6
REMARK VINA RESULT:       1.9      1.189      1.625
REMARK  Name = *****
REMARK                            x       y       z     vdW  Elec       q    Type
REMARK                         _______ _______ _______ _____ _____    ______ ____
ROOT
ATOM      1  C   LIG    1       24.314 -15.031   4.161  0.00  0.00    +0.144 C 
ATOM      2  C   LIG    1       25.621 -15.387   3.913  0.00  0.00    +0.014 C 
ENDROOT
BRANCH   2   3
ATOM      3  C   LIG    1       26.210 -16.762   4.049  0.00  0.00    -0.016 A 
ATOM      4  C   LIG    1       25.479 -17.926   3.813  0.00  0.00    +0.012 A 
ATOM      5  C   LIG    1       26.020 -19.192   4.039  0.00  0.00    +0.046 A 
ATOM      6  C   LIG    1       27.292 -19.337   4.576  0.00  0.00    +0.120 A 
ATOM      7  C   LIG    1       28.019 -18.193   4.890  0.00  0.00    +0.046 A 
ATOM      8  C   LIG    1       27.496 -16.924   4.601  0.00  0.00    +0.012 A 
BRANCH   6   9
ATOM      9  O   LIG    1       27.909 -20.532   4.826  0.00  0.00    -0.495 OA
ATOM     10  C   LIG    1       28.776 -20.550   5.958  0.00  0.00    +0.277 C 
ENDBRANCH   6   9
ENDBRANCH   2   3
BRANCH   2  11
ATOM     11  C   LIG    1       26.590 -14.257   3.550  0.00  0.00    -0.016 A 
ATOM     12  C   LIG    1       26.390 -13.472   2.403  0.00  0.00    +0.008 A 
ATOM     13  C   LIG    1       27.276 -12.435   2.078  0.00  0.00    +0.001 A 
ATOM     14  C   LIG    1       28.376 -12.169   2.889  0.00  0.00    +0.000 A 
ATOM     15  C   LIG    1       28.595 -12.944   4.027  0.00  0.00    +0.001 A 
ATOM     16  C   LIG    1       27.708 -13.981   4.357  0.00  0.00    +0.008 A 
ENDBRANCH   2  11
BRANCH   1  17
ATOM     17  C   LIG    1       23.171 -15.874   4.617  0.00  0.00    +0.350 C 
ATOM     18  O   LIG    1       22.346 -15.576   5.429  0.00  0.00    -0.244 OA
BRANCH  17  19
ATOM     19  O   LIG    1       23.241 -17.103   4.007  0.00  0.00    -0.460 OA
BRANCH  19  20
ATOM     20  C   LIG    1       22.020 -17.854   3.897  0.00  0.00    +0.236 C 
BRANCH  20  21
ATOM     21  C   LIG    1       22.325 -19.350   4.125  0.00  0.00    +0.026 C 
BRANCH  21  22
ATOM     22  C   LIG    1       21.137 -20.257   3.768  0.00  0.00    +0.003 C 
ATOM     23  C   LIG    1       19.767 -19.609   3.710  0.00  0.00    +0.004 C 
ENDBRANCH  21  22
BRANCH  21  24
ATOM     24  C   LIG    1       22.836 -19.609   5.573  0.00  0.00    +0.007 C 
BRANCH  24  25
ATOM     25  C   LIG    1       22.665 -21.029   6.154  0.00  0.00    +0.000 C 
BRANCH  25  27
ATOM     26  C   LIG    1       25.034 -20.656   6.978  0.00  0.00    +0.004 C 
ATOM     27  C   LIG    1       23.788 -21.525   7.062  0.00  0.00    -0.003 C 
ENDBRANCH  25  27
ENDBRANCH  24  25
ENDBRANCH  21  24
ENDBRANCH  20  21
ENDBRANCH  19  20
ENDBRANCH  17  19
ENDBRANCH   1  17
BRANCH   1  28
ATOM     28  C   LIG    1       24.046 -13.650   4.165  0.00  0.00    +0.107 C 
ATOM     29  N   LIG    1       23.827 -12.521   4.169  0.00  0.00    -0.191 NA
ENDBRANCH   1  28
TORSDOF 12
ENDMDL
MODEL 7
REMARK VINA RESULT:       1.9      2.560      6.088
REMARK  Name = *****
REMARK                            x       y       z     vdW  Elec       q    Type
REMARK                         _______ _______ _______ _____ _____    ______ ____
ROOT
ATOM      1  C   LIG    1       24.887 -19.166   4.581  0.00  0.00    +0.144 C 
ATOM      2  C   LIG    1       26.153 -18.648   4.740  0.00  0.00    +0.014 C 
ENDROOT
BRANCH   2   3
ATOM      3  C   LIG    1       26.662 -17.352   4.178  0.00  0.00    -0.016 A 
ATOM      4  C   LIG    1       27.711 -16.636   4.755  0.00  0.00    +0.012 A 
ATOM      5  C   LIG    1       28.103 -15.387   4.272  0.00  0.00    +0.046 A 
ATOM      6  C   LIG    1       27.411 -14.778   3.233  0.00  0.00    +0.120 A 
ATOM      7  C   LIG    1       26.315 -15.435   2.684  0.00  0.00    +0.046 A 
ATOM      8  C   LIG    1       25.966 -16.718   3.130  0.00  0.00    +0.012 A 
BRANCH   6   9
ATOM      9  O   LIG    1       27.723 -13.563   2.687  0.00  0.00    -0.495 OA
ATOM     10  C   LIG    1       28.625 -12.763   3.447  0.00  0.00    +0.277 C 
ENDBRANCH   6   9
ENDBRANCH   2   3
BRANCH   2  11
ATOM     11  C   LIG    1       27.168 -19.519   5.488  0.00  0.00    -0.016 A 
ATOM     12  C   LIG    1       26.766 -20.684   6.162  0.00  0.00    +0.008 A 
ATOM     13  C   LIG    1       27.700 -21.480   6.840  0.00  0.00    +0.001 A 
ATOM     14  C   LIG    1       29.046 -21.124   6.860  0.00  0.00    +0.000 A 
ATOM     15  C   LIG    1       29.461 -19.966   6.205  0.00  0.00    +0.001 A 
ATOM     16  C   LIG    1       28.530 -19.168   5.522  0.00  0.00    +0.008 A 
ENDBRANCH   2  11
BRANCH   1  17
ATOM     17  C   LIG    1       23.721 -18.610   3.834  0.00  0.00    +0.350 C 
ATOM     18  O   LIG    1       23.449 -18.808   2.689  0.00  0.00    -0.244 OA
BRANCH  17  19
ATOM     19  O   LIG    1       23.023 -17.756   4.654  0.00  0.00    -0.460 OA
BRANCH  19  20
ATOM     20  C   LIG    1       22.512 -16.548   4.064  0.00  0.00    +0.236 C 
BRANCH  20  21
ATOM     21  C   LIG    1       23.286 -15.341   4.634  0.00  0.00    +0.026 C 
BRANCH  21  22
ATOM     22  C   LIG    1       22.710 -14.843   5.968  0.00  0.00    +0.003 C 
ATOM     23  C   LIG    1       21.557 -15.633   6.558  0.00  0.00    +0.004 C 
ENDBRANCH  21  22
BRANCH  21  24
ATOM     24  C   LIG    1       23.394 -14.192   3.587  0.00  0.00    +0.007 C 
BRANCH  24  25
ATOM     25  C   LIG    1       23.782 -12.788   4.096  0.00  0.00    +0.000 C 
BRANCH  25  27
ATOM     26  C   LIG    1       24.759 -12.266   1.814  0.00  0.00    +0.004 C 
ATOM     27  C   LIG    1       24.014 -11.724   3.024  0.00  0.00    -0.003 C 
ENDBRANCH  25  27
ENDBRANCH  24  25
ENDBRANCH  21  24
ENDBRANCH  20  21
ENDBRANCH  19  20
ENDBRANCH  17  19
ENDBRANCH   1  17
BRANCH   1  28
ATOM     28  C   LIG    1       24.706 -20.488   5.024  0.00  0.00    +0.107 C 
ATOM     29  N   LIG    1       24.558 -21.570   5.387  0.00  0.00    -0.191 NA
ENDBRANCH   1  28
TORSDOF 12
ENDMDL
MODEL 8
REMARK VINA RESULT:       2.1      2.495      7.600
REMARK  Name = *****
REMARK                            x       y       z     vdW  Elec       q    Type
REMARK                         _______ _______ _______ _____ _____    ______ ____
ROOT
ATOM      1  C   LIG    1       26.666 -18.488   4.399  0.00  0.00    +0.144 C 
ATOM      2  C   LIG    1       25.412 -18.098   3.987  0.00  0.00    +0.014 C 
ENDROOT
BRANCH   2   3
ATOM      3  C   LIG    1       25.012 -16.725   3.528  0.00  0.00    -0.016 A 
ATOM      4  C   LIG    1       25.756 -15.987   2.608  0.00  0.00    +0.012 A 
ATOM      5  C   LIG    1       25.418 -14.676   2.271  0.00  0.00    +0.046 A 
ATOM      6  C   LIG    1       24.359 -14.031   2.896  0.00  0.00    +0.120 A 
ATOM      7  C   LIG    1       23.642 -14.717   3.871  0.00  0.00    +0.046 A 
ATOM      8  C   LIG    1       23.945 -16.055   4.160  0.00  0.00    +0.012 A 
BRANCH   6   9
ATOM      9  O   LIG    1       23.947 -12.754   2.629  0.00  0.00    -0.495 OA
ATOM     10  C   LIG    1       24.827 -11.986   1.812  0.00  0.00    +0.277 C 
ENDBRANCH   6   9
ENDBRANCH   2   3
BRANCH   2  11
ATOM     11  C   LIG    1       24.294 -19.141   4.089  0.00  0.00    -0.016 A 
ATOM     12  C   LIG    1       24.330 -20.319   3.326  0.00  0.00    +0.008 A 
ATOM     13  C   LIG    1       23.307 -21.273   3.428  0.00  0.00    +0.001 A 
ATOM     14  C   LIG    1       22.232 -21.063   4.288  0.00  0.00    +0.000 A 
ATOM     15  C   LIG    1       22.175 -19.895   5.045  0.00  0.00    +0.001 A 
ATOM     16  C   LIG    1       23.198 -18.939   4.949  0.00  0.00    +0.008 A 
ENDBRANCH   2  11
BRANCH   1  17
ATOM     17  C   LIG    1       27.922 -17.689   4.504  0.00  0.00    +0.350 C 
ATOM     18  O   LIG    1       28.962 -18.055   4.964  0.00  0.00    -0.244 OA
BRANCH  17  19
ATOM     19  O   LIG    1       27.689 -16.414   4.049  0.00  0.00    -0.460 OA
BRANCH  19  20
ATOM     20  C   LIG    1       28.288 -15.333   4.784  0.00  0.00    +0.236 C 
BRANCH  20  21
ATOM     21  C   LIG    1       27.559 -14.019   4.433  0.00  0.00    +0.026 C 
BRANCH  21  22
ATOM     22  C   LIG    1       28.427 -13.065   3.598  0.00  0.00    +0.003 C 
ATOM     23  C   LIG    1       29.231 -12.025   4.354  0.00  0.00    +0.004 C 
ENDBRANCH  21  22
BRANCH  21  24
ATOM     24  C   LIG    1       27.001 -13.323   5.710  0.00  0.00    +0.007 C 
BRANCH  24  25
ATOM     25  C   LIG    1       25.470 -13.157   5.830  0.00  0.00    +0.000 C 
BRANCH  25  27
ATOM     26  C   LIG    1       23.673 -11.467   5.245  0.00  0.00    +0.004 C 
ATOM     27  C   LIG    1       24.960 -11.730   6.011  0.00  0.00    -0.003 C 
ENDBRANCH  25  27
ENDBRANCH  24  25
ENDBRANCH  21  24
ENDBRANCH  20  21
ENDBRANCH  19  20
ENDBRANCH  17  19
ENDBRANCH   1  17
BRANCH   1  28
ATOM     28  C   LIG    1       26.750 -19.767   4.977  0.00  0.00    +0.107 C 
ATOM     29  N   LIG    1       26.819 -20.814   5.450  0.00  0.00    -0.191 NA
ENDBRANCH   1  28
TORSDOF 12
ENDMDL
