MODEL 1
REMARK VINA RESULT:      -8.7      0.000      0.000
REMARK  Name = *****
REMARK                            x       y       z     vdW  Elec       q    Type
REMARK                         _______ _______ _______ _____ _____    ______ ____
ROOT
ATOM      1  C   LIG    1       24.297 -32.063   9.388  0.00  0.00    +0.107 C 
ENDROOT
BRANCH   1   2
ATOM      2  N   LIG    1       24.436 -31.499   8.023  0.00  0.00    -0.308 N 
ATOM      3  H   LIG    1       24.195 -30.524   7.877  0.00  0.00    +0.149 HD
ATOM      4  C   LIG    1       25.117 -32.157   7.013  0.00  0.00    +0.234 C 
ATOM      5  O   LIG    1       25.755 -33.191   7.199  0.00  0.00    -0.274 OA
BRANCH   4   6
ATOM      6  C   LIG    1       25.116 -31.422   5.653  0.00  0.00    +0.168 C 
BRANCH   6   7
ATOM      7  N   LIG    1       25.371 -29.997   5.895  0.00  0.00    -0.298 N 
ATOM      8  H   LIG    1       26.266 -29.702   6.271  0.00  0.00    +0.150 HD
ATOM      9  C   LIG    1       24.388 -29.035   5.740  0.00  0.00    +0.263 C 
ATOM     10  O   LIG    1       23.254 -29.281   5.398  0.00  0.00    -0.269 OA
BRANCH   9  11
ATOM     11  C   LIG    1       24.812 -27.637   6.087  0.00  0.00    +0.126 A 
ATOM     12  N   LIG    1       23.853 -26.674   6.095  0.00  0.00    -0.242 NA
ATOM     13  C   LIG    1       24.242 -25.421   6.406  0.00  0.00    +0.072 A 
ATOM     14  C   LIG    1       25.599 -25.072   6.592  0.00  0.00    +0.000 A 
ATOM     15  C   LIG    1       25.966 -23.743   6.864  0.00  0.00    +0.010 A 
ATOM     16  C   LIG    1       24.989 -22.766   7.034  0.00  0.00    +0.001 A 
ATOM     17  C   LIG    1       23.648 -23.112   6.915  0.00  0.00    +0.002 A 
ATOM     18  C   LIG    1       26.559 -26.089   6.537  0.00  0.00    +0.012 A 
ATOM     19  C   LIG    1       23.290 -24.425   6.585  0.00  0.00    +0.028 A 
ATOM     20  C   LIG    1       26.155 -27.402   6.335  0.00  0.00    +0.034 A 
ENDBRANCH   9  11
ENDBRANCH   6   7
BRANCH   6  21
ATOM     21  C   LIG    1       26.182 -31.979   4.708  0.00  0.00    +0.127 C 
BRANCH  21  22
ATOM     22  C   LIG    1       25.565 -32.793   3.594  0.00  0.00    +0.213 C 
ATOM     23  O   LIG    1       26.165 -33.183   2.602  0.00  0.00    -0.276 OA
ATOM     24  N   LIG    1       24.251 -33.107   3.782  0.00  0.00    -0.329 N 
ATOM     25  H   LIG    1       23.789 -33.641   3.056  0.00  0.00    +0.145 HD
ATOM     26  H   LIG    1       23.728 -32.859   4.609  0.00  0.00    +0.145 HD
ENDBRANCH  21  22
ENDBRANCH   6  21
ENDBRANCH   4   6
ENDBRANCH   1   2
BRANCH   1  27
ATOM     27  C   LIG    1       22.961 -31.576  10.040  0.00  0.00    +0.149 C 
BRANCH  27  28
ATOM     28  O   LIG    1       22.543 -32.667  10.887  0.00  0.00    -0.389 OA
ATOM     29  H   LIG    1       22.461 -33.461  10.332  0.00  0.00    +0.210 HD
ENDBRANCH  27  28
BRANCH  27  30
ATOM     30  C   LIG    1       23.050 -30.272  10.911  0.00  0.00    +0.118 C 
BRANCH  30  32
ATOM     31  C   LIG    1       21.413 -30.092  12.820  0.00  0.00    +0.143 C 
ATOM     32  N   LIG    1       22.801 -30.453  12.390  0.00  0.00    -0.289 NA
ATOM     33  C   LIG    1       23.681 -29.597  13.229  0.00  0.00    +0.089 C 
ATOM     34  C   LIG    1       23.553 -28.087  12.936  0.00  0.00    +0.006 C 
ATOM     35  C   LIG    1       22.077 -27.595  12.986  0.00  0.00    -0.005 C 
ATOM     36  C   LIG    1       21.657 -27.081  14.372  0.00  0.00    +0.004 C 
ATOM     37  C   LIG    1       22.663 -26.086  14.931  0.00  0.00    +0.000 C 
ATOM     38  C   LIG    1       24.003 -26.770  15.126  0.00  0.00    +0.000 C 
ATOM     39  C   LIG    1       24.549 -27.276  13.798  0.00  0.00    +0.005 C 
ATOM     40  C   LIG    1       21.045 -28.640  12.467  0.00  0.00    +0.032 C 
BRANCH  31  43
ATOM     41  N   LIG    1       19.503 -30.777  11.410  0.00  0.00    -0.309 N 
ATOM     42  H   LIG    1       19.429 -29.768  11.304  0.00  0.00    +0.149 HD
ATOM     43  C   LIG    1       20.348 -31.165  12.444  0.00  0.00    +0.231 C 
ATOM     44  O   LIG    1       20.373 -32.302  12.907  0.00  0.00    -0.274 OA
BRANCH  41  46
ATOM     45  C   LIG    1       19.178 -32.924  10.204  0.00  0.00    +0.031 C 
ATOM     46  C   LIG    1       18.518 -31.627  10.693  0.00  0.00    +0.026 C 
ATOM     47  C   LIG    1       17.367 -31.969  11.663  0.00  0.00    +0.031 C 
ATOM     48  C   LIG    1       17.863 -30.927   9.485  0.00  0.00    +0.031 C 
ENDBRANCH  41  46
ENDBRANCH  31  43
ENDBRANCH  30  32
ENDBRANCH  27  30
ENDBRANCH   1  27
BRANCH   1  49
ATOM     49  C   LIG    1       25.608 -31.906  10.190  0.00  0.00    +0.060 C 
BRANCH  49  50
ATOM     50  C   LIG    1       26.106 -30.498  10.438  0.00  0.00    -0.045 A 
ATOM     51  C   LIG    1       26.666 -30.129  11.668  0.00  0.00    +0.003 A 
ATOM     52  C   LIG    1       27.096 -28.816  11.888  0.00  0.00    +0.000 A 
ATOM     53  C   LIG    1       27.015 -27.868  10.871  0.00  0.00    +0.000 A 
ATOM     54  C   LIG    1       26.499 -28.231   9.631  0.00  0.00    +0.000 A 
ATOM     55  C   LIG    1       26.041 -29.534   9.417  0.00  0.00    +0.003 A 
ENDBRANCH  49  50
ENDBRANCH   1  49
TORSDOF 14
ENDMDL
MODEL 2
REMARK VINA RESULT:      -8.3      1.572      4.180
REMARK  Name = *****
REMARK                            x       y       z     vdW  Elec       q    Type
REMARK                         _______ _______ _______ _____ _____    ______ ____
ROOT
ATOM      1  C   LIG    1       23.277 -30.634  10.351  0.00  0.00    +0.107 C 
ENDROOT
BRANCH   1   2
ATOM      2  N   LIG    1       23.628 -30.177   8.985  0.00  0.00    -0.308 N 
ATOM      3  H   LIG    1       23.503 -29.195   8.757  0.00  0.00    +0.149 HD
ATOM      4  C   LIG    1       24.355 -30.959   8.103  0.00  0.00    +0.234 C 
ATOM      5  O   LIG    1       24.862 -32.032   8.423  0.00  0.00    -0.274 OA
BRANCH   4   6
ATOM      6  C   LIG    1       24.586 -30.319   6.715  0.00  0.00    +0.168 C 
BRANCH   6   7
ATOM      7  N   LIG    1       24.784 -28.876   6.896  0.00  0.00    -0.298 N 
ATOM      8  H   LIG    1       25.098 -28.520   7.793  0.00  0.00    +0.150 HD
ATOM      9  C   LIG    1       24.445 -27.956   5.919  0.00  0.00    +0.263 C 
ATOM     10  O   LIG    1       23.965 -28.256   4.851  0.00  0.00    -0.269 OA
BRANCH   9  11
ATOM     11  C   LIG    1       24.664 -26.521   6.301  0.00  0.00    +0.126 A 
ATOM     12  N   LIG    1       23.594 -25.686   6.243  0.00  0.00    -0.242 NA
ATOM     13  C   LIG    1       23.798 -24.398   6.586  0.00  0.00    +0.072 A 
ATOM     14  C   LIG    1       25.084 -23.883   6.870  0.00  0.00    +0.000 A 
ATOM     15  C   LIG    1       25.259 -22.522   7.172  0.00  0.00    +0.010 A 
ATOM     16  C   LIG    1       24.158 -21.679   7.275  0.00  0.00    +0.001 A 
ATOM     17  C   LIG    1       22.882 -22.188   7.059  0.00  0.00    +0.002 A 
ATOM     18  C   LIG    1       26.165 -24.771   6.881  0.00  0.00    +0.012 A 
ATOM     19  C   LIG    1       22.717 -23.532   6.700  0.00  0.00    +0.028 A 
ATOM     20  C   LIG    1       25.946 -26.122   6.646  0.00  0.00    +0.034 A 
ENDBRANCH   9  11
ENDBRANCH   6   7
BRANCH   6  21
ATOM     21  C   LIG    1       25.803 -30.919   6.011  0.00  0.00    +0.127 C 
BRANCH  21  22
ATOM     22  C   LIG    1       25.396 -31.790   4.845  0.00  0.00    +0.213 C 
ATOM     23  O   LIG    1       26.105 -32.036   3.878  0.00  0.00    -0.276 OA
ATOM     24  N   LIG    1       24.150 -32.335   4.952  0.00  0.00    -0.329 N 
ATOM     25  H   LIG    1       23.827 -32.916   4.188  0.00  0.00    +0.145 HD
ATOM     26  H   LIG    1       23.550 -32.210   5.755  0.00  0.00    +0.145 HD
ENDBRANCH  21  22
ENDBRANCH   6  21
ENDBRANCH   4   6
ENDBRANCH   1   2
BRANCH   1  27
ATOM     27  C   LIG    1       21.827 -31.222  10.367  0.00  0.00    +0.149 C 
BRANCH  27  28
ATOM     28  O   LIG    1       21.899 -32.408   9.549  0.00  0.00    -0.389 OA
ATOM     29  H   LIG    1       21.220 -33.029   9.865  0.00  0.00    +0.210 HD
ENDBRANCH  27  28
BRANCH  27  30
ATOM     30  C   LIG    1       21.255 -31.619  11.775  0.00  0.00    +0.118 C 
BRANCH  30  32
ATOM     31  C   LIG    1       20.028 -30.716  13.784  0.00  0.00    +0.143 C 
ATOM     32  N   LIG    1       20.125 -30.759  12.290  0.00  0.00    -0.289 NA
ATOM     33  C   LIG    1       18.789 -31.241  11.848  0.00  0.00    +0.089 C 
ATOM     34  C   LIG    1       18.474 -32.693  12.270  0.00  0.00    +0.006 C 
ATOM     35  C   LIG    1       18.680 -32.926  13.794  0.00  0.00    -0.005 C 
ATOM     36  C   LIG    1       17.403 -32.702  14.619  0.00  0.00    +0.004 C 
ATOM     37  C   LIG    1       16.216 -33.450  14.030  0.00  0.00    +0.000 C 
ATOM     38  C   LIG    1       15.916 -32.918  12.640  0.00  0.00    +0.000 C 
ATOM     39  C   LIG    1       17.103 -33.139  11.712  0.00  0.00    +0.005 C 
ATOM     40  C   LIG    1       19.861 -32.114  14.405  0.00  0.00    +0.032 C 
BRANCH  31  43
ATOM     41  N   LIG    1       21.209 -28.547  13.874  0.00  0.00    -0.309 N 
ATOM     42  H   LIG    1       20.878 -28.512  12.913  0.00  0.00    +0.149 HD
ATOM     43  C   LIG    1       21.106 -29.809  14.449  0.00  0.00    +0.231 C 
ATOM     44  O   LIG    1       21.681 -30.129  15.485  0.00  0.00    -0.274 OA
BRANCH  41  46
ATOM     45  C   LIG    1       21.217 -26.661  15.489  0.00  0.00    +0.031 C 
ATOM     46  C   LIG    1       21.992 -27.393  14.383  0.00  0.00    +0.026 C 
ATOM     47  C   LIG    1       23.328 -27.918  14.952  0.00  0.00    +0.031 C 
ATOM     48  C   LIG    1       22.366 -26.370  13.292  0.00  0.00    +0.031 C 
ENDBRANCH  41  46
ENDBRANCH  31  43
ENDBRANCH  30  32
ENDBRANCH  27  30
ENDBRANCH   1  27
BRANCH   1  49
ATOM     49  C   LIG    1       23.652 -29.571  11.408  0.00  0.00    +0.060 C 
BRANCH  49  50
ATOM     50  C   LIG    1       25.125 -29.293  11.620  0.00  0.00    -0.045 A 
ATOM     51  C   LIG    1       26.100 -30.246  11.298  0.00  0.00    +0.003 A 
ATOM     52  C   LIG    1       27.455 -29.981  11.526  0.00  0.00    +0.000 A 
ATOM     53  C   LIG    1       27.857 -28.749  12.035  0.00  0.00    +0.000 A 
ATOM     54  C   LIG    1       26.902 -27.778  12.321  0.00  0.00    +0.000 A 
ATOM     55  C   LIG    1       25.546 -28.050  12.123  0.00  0.00    +0.003 A 
ENDBRANCH  49  50
ENDBRANCH   1  49
TORSDOF 14
ENDMDL
MODEL 3
REMARK VINA RESULT:      -8.1      1.530      4.126
REMARK  Name = *****
REMARK                            x       y       z     vdW  Elec       q    Type
REMARK                         _______ _______ _______ _____ _____    ______ ____
ROOT
ATOM      1  C   LIG    1       24.694 -30.971  10.898  0.00  0.00    +0.107 C 
ENDROOT
BRANCH   1   2
ATOM      2  N   LIG    1       24.535 -30.535   9.489  0.00  0.00    -0.308 N 
ATOM      3  H   LIG    1       24.051 -29.661   9.307  0.00  0.00    +0.149 HD
ATOM      4  C   LIG    1       25.233 -31.120   8.447  0.00  0.00    +0.234 C 
ATOM      5  O   LIG    1       26.118 -31.955   8.620  0.00  0.00    -0.274 OA
BRANCH   4   6
ATOM      6  C   LIG    1       24.900 -30.549   7.049  0.00  0.00    +0.168 C 
BRANCH   6   7
ATOM      7  N   LIG    1       25.080 -29.093   7.087  0.00  0.00    -0.298 N 
ATOM      8  H   LIG    1       25.488 -28.657   7.908  0.00  0.00    +0.150 HD
ATOM      9  C   LIG    1       24.605 -28.264   6.086  0.00  0.00    +0.263 C 
ATOM     10  O   LIG    1       24.009 -28.660   5.110  0.00  0.00    -0.269 OA
BRANCH   9  11
ATOM     11  C   LIG    1       24.830 -26.798   6.320  0.00  0.00    +0.126 A 
ATOM     12  N   LIG    1       23.739 -25.989   6.327  0.00  0.00    -0.242 NA
ATOM     13  C   LIG    1       23.948 -24.674   6.536  0.00  0.00    +0.072 A 
ATOM     14  C   LIG    1       25.245 -24.116   6.618  0.00  0.00    +0.000 A 
ATOM     15  C   LIG    1       25.420 -22.732   6.785  0.00  0.00    +0.010 A 
ATOM     16  C   LIG    1       24.316 -21.900   6.953  0.00  0.00    +0.001 A 
ATOM     17  C   LIG    1       23.038 -22.447   6.936  0.00  0.00    +0.002 A 
ATOM     18  C   LIG    1       26.343 -24.982   6.568  0.00  0.00    +0.012 A 
ATOM     19  C   LIG    1       22.867 -23.819   6.711  0.00  0.00    +0.028 A 
ATOM     20  C   LIG    1       26.133 -26.351   6.472  0.00  0.00    +0.034 A 
ENDBRANCH   9  11
ENDBRANCH   6   7
BRANCH   6  21
ATOM     21  C   LIG    1       25.795 -31.149   5.964  0.00  0.00    +0.127 C 
BRANCH  21  22
ATOM     22  C   LIG    1       24.998 -31.967   4.976  0.00  0.00    +0.213 C 
ATOM     23  O   LIG    1       25.410 -32.338   3.885  0.00  0.00    -0.276 OA
ATOM     24  N   LIG    1       23.747 -32.310   5.402  0.00  0.00    -0.329 N 
ATOM     25  H   LIG    1       23.169 -32.848   4.768  0.00  0.00    +0.145 HD
ATOM     26  H   LIG    1       23.383 -32.078   6.314  0.00  0.00    +0.145 HD
ENDBRANCH  21  22
ENDBRANCH   6  21
ENDBRANCH   4   6
ENDBRANCH   1   2
BRANCH   1  27
ATOM     27  C   LIG    1       23.460 -30.519  11.746  0.00  0.00    +0.149 C 
BRANCH  27  28
ATOM     28  O   LIG    1       23.125 -29.208  11.244  0.00  0.00    -0.389 OA
ATOM     29  H   LIG    1       22.822 -28.670  11.995  0.00  0.00    +0.210 HD
ENDBRANCH  27  28
BRANCH  27  30
ATOM     30  C   LIG    1       22.184 -31.430  11.653  0.00  0.00    +0.118 C 
BRANCH  30  32
ATOM     31  C   LIG    1       20.003 -30.737  12.711  0.00  0.00    +0.143 C 
ATOM     32  N   LIG    1       20.869 -30.703  11.490  0.00  0.00    -0.289 NA
ATOM     33  C   LIG    1       20.019 -31.288  10.419  0.00  0.00    +0.089 C 
ATOM     34  C   LIG    1       19.681 -32.780  10.629  0.00  0.00    +0.006 C 
ATOM     35  C   LIG    1       19.084 -33.061  12.037  0.00  0.00    -0.005 C 
ATOM     36  C   LIG    1       17.549 -32.994  12.068  0.00  0.00    +0.004 C 
ATOM     37  C   LIG    1       16.928 -33.822  10.952  0.00  0.00    +0.000 C 
ATOM     38  C   LIG    1       17.346 -33.259   9.606  0.00  0.00    +0.000 C 
ATOM     39  C   LIG    1       18.857 -33.327   9.440  0.00  0.00    +0.005 C 
ATOM     40  C   LIG    1       19.681 -32.170  13.167  0.00  0.00    +0.032 C 
BRANCH  31  43
ATOM     41  N   LIG    1       21.074 -28.604  13.353  0.00  0.00    -0.309 N 
ATOM     42  H   LIG    1       21.462 -28.706  12.418  0.00  0.00    +0.149 HD
ATOM     43  C   LIG    1       20.475 -29.764  13.833  0.00  0.00    +0.231 C 
ATOM     44  O   LIG    1       20.187 -29.939  15.013  0.00  0.00    -0.274 OA
BRANCH  41  46
ATOM     45  C   LIG    1       22.266 -26.427  13.274  0.00  0.00    +0.031 C 
ATOM     46  C   LIG    1       21.456 -27.404  14.139  0.00  0.00    +0.026 C 
ATOM     47  C   LIG    1       20.168 -26.710  14.632  0.00  0.00    +0.031 C 
ATOM     48  C   LIG    1       22.276 -27.729  15.404  0.00  0.00    +0.031 C 
ENDBRANCH  41  46
ENDBRANCH  31  43
ENDBRANCH  30  32
ENDBRANCH  27  30
ENDBRANCH   1  27
BRANCH   1  49
ATOM     49  C   LIG    1       26.110 -30.645  11.425  0.00  0.00    +0.060 C 
BRANCH  49  50
ATOM     50  C   LIG    1       26.293 -29.330  12.154  0.00  0.00    -0.045 A 
ATOM     51  C   LIG    1       26.125 -29.236  13.541  0.00  0.00    +0.003 A 
ATOM     52  C   LIG    1       26.273 -28.007  14.193  0.00  0.00    +0.000 A 
ATOM     53  C   LIG    1       26.632 -26.868  13.478  0.00  0.00    +0.000 A 
ATOM     54  C   LIG    1       26.842 -26.954  12.105  0.00  0.00    +0.000 A 
ATOM     55  C   LIG    1       26.666 -28.174  11.446  0.00  0.00    +0.003 A 
ENDBRANCH  49  50
ENDBRANCH   1  49
TORSDOF 14
ENDMDL
MODEL 4
REMARK VINA RESULT:      -7.4      2.234      7.801
REMARK  Name = *****
REMARK                            x       y       z     vdW  Elec       q    Type
REMARK                         _______ _______ _______ _____ _____    ______ ____
ROOT
ATOM      1  C   LIG    1       25.507 -29.613  10.677  0.00  0.00    +0.107 C 
ENDROOT
BRANCH   1   2
ATOM      2  N   LIG    1       24.287 -30.345  11.096  0.00  0.00    -0.308 N 
ATOM      3  H   LIG    1       23.446 -30.240  10.538  0.00  0.00    +0.149 HD
ATOM      4  C   LIG    1       24.315 -31.353  12.045  0.00  0.00    +0.234 C 
ATOM      5  O   LIG    1       25.358 -31.796  12.519  0.00  0.00    -0.274 OA
BRANCH   4   6
ATOM      6  C   LIG    1       22.934 -31.967  12.371  0.00  0.00    +0.168 C 
BRANCH   6   7
ATOM      7  N   LIG    1       21.989 -30.874  12.629  0.00  0.00    -0.298 N 
ATOM      8  H   LIG    1       21.478 -30.458  11.857  0.00  0.00    +0.150 HD
ATOM      9  C   LIG    1       21.848 -30.299  13.880  0.00  0.00    +0.263 C 
ATOM     10  O   LIG    1       22.481 -30.641  14.852  0.00  0.00    -0.269 OA
BRANCH   9  11
ATOM     11  C   LIG    1       20.877 -29.156  13.943  0.00  0.00    +0.126 A 
ATOM     12  N   LIG    1       19.569 -29.455  14.159  0.00  0.00    -0.242 NA
ATOM     13  C   LIG    1       18.703 -28.423  14.213  0.00  0.00    +0.072 A 
ATOM     14  C   LIG    1       19.088 -27.093  13.932  0.00  0.00    +0.000 A 
ATOM     15  C   LIG    1       18.142 -26.054  13.949  0.00  0.00    +0.010 A 
ATOM     16  C   LIG    1       16.826 -26.310  14.323  0.00  0.00    +0.001 A 
ATOM     17  C   LIG    1       16.450 -27.604  14.662  0.00  0.00    +0.002 A 
ATOM     18  C   LIG    1       20.440 -26.834  13.677  0.00  0.00    +0.012 A 
ATOM     19  C   LIG    1       17.382 -28.647  14.586  0.00  0.00    +0.028 A 
ATOM     20  C   LIG    1       21.360 -27.873  13.736  0.00  0.00    +0.034 A 
ENDBRANCH   9  11
ENDBRANCH   6   7
BRANCH   6  21
ATOM     21  C   LIG    1       22.415 -32.834  11.224  0.00  0.00    +0.127 C 
BRANCH  21  22
ATOM     22  C   LIG    1       21.380 -32.104  10.400  0.00  0.00    +0.213 C 
ATOM     23  O   LIG    1       21.560 -31.023   9.856  0.00  0.00    -0.276 OA
ATOM     24  N   LIG    1       20.192 -32.762  10.268  0.00  0.00    -0.329 N 
ATOM     25  H   LIG    1       19.462 -32.306   9.735  0.00  0.00    +0.145 HD
ATOM     26  H   LIG    1       20.015 -33.680  10.649  0.00  0.00    +0.145 HD
ENDBRANCH  21  22
ENDBRANCH   6  21
ENDBRANCH   4   6
ENDBRANCH   1   2
BRANCH   1  27
ATOM     27  C   LIG    1       26.214 -30.370   9.505  0.00  0.00    +0.149 C 
BRANCH  27  28
ATOM     28  O   LIG    1       25.490 -31.611   9.374  0.00  0.00    -0.389 OA
ATOM     29  H   LIG    1       24.543 -31.398   9.320  0.00  0.00    +0.210 HD
ENDBRANCH  27  28
BRANCH  27  30
ATOM     30  C   LIG    1       26.217 -29.643   8.112  0.00  0.00    +0.118 C 
BRANCH  30  32
ATOM     31  C   LIG    1       24.582 -29.519   6.196  0.00  0.00    +0.143 C 
ATOM     32  N   LIG    1       24.871 -29.162   7.621  0.00  0.00    -0.289 NA
ATOM     33  C   LIG    1       24.742 -27.680   7.664  0.00  0.00    +0.089 C 
ATOM     34  C   LIG    1       25.811 -26.932   6.839  0.00  0.00    +0.006 C 
ATOM     35  C   LIG    1       25.900 -27.448   5.374  0.00  0.00    -0.005 C 
ATOM     36  C   LIG    1       25.002 -26.666   4.402  0.00  0.00    +0.004 C 
ATOM     37  C   LIG    1       25.193 -25.163   4.546  0.00  0.00    +0.000 C 
ATOM     38  C   LIG    1       24.782 -24.728   5.940  0.00  0.00    +0.000 C 
ATOM     39  C   LIG    1       25.650 -25.402   6.993  0.00  0.00    +0.005 C 
ATOM     40  C   LIG    1       25.645 -28.977   5.224  0.00  0.00    +0.032 C 
BRANCH  31  43
ATOM     41  N   LIG    1       24.861 -31.635   4.951  0.00  0.00    -0.309 N 
ATOM     42  H   LIG    1       25.199 -30.985   4.245  0.00  0.00    +0.149 HD
ATOM     43  C   LIG    1       24.190 -31.014   5.999  0.00  0.00    +0.231 C 
ATOM     44  O   LIG    1       23.485 -31.617   6.803  0.00  0.00    -0.274 OA
BRANCH  41  46
ATOM     45  C   LIG    1       25.426 -33.316   3.213  0.00  0.00    +0.031 C 
ATOM     46  C   LIG    1       24.861 -33.083   4.621  0.00  0.00    +0.026 C 
ATOM     47  C   LIG    1       25.736 -33.821   5.656  0.00  0.00    +0.031 C 
ATOM     48  C   LIG    1       23.466 -33.734   4.701  0.00  0.00    +0.031 C 
ENDBRANCH  41  46
ENDBRANCH  31  43
ENDBRANCH  30  32
ENDBRANCH  27  30
ENDBRANCH   1  27
BRANCH   1  49
ATOM     49  C   LIG    1       26.353 -29.194  11.900  0.00  0.00    +0.060 C 
BRANCH  49  50
ATOM     50  C   LIG    1       26.056 -27.844  12.520  0.00  0.00    -0.045 A 
ATOM     51  C   LIG    1       27.023 -26.832  12.558  0.00  0.00    +0.003 A 
ATOM     52  C   LIG    1       26.739 -25.600  13.159  0.00  0.00    +0.000 A 
ATOM     53  C   LIG    1       25.475 -25.348  13.688  0.00  0.00    +0.000 A 
ATOM     54  C   LIG    1       24.492 -26.331  13.620  0.00  0.00    +0.000 A 
ATOM     55  C   LIG    1       24.782 -27.572  13.048  0.00  0.00    +0.003 A 
ENDBRANCH  49  50
ENDBRANCH   1  49
TORSDOF 14
ENDMDL
MODEL 5
REMARK VINA RESULT:      -7.2      2.660      8.337
REMARK  Name = *****
REMARK                            x       y       z     vdW  Elec       q    Type
REMARK                         _______ _______ _______ _____ _____    ______ ____
ROOT
ATOM      1  C   LIG    1       26.093 -27.832  11.482  0.00  0.00    +0.107 C 
ENDROOT
BRANCH   1   2
ATOM      2  N   LIG    1       25.064 -28.799  11.937  0.00  0.00    -0.308 N 
ATOM      3  H   LIG    1       24.124 -28.715  11.561  0.00  0.00    +0.149 HD
ATOM      4  C   LIG    1       25.384 -29.951  12.635  0.00  0.00    +0.234 C 
ATOM      5  O   LIG    1       26.541 -30.318  12.824  0.00  0.00    -0.274 OA
BRANCH   4   6
ATOM      6  C   LIG    1       24.167 -30.809  13.052  0.00  0.00    +0.168 C 
BRANCH   6   7
ATOM      7  N   LIG    1       22.992 -29.935  13.144  0.00  0.00    -0.298 N 
ATOM      8  H   LIG    1       22.432 -29.754  12.317  0.00  0.00    +0.150 HD
ATOM      9  C   LIG    1       22.677 -29.242  14.300  0.00  0.00    +0.263 C 
ATOM     10  O   LIG    1       23.331 -29.296  15.316  0.00  0.00    -0.269 OA
BRANCH   9  11
ATOM     11  C   LIG    1       21.473 -28.352  14.194  0.00  0.00    +0.126 A 
ATOM     12  N   LIG    1       20.344 -28.744  14.840  0.00  0.00    -0.242 NA
ATOM     13  C   LIG    1       19.266 -27.940  14.739  0.00  0.00    +0.072 A 
ATOM     14  C   LIG    1       19.244 -26.802  13.899  0.00  0.00    +0.000 A 
ATOM     15  C   LIG    1       18.082 -26.021  13.783  0.00  0.00    +0.010 A 
ATOM     16  C   LIG    1       16.961 -26.310  14.556  0.00  0.00    +0.001 A 
ATOM     17  C   LIG    1       16.993 -27.390  15.431  0.00  0.00    +0.002 A 
ATOM     18  C   LIG    1       20.418 -26.456  13.222  0.00  0.00    +0.012 A 
ATOM     19  C   LIG    1       18.133 -28.201  15.500  0.00  0.00    +0.028 A 
ATOM     20  C   LIG    1       21.568 -27.210  13.413  0.00  0.00    +0.034 A 
ENDBRANCH   9  11
ENDBRANCH   6   7
BRANCH   6  21
ATOM     21  C   LIG    1       23.895 -31.930  12.047  0.00  0.00    +0.127 C 
BRANCH  21  22
ATOM     22  C   LIG    1       22.780 -31.563  11.096  0.00  0.00    +0.213 C 
ATOM     23  O   LIG    1       22.748 -30.543  10.421  0.00  0.00    -0.276 OA
ATOM     24  N   LIG    1       21.783 -32.490  11.006  0.00  0.00    -0.329 N 
ATOM     25  H   LIG    1       21.006 -32.282  10.390  0.00  0.00    +0.145 HD
ATOM     26  H   LIG    1       21.791 -33.372  11.497  0.00  0.00    +0.145 HD
ENDBRANCH  21  22
ENDBRANCH   6  21
ENDBRANCH   4   6
ENDBRANCH   1   2
BRANCH   1  27
ATOM     27  C   LIG    1       26.668 -28.269  10.095  0.00  0.00    +0.149 C 
BRANCH  27  28
ATOM     28  O   LIG    1       27.637 -29.294  10.401  0.00  0.00    -0.389 OA
ATOM     29  H   LIG    1       28.522 -28.915  10.270  0.00  0.00    +0.210 HD
ENDBRANCH  27  28
BRANCH  27  30
ATOM     30  C   LIG    1       25.632 -28.851   9.067  0.00  0.00    +0.118 C 
BRANCH  30  32
ATOM     31  C   LIG    1       25.482 -29.086   6.561  0.00  0.00    +0.143 C 
ATOM     32  N   LIG    1       26.221 -29.451   7.811  0.00  0.00    -0.289 NA
ATOM     33  C   LIG    1       26.208 -30.938   7.826  0.00  0.00    +0.089 C 
ATOM     34  C   LIG    1       24.802 -31.553   7.998  0.00  0.00    +0.006 C 
ATOM     35  C   LIG    1       23.778 -30.991   6.970  0.00  0.00    -0.005 C 
ATOM     36  C   LIG    1       23.686 -31.832   5.687  0.00  0.00    +0.004 C 
ATOM     37  C   LIG    1       23.510 -33.311   5.996  0.00  0.00    +0.000 C 
ATOM     38  C   LIG    1       24.724 -33.824   6.747  0.00  0.00    +0.000 C 
ATOM     39  C   LIG    1       24.884 -33.095   8.074  0.00  0.00    +0.005 C 
ATOM     40  C   LIG    1       23.999 -29.491   6.612  0.00  0.00    +0.032 C 
BRANCH  31  43
ATOM     41  N   LIG    1       24.722 -26.747   6.321  0.00  0.00    -0.309 N 
ATOM     42  H   LIG    1       23.818 -27.203   6.415  0.00  0.00    +0.149 HD
ATOM     43  C   LIG    1       25.766 -27.632   6.076  0.00  0.00    +0.231 C 
ATOM     44  O   LIG    1       26.871 -27.281   5.673  0.00  0.00    -0.274 OA
BRANCH  41  46
ATOM     45  C   LIG    1       24.996 -24.893   4.692  0.00  0.00    +0.031 C 
ATOM     46  C   LIG    1       24.744 -25.271   6.158  0.00  0.00    +0.026 C 
ATOM     47  C   LIG    1       23.378 -24.708   6.608  0.00  0.00    +0.031 C 
ATOM     48  C   LIG    1       25.803 -24.569   7.032  0.00  0.00    +0.031 C 
ENDBRANCH  41  46
ENDBRANCH  31  43
ENDBRANCH  30  32
ENDBRANCH  27  30
ENDBRANCH   1  27
BRANCH   1  49
ATOM     49  C   LIG    1       27.085 -27.499  12.619  0.00  0.00    +0.060 C 
BRANCH  49  50
ATOM     50  C   LIG    1       26.817 -26.248  13.430  0.00  0.00    -0.045 A 
ATOM     51  C   LIG    1       25.522 -25.736  13.572  0.00  0.00    +0.003 A 
ATOM     52  C   LIG    1       25.297 -24.564  14.304  0.00  0.00    +0.000 A 
ATOM     53  C   LIG    1       26.354 -23.915  14.938  0.00  0.00    +0.000 A 
ATOM     54  C   LIG    1       27.641 -24.436  14.839  0.00  0.00    +0.000 A 
ATOM     55  C   LIG    1       27.873 -25.589  14.085  0.00  0.00    +0.003 A 
ENDBRANCH  49  50
ENDBRANCH   1  49
TORSDOF 14
ENDMDL
MODEL 6
REMARK VINA RESULT:      -7.0      2.269      5.186
REMARK  Name = *****
REMARK                            x       y       z     vdW  Elec       q    Type
REMARK                         _______ _______ _______ _____ _____    ______ ____
ROOT
ATOM      1  C   LIG    1       23.929 -30.551  10.618  0.00  0.00    +0.107 C 
ENDROOT
BRANCH   1   2
ATOM      2  N   LIG    1       24.183 -30.252   9.188  0.00  0.00    -0.308 N 
ATOM      3  H   LIG    1       24.268 -29.281   8.906  0.00  0.00    +0.149 HD
ATOM      4  C   LIG    1       24.566 -31.227   8.282  0.00  0.00    +0.234 C 
ATOM      5  O   LIG    1       24.839 -32.378   8.614  0.00  0.00    -0.274 OA
BRANCH   4   6
ATOM      6  C   LIG    1       24.746 -30.722   6.832  0.00  0.00    +0.168 C 
BRANCH   6   7
ATOM      7  N   LIG    1       24.999 -29.277   6.871  0.00  0.00    -0.298 N 
ATOM      8  H   LIG    1       25.591 -28.889   7.599  0.00  0.00    +0.150 HD
ATOM      9  C   LIG    1       24.364 -28.392   6.017  0.00  0.00    +0.263 C 
ATOM     10  O   LIG    1       23.558 -28.728   5.180  0.00  0.00    -0.269 OA
BRANCH   9  11
ATOM     11  C   LIG    1       24.702 -26.947   6.240  0.00  0.00    +0.126 A 
ATOM     12  N   LIG    1       23.673 -26.060   6.275  0.00  0.00    -0.242 NA
ATOM     13  C   LIG    1       23.984 -24.763   6.473  0.00  0.00    +0.072 A 
ATOM     14  C   LIG    1       25.320 -24.301   6.515  0.00  0.00    +0.000 A 
ATOM     15  C   LIG    1       25.600 -22.933   6.672  0.00  0.00    +0.010 A 
ATOM     16  C   LIG    1       24.566 -22.023   6.869  0.00  0.00    +0.001 A 
ATOM     17  C   LIG    1       23.251 -22.475   6.891  0.00  0.00    +0.002 A 
ATOM     18  C   LIG    1       26.350 -25.245   6.437  0.00  0.00    +0.012 A 
ATOM     19  C   LIG    1       22.974 -23.831   6.676  0.00  0.00    +0.028 A 
ATOM     20  C   LIG    1       26.038 -26.596   6.352  0.00  0.00    +0.034 A 
ENDBRANCH   9  11
ENDBRANCH   6   7
BRANCH   6  21
ATOM     21  C   LIG    1       25.906 -31.426   6.127  0.00  0.00    +0.127 C 
BRANCH  21  22
ATOM     22  C   LIG    1       25.412 -32.395   5.078  0.00  0.00    +0.213 C 
ATOM     23  O   LIG    1       24.955 -33.505   5.315  0.00  0.00    -0.276 OA
ATOM     24  N   LIG    1       25.478 -31.927   3.798  0.00  0.00    -0.329 N 
ATOM     25  H   LIG    1       25.171 -32.546   3.058  0.00  0.00    +0.145 HD
ATOM     26  H   LIG    1       25.792 -30.999   3.556  0.00  0.00    +0.145 HD
ENDBRANCH  21  22
ENDBRANCH   6  21
ENDBRANCH   4   6
ENDBRANCH   1   2
BRANCH   1  27
ATOM     27  C   LIG    1       25.208 -30.253  11.467  0.00  0.00    +0.149 C 
BRANCH  27  28
ATOM     28  O   LIG    1       26.242 -31.071  10.881  0.00  0.00    -0.389 OA
ATOM     29  H   LIG    1       27.034 -30.996  11.440  0.00  0.00    +0.210 HD
ENDBRANCH  27  28
BRANCH  27  30
ATOM     30  C   LIG    1       25.699 -28.760  11.481  0.00  0.00    +0.118 C 
BRANCH  30  32
ATOM     31  C   LIG    1       25.806 -29.095  13.977  0.00  0.00    +0.143 C 
ATOM     32  N   LIG    1       25.804 -28.117  12.844  0.00  0.00    -0.289 NA
ATOM     33  C   LIG    1       24.662 -27.211  13.140  0.00  0.00    +0.089 C 
ATOM     34  C   LIG    1       23.281 -27.899  13.076  0.00  0.00    +0.006 C 
ATOM     35  C   LIG    1       23.219 -29.187  13.947  0.00  0.00    -0.005 C 
ATOM     36  C   LIG    1       22.715 -28.928  15.375  0.00  0.00    +0.004 C 
ATOM     37  C   LIG    1       21.431 -28.112  15.379  0.00  0.00    +0.000 C 
ATOM     38  C   LIG    1       21.694 -26.745  14.772  0.00  0.00    +0.000 C 
ATOM     39  C   LIG    1       22.148 -26.877  13.325  0.00  0.00    +0.005 C 
ATOM     40  C   LIG    1       24.553 -29.989  13.987  0.00  0.00    +0.032 C 
BRANCH  31  43
ATOM     41  N   LIG    1       28.267 -28.991  14.175  0.00  0.00    -0.309 N 
ATOM     42  H   LIG    1       28.103 -28.101  13.710  0.00  0.00    +0.149 HD
ATOM     43  C   LIG    1       27.164 -29.838  14.153  0.00  0.00    +0.231 C 
ATOM     44  O   LIG    1       27.225 -31.036  14.415  0.00  0.00    -0.274 OA
BRANCH  41  46
ATOM     45  C   LIG    1       30.455 -29.705  13.244  0.00  0.00    +0.031 C 
ATOM     46  C   LIG    1       29.666 -29.354  14.513  0.00  0.00    +0.026 C 
ATOM     47  C   LIG    1       30.329 -28.148  15.214  0.00  0.00    +0.031 C 
ATOM     48  C   LIG    1       29.778 -30.534  15.499  0.00  0.00    +0.031 C 
ENDBRANCH  41  46
ENDBRANCH  31  43
ENDBRANCH  30  32
ENDBRANCH  27  30
ENDBRANCH   1  27
BRANCH   1  49
ATOM     49  C   LIG    1       23.237 -31.922  10.786  0.00  0.00    +0.060 C 
BRANCH  49  50
ATOM     50  C   LIG    1       22.104 -32.010  11.787  0.00  0.00    -0.045 A 
ATOM     51  C   LIG    1       20.859 -31.421  11.533  0.00  0.00    +0.003 A 
ATOM     52  C   LIG    1       19.833 -31.490  12.481  0.00  0.00    +0.000 A 
ATOM     53  C   LIG    1       20.020 -32.185  13.673  0.00  0.00    +0.000 A 
ATOM     54  C   LIG    1       21.238 -32.811  13.922  0.00  0.00    +0.000 A 
ATOM     55  C   LIG    1       22.275 -32.718  12.990  0.00  0.00    +0.003 A 
ENDBRANCH  49  50
ENDBRANCH   1  49
TORSDOF 14
ENDMDL
MODEL 7
REMARK VINA RESULT:      -6.9      2.082      5.181
REMARK  Name = *****
REMARK                            x       y       z     vdW  Elec       q    Type
REMARK                         _______ _______ _______ _____ _____    ______ ____
ROOT
ATOM      1  C   LIG    1       22.793 -30.482  10.197  0.00  0.00    +0.107 C 
ENDROOT
BRANCH   1   2
ATOM      2  N   LIG    1       23.601 -30.164   8.995  0.00  0.00    -0.308 N 
ATOM      3  H   LIG    1       24.306 -29.437   9.066  0.00  0.00    +0.149 HD
ATOM      4  C   LIG    1       23.621 -30.979   7.875  0.00  0.00    +0.234 C 
ATOM      5  O   LIG    1       23.070 -32.076   7.838  0.00  0.00    -0.274 OA
BRANCH   4   6
ATOM      6  C   LIG    1       24.496 -30.454   6.714  0.00  0.00    +0.168 C 
BRANCH   6   7
ATOM      7  N   LIG    1       24.696 -29.012   6.897  0.00  0.00    -0.298 N 
ATOM      8  H   LIG    1       24.827 -28.637   7.831  0.00  0.00    +0.150 HD
ATOM      9  C   LIG    1       24.596 -28.113   5.849  0.00  0.00    +0.263 C 
ATOM     10  O   LIG    1       24.339 -28.433   4.712  0.00  0.00    -0.269 OA
BRANCH   9  11
ATOM     11  C   LIG    1       24.775 -26.673   6.234  0.00  0.00    +0.126 A 
ATOM     12  N   LIG    1       23.681 -25.870   6.182  0.00  0.00    -0.242 NA
ATOM     13  C   LIG    1       23.849 -24.577   6.526  0.00  0.00    +0.072 A 
ATOM     14  C   LIG    1       25.120 -24.026   6.808  0.00  0.00    +0.000 A 
ATOM     15  C   LIG    1       25.257 -22.661   7.112  0.00  0.00    +0.010 A 
ATOM     16  C   LIG    1       24.132 -21.850   7.221  0.00  0.00    +0.001 A 
ATOM     17  C   LIG    1       22.871 -22.395   7.007  0.00  0.00    +0.002 A 
ATOM     18  C   LIG    1       26.227 -24.882   6.813  0.00  0.00    +0.012 A 
ATOM     19  C   LIG    1       22.744 -23.742   6.646  0.00  0.00    +0.028 A 
ATOM     20  C   LIG    1       26.046 -26.238   6.575  0.00  0.00    +0.034 A 
ENDBRANCH   9  11
ENDBRANCH   6   7
BRANCH   6  21
ATOM     21  C   LIG    1       25.852 -31.158   6.665  0.00  0.00    +0.127 C 
BRANCH  21  22
ATOM     22  C   LIG    1       25.998 -31.998   5.418  0.00  0.00    +0.213 C 
ATOM     23  O   LIG    1       26.629 -33.044   5.351  0.00  0.00    -0.276 OA
ATOM     24  N   LIG    1       25.329 -31.517   4.329  0.00  0.00    -0.329 N 
ATOM     25  H   LIG    1       25.407 -32.039   3.465  0.00  0.00    +0.145 HD
ATOM     26  H   LIG    1       24.749 -30.691   4.348  0.00  0.00    +0.145 HD
ENDBRANCH  21  22
ENDBRANCH   6  21
ENDBRANCH   4   6
ENDBRANCH   1   2
BRANCH   1  27
ATOM     27  C   LIG    1       23.470 -29.887  11.475  0.00  0.00    +0.149 C 
BRANCH  27  28
ATOM     28  O   LIG    1       24.674 -29.253  10.997  0.00  0.00    -0.389 OA
ATOM     29  H   LIG    1       25.312 -29.234  11.730  0.00  0.00    +0.210 HD
ENDBRANCH  27  28
BRANCH  27  30
ATOM     30  C   LIG    1       22.630 -28.826  12.274  0.00  0.00    +0.118 C 
BRANCH  30  32
ATOM     31  C   LIG    1       23.814 -29.732  14.307  0.00  0.00    +0.143 C 
ATOM     32  N   LIG    1       22.629 -28.986  13.776  0.00  0.00    -0.289 NA
ATOM     33  C   LIG    1       21.457 -29.757  14.270  0.00  0.00    +0.089 C 
ATOM     34  C   LIG    1       21.339 -31.175  13.669  0.00  0.00    +0.006 C 
ATOM     35  C   LIG    1       22.653 -31.993  13.816  0.00  0.00    -0.005 C 
ATOM     36  C   LIG    1       22.699 -32.841  15.098  0.00  0.00    +0.004 C 
ATOM     37  C   LIG    1       21.431 -33.663  15.273  0.00  0.00    +0.000 C 
ATOM     38  C   LIG    1       20.238 -32.737  15.424  0.00  0.00    +0.000 C 
ATOM     39  C   LIG    1       20.060 -31.880  14.178  0.00  0.00    +0.005 C 
ATOM     40  C   LIG    1       23.949 -31.137  13.695  0.00  0.00    +0.032 C 
BRANCH  31  43
ATOM     41  N   LIG    1       26.084 -29.309  13.428  0.00  0.00    -0.309 N 
ATOM     42  H   LIG    1       25.987 -30.286  13.163  0.00  0.00    +0.149 HD
ATOM     43  C   LIG    1       25.119 -28.882  14.334  0.00  0.00    +0.231 C 
ATOM     44  O   LIG    1       25.208 -27.840  14.976  0.00  0.00    -0.274 OA
BRANCH  41  46
ATOM     45  C   LIG    1       27.058 -27.189  12.577  0.00  0.00    +0.031 C 
ATOM     46  C   LIG    1       27.347 -28.613  13.072  0.00  0.00    +0.026 C 
ATOM     47  C   LIG    1       28.244 -28.550  14.327  0.00  0.00    +0.031 C 
ATOM     48  C   LIG    1       28.173 -29.345  11.994  0.00  0.00    +0.031 C 
ENDBRANCH  41  46
ENDBRANCH  31  43
ENDBRANCH  30  32
ENDBRANCH  27  30
ENDBRANCH   1  27
BRANCH   1  49
ATOM     49  C   LIG    1       22.376 -31.970  10.209  0.00  0.00    +0.060 C 
BRANCH  49  50
ATOM     50  C   LIG    1       20.914 -32.279  10.457  0.00  0.00    -0.045 A 
ATOM     51  C   LIG    1       20.499 -33.550  10.873  0.00  0.00    +0.003 A 
ATOM     52  C   LIG    1       19.141 -33.825  11.072  0.00  0.00    +0.000 A 
ATOM     53  C   LIG    1       18.187 -32.825  10.900  0.00  0.00    +0.000 A 
ATOM     54  C   LIG    1       18.590 -31.546  10.526  0.00  0.00    +0.000 A 
ATOM     55  C   LIG    1       19.942 -31.277  10.298  0.00  0.00    +0.003 A 
ENDBRANCH  49  50
ENDBRANCH   1  49
TORSDOF 14
ENDMDL
MODEL 8
REMARK VINA RESULT:      -6.5      2.381      5.171
REMARK  Name = *****
REMARK                            x       y       z     vdW  Elec       q    Type
REMARK                         _______ _______ _______ _____ _____    ______ ____
ROOT
ATOM      1  C   LIG    1       25.522 -30.539   9.995  0.00  0.00    +0.107 C 
ENDROOT
BRANCH   1   2
ATOM      2  N   LIG    1       24.986 -29.739   8.867  0.00  0.00    -0.308 N 
ATOM      3  H   LIG    1       23.979 -29.683   8.751  0.00  0.00    +0.149 HD
ATOM      4  C   LIG    1       25.773 -28.865   8.136  0.00  0.00    +0.234 C 
ATOM      5  O   LIG    1       26.934 -28.599   8.439  0.00  0.00    -0.274 OA
BRANCH   4   6
ATOM      6  C   LIG    1       25.038 -28.153   6.977  0.00  0.00    +0.168 C 
BRANCH   6   7
ATOM      7  N   LIG    1       25.219 -26.705   7.133  0.00  0.00    -0.298 N 
ATOM      8  H   LIG    1       25.821 -26.349   7.869  0.00  0.00    +0.150 HD
ATOM      9  C   LIG    1       24.502 -25.787   6.386  0.00  0.00    +0.263 C 
ATOM     10  O   LIG    1       23.679 -26.093   5.554  0.00  0.00    -0.269 OA
BRANCH   9  11
ATOM     11  C   LIG    1       24.776 -24.349   6.720  0.00  0.00    +0.126 A 
ATOM     12  N   LIG    1       26.069 -23.987   6.923  0.00  0.00    -0.242 NA
ATOM     13  C   LIG    1       26.308 -22.695   7.225  0.00  0.00    +0.072 A 
ATOM     14  C   LIG    1       25.267 -21.765   7.455  0.00  0.00    +0.000 A 
ATOM     15  C   LIG    1       25.559 -20.440   7.819  0.00  0.00    +0.010 A 
ATOM     16  C   LIG    1       26.879 -20.003   7.878  0.00  0.00    +0.001 A 
ATOM     17  C   LIG    1       27.908 -20.892   7.593  0.00  0.00    +0.002 A 
ATOM     18  C   LIG    1       23.947 -22.191   7.273  0.00  0.00    +0.012 A 
ATOM     19  C   LIG    1       27.615 -22.227   7.289  0.00  0.00    +0.028 A 
ATOM     20  C   LIG    1       23.696 -23.488   6.846  0.00  0.00    +0.034 A 
ENDBRANCH   9  11
ENDBRANCH   6   7
BRANCH   6  21
ATOM     21  C   LIG    1       25.572 -28.592   5.614  0.00  0.00    +0.127 C 
BRANCH  21  22
ATOM     22  C   LIG    1       25.099 -29.981   5.254  0.00  0.00    +0.213 C 
ATOM     23  O   LIG    1       25.814 -30.865   4.801  0.00  0.00    -0.276 OA
ATOM     24  N   LIG    1       23.777 -30.213   5.502  0.00  0.00    -0.329 N 
ATOM     25  H   LIG    1       23.410 -31.126   5.265  0.00  0.00    +0.145 HD
ATOM     26  H   LIG    1       23.160 -29.536   5.928  0.00  0.00    +0.145 HD
ENDBRANCH  21  22
ENDBRANCH   6  21
ENDBRANCH   4   6
ENDBRANCH   1   2
BRANCH   1  27
ATOM     27  C   LIG    1       25.675 -29.642  11.268  0.00  0.00    +0.149 C 
BRANCH  27  28
ATOM     28  O   LIG    1       25.611 -28.287  10.777  0.00  0.00    -0.389 OA
ATOM     29  H   LIG    1       25.364 -27.712  11.521  0.00  0.00    +0.210 HD
ENDBRANCH  27  28
BRANCH  27  30
ATOM     30  C   LIG    1       24.579 -29.823  12.379  0.00  0.00    +0.118 C 
BRANCH  30  32
ATOM     31  C   LIG    1       22.774 -28.516  13.558  0.00  0.00    +0.143 C 
ATOM     32  N   LIG    1       23.360 -28.940  12.247  0.00  0.00    -0.289 NA
ATOM     33  C   LIG    1       22.237 -29.614  11.542  0.00  0.00    +0.089 C 
ATOM     34  C   LIG    1       21.769 -30.924  12.214  0.00  0.00    +0.006 C 
ATOM     35  C   LIG    1       21.453 -30.736  13.726  0.00  0.00    -0.005 C 
ATOM     36  C   LIG    1       19.980 -30.395  13.998  0.00  0.00    +0.004 C 
ATOM     37  C   LIG    1       19.040 -31.352  13.280  0.00  0.00    +0.000 C 
ATOM     38  C   LIG    1       19.229 -31.224  11.780  0.00  0.00    +0.000 C 
ATOM     39  C   LIG    1       20.652 -31.596  11.383  0.00  0.00    +0.005 C 
ATOM     40  C   LIG    1       22.381 -29.711  14.444  0.00  0.00    +0.032 C 
BRANCH  31  43
ATOM     41  N   LIG    1       24.812 -27.122  13.663  0.00  0.00    -0.309 N 
ATOM     42  H   LIG    1       25.174 -27.899  13.116  0.00  0.00    +0.149 HD
ATOM     43  C   LIG    1       23.589 -27.393  14.267  0.00  0.00    +0.231 C 
ATOM     44  O   LIG    1       23.112 -26.707  15.167  0.00  0.00    -0.274 OA
BRANCH  41  46
ATOM     45  C   LIG    1       26.330 -26.156  15.374  0.00  0.00    +0.031 C 
ATOM     46  C   LIG    1       25.731 -25.997  13.969  0.00  0.00    +0.026 C 
ATOM     47  C   LIG    1       26.867 -25.993  12.923  0.00  0.00    +0.031 C 
ATOM     48  C   LIG    1       25.064 -24.610  13.877  0.00  0.00    +0.031 C 
ENDBRANCH  41  46
ENDBRANCH  31  43
ENDBRANCH  30  32
ENDBRANCH  27  30
ENDBRANCH   1  27
BRANCH   1  49
ATOM     49  C   LIG    1       26.728 -31.394   9.548  0.00  0.00    +0.060 C 
BRANCH  49  50
ATOM     50  C   LIG    1       26.553 -32.246   8.308  0.00  0.00    -0.045 A 
ATOM     51  C   LIG    1       27.652 -32.648   7.539  0.00  0.00    +0.003 A 
ATOM     52  C   LIG    1       27.469 -33.413   6.382  0.00  0.00    +0.000 A 
ATOM     53  C   LIG    1       26.193 -33.824   6.003  0.00  0.00    +0.000 A 
ATOM     54  C   LIG    1       25.096 -33.467   6.781  0.00  0.00    +0.000 A 
ATOM     55  C   LIG    1       25.272 -32.678   7.920  0.00  0.00    +0.003 A 
ENDBRANCH  49  50
ENDBRANCH   1  49
TORSDOF 14
ENDMDL
MODEL 9
REMARK VINA RESULT:      -6.3      1.804      4.459
REMARK  Name = *****
REMARK                            x       y       z     vdW  Elec       q    Type
REMARK                         _______ _______ _______ _____ _____    ______ ____
ROOT
ATOM      1  C   LIG    1       25.334 -30.011   9.930  0.00  0.00    +0.107 C 
ENDROOT
BRANCH   1   2
ATOM      2  N   LIG    1       25.362 -29.550   8.520  0.00  0.00    -0.308 N 
ATOM      3  H   LIG    1       26.256 -29.292   8.114  0.00  0.00    +0.149 HD
ATOM      4  C   LIG    1       24.282 -29.704   7.667  0.00  0.00    +0.234 C 
ATOM      5  O   LIG    1       23.273 -30.336   7.973  0.00  0.00    -0.274 OA
BRANCH   4   6
ATOM      6  C   LIG    1       24.495 -29.125   6.249  0.00  0.00    +0.168 C 
BRANCH   6   7
ATOM      7  N   LIG    1       24.560 -27.662   6.351  0.00  0.00    -0.298 N 
ATOM      8  H   LIG    1       23.824 -27.157   6.834  0.00  0.00    +0.150 HD
ATOM      9  C   LIG    1       25.535 -26.920   5.707  0.00  0.00    +0.263 C 
ATOM     10  O   LIG    1       26.402 -27.405   5.016  0.00  0.00    -0.269 OA
BRANCH   9  11
ATOM     11  C   LIG    1       25.412 -25.434   5.876  0.00  0.00    +0.126 A 
ATOM     12  N   LIG    1       25.849 -24.898   7.046  0.00  0.00    -0.242 NA
ATOM     13  C   LIG    1       25.734 -23.562   7.192  0.00  0.00    +0.072 A 
ATOM     14  C   LIG    1       25.074 -22.749   6.242  0.00  0.00    +0.000 A 
ATOM     15  C   LIG    1       24.931 -21.368   6.459  0.00  0.00    +0.010 A 
ATOM     16  C   LIG    1       25.509 -20.769   7.574  0.00  0.00    +0.001 A 
ATOM     17  C   LIG    1       26.214 -21.549   8.482  0.00  0.00    +0.002 A 
ATOM     18  C   LIG    1       24.605 -23.349   5.068  0.00  0.00    +0.012 A 
ATOM     19  C   LIG    1       26.303 -22.934   8.293  0.00  0.00    +0.028 A 
ATOM     20  C   LIG    1       24.824 -24.704   4.855  0.00  0.00    +0.034 A 
ENDBRANCH   9  11
ENDBRANCH   6   7
BRANCH   6  21
ATOM     21  C   LIG    1       25.780 -29.653   5.610  0.00  0.00    +0.127 C 
BRANCH  21  22
ATOM     22  C   LIG    1       25.804 -31.163   5.578  0.00  0.00    +0.213 C 
ATOM     23  O   LIG    1       26.503 -31.863   6.299  0.00  0.00    -0.276 OA
ATOM     24  N   LIG    1       24.942 -31.726   4.683  0.00  0.00    -0.329 N 
ATOM     25  H   LIG    1       24.932 -32.736   4.616  0.00  0.00    +0.145 HD
ATOM     26  H   LIG    1       24.305 -31.194   4.108  0.00  0.00    +0.145 HD
ENDBRANCH  21  22
ENDBRANCH   6  21
ENDBRANCH   4   6
ENDBRANCH   1   2
BRANCH   1  27
ATOM     27  C   LIG    1       23.970 -30.711  10.242  0.00  0.00    +0.149 C 
BRANCH  27  28
ATOM     28  O   LIG    1       24.215 -32.116  10.022  0.00  0.00    -0.389 OA
ATOM     29  H   LIG    1       23.370 -32.585  10.126  0.00  0.00    +0.210 HD
ENDBRANCH  27  28
BRANCH  27  30
ATOM     30  C   LIG    1       23.413 -30.523  11.699  0.00  0.00    +0.118 C 
BRANCH  30  32
ATOM     31  C   LIG    1       21.598 -29.615  13.195  0.00  0.00    +0.143 C 
ATOM     32  N   LIG    1       22.210 -29.617  11.829  0.00  0.00    -0.289 NA
ATOM     33  C   LIG    1       21.095 -30.011  10.926  0.00  0.00    +0.089 C 
ATOM     34  C   LIG    1       20.592 -31.454  11.141  0.00  0.00    +0.006 C 
ATOM     35  C   LIG    1       20.241 -31.745  12.628  0.00  0.00    -0.005 C 
ATOM     36  C   LIG    1       18.766 -31.476  12.966  0.00  0.00    +0.004 C 
ATOM     37  C   LIG    1       17.831 -32.137  11.965  0.00  0.00    +0.000 C 
ATOM     38  C   LIG    1       18.060 -31.547  10.585  0.00  0.00    +0.000 C 
ATOM     39  C   LIG    1       19.486 -31.806  10.119  0.00  0.00    +0.005 C 
ATOM     40  C   LIG    1       21.165 -31.020  13.650  0.00  0.00    +0.032 C 
BRANCH  31  43
ATOM     41  N   LIG    1       23.441 -28.041  13.679  0.00  0.00    -0.309 N 
ATOM     42  H   LIG    1       23.766 -28.403  12.785  0.00  0.00    +0.149 HD
ATOM     43  C   LIG    1       22.411 -28.791  14.237  0.00  0.00    +0.231 C 
ATOM     44  O   LIG    1       22.060 -28.690  15.409  0.00  0.00    -0.274 OA
BRANCH  41  46
ATOM     45  C   LIG    1       25.189 -26.309  13.351  0.00  0.00    +0.031 C 
ATOM     46  C   LIG    1       24.271 -27.014  14.358  0.00  0.00    +0.026 C 
ATOM     47  C   LIG    1       23.331 -25.978  15.011  0.00  0.00    +0.031 C 
ATOM     48  C   LIG    1       25.141 -27.579  15.499  0.00  0.00    +0.031 C 
ENDBRANCH  41  46
ENDBRANCH  31  43
ENDBRANCH  30  32
ENDBRANCH  27  30
ENDBRANCH   1  27
BRANCH   1  49
ATOM     49  C   LIG    1       25.830 -28.904  10.887  0.00  0.00    +0.060 C 
BRANCH  49  50
ATOM     50  C   LIG    1       26.863 -29.295  11.923  0.00  0.00    -0.045 A 
ATOM     51  C   LIG    1       28.224 -29.022  11.734  0.00  0.00    +0.003 A 
ATOM     52  C   LIG    1       29.167 -29.414  12.691  0.00  0.00    +0.000 A 
ATOM     53  C   LIG    1       28.760 -30.040  13.867  0.00  0.00    +0.000 A 
ATOM     54  C   LIG    1       27.407 -30.280  14.086  0.00  0.00    +0.000 A 
ATOM     55  C   LIG    1       26.466 -29.917  13.119  0.00  0.00    +0.003 A 
ENDBRANCH  49  50
ENDBRANCH   1  49
TORSDOF 14
ENDMDL
