MODEL 1
REMARK VINA RESULT:      29.5      0.000      0.000
REMARK  Name = *****
REMARK                            x       y       z     vdW  Elec       q    Type
REMARK                         _______ _______ _______ _____ _____    ______ ____
ROOT
ATOM      1  C   LIG    1       23.621 -30.522   5.634  0.00  0.00    +0.014 C 
ATOM      2  C   LIG    1       23.711 -30.067   7.091  0.00  0.00    +0.037 C 
ATOM      3  C   LIG    1       23.827 -31.242   8.122  0.00  0.00    +0.127 C 
ATOM      4  C   LIG    1       22.620 -32.226   8.147  0.00  0.00    +0.056 C 
ATOM      5  C   LIG    1       22.875 -33.502   7.332  0.00  0.00    +0.014 C 
ATOM      6  C   LIG    1       22.164 -32.622   9.591  0.00  0.00    +0.179 C 
ATOM      7  C   LIG    1       23.285 -33.070  10.519  0.00  0.00    +0.052 C 
ATOM      8  O   LIG    1       21.531 -31.462  10.195  0.00  0.00    -0.461 OA
ATOM      9  C   LIG    1       20.442 -31.432  10.999  0.00  0.00    +0.310 C 
ATOM     10  O   LIG    1       19.934 -30.340  11.259  0.00  0.00    -0.251 OA
ATOM     11  C   LIG    1       19.783 -32.717  11.460  0.00  0.00    +0.152 C 
ATOM     12  C   LIG    1       19.801 -33.057  12.960  0.00  0.00    +0.128 C 
ATOM     13  C   LIG    1       19.610 -31.905  13.964  0.00  0.00    +0.063 C 
ATOM     14  C   LIG    1       20.896 -31.326  14.563  0.00  0.00    +0.119 C 
ATOM     15  C   LIG    1       20.696 -29.927  15.189  0.00  0.00    +0.062 C 
ATOM     16  C   LIG    1       21.964 -29.063  15.371  0.00  0.00    +0.117 C 
ATOM     17  C   LIG    1       22.218 -27.983  14.287  0.00  0.00    +0.034 C 
ATOM     18  C   LIG    1       21.999 -28.483  12.860  0.00  0.00    +0.036 C 
ATOM     19  C   LIG    1       22.319 -27.530  11.699  0.00  0.00    +0.143 C 
ATOM     20  C   LIG    1       23.810 -27.470  11.302  0.00  0.00    +0.150 C 
ATOM     21  C   LIG    1       24.381 -28.803  10.810  0.00  0.00    +0.108 C 
ATOM     22  C   LIG    1       25.895 -28.881  10.902  0.00  0.00    +0.138 C 
ATOM     23  O   LIG    1       26.578 -27.850  10.902  0.00  0.00    -0.297 OA
ATOM     24  C   LIG    1       26.571 -30.237  10.824  0.00  0.00    +0.106 C 
ATOM     25  C   LIG    1       26.504 -31.294  11.947  0.00  0.00    +0.138 C 
ATOM     26  C   LIG    1       25.644 -31.132  13.223  0.00  0.00    +0.155 C 
ATOM     27  C   LIG    1       26.234 -30.543  14.547  0.00  0.00    +0.134 C 
ATOM     28  C   LIG    1       26.074 -29.014  14.666  0.00  0.00    +0.068 C 
ATOM     29  C   LIG    1       27.157 -27.974  15.027  0.00  0.00    +0.147 C 
ATOM     30  C   LIG    1       26.577 -26.610  14.704  0.00  0.00    +0.004 C 
ATOM     31  C   LIG    1       26.122 -25.624  15.500  0.00  0.00    -0.002 C 
ATOM     32  C   LIG    1       25.765 -24.356  14.882  0.00  0.00    -0.000 C 
ATOM     33  C   LIG    1       24.802 -24.300  13.946  0.00  0.00    +0.000 C 
ATOM     34  C   LIG    1       24.862 -23.376  12.831  0.00  0.00    +0.000 C 
ATOM     35  C   LIG    1       24.172 -23.635  11.707  0.00  0.00    -0.000 C 
ATOM     36  C   LIG    1       24.541 -23.145  10.396  0.00  0.00    -0.004 C 
ATOM     37  C   LIG    1       25.739 -23.453   9.867  0.00  0.00    -0.026 C 
ATOM     38  C   LIG    1       26.168 -23.166   8.456  0.00  0.00    +0.031 C 
ATOM     39  C   LIG    1       26.640 -24.424   7.696  0.00  0.00    +0.031 C 
ATOM     40  C   LIG    1       25.555 -25.445   7.445  0.00  0.00    -0.026 C 
ATOM     41  C   LIG    1       25.746 -26.776   7.484  0.00  0.00    -0.005 C 
ATOM     42  C   LIG    1       24.679 -27.733   7.272  0.00  0.00    -0.004 C 
ATOM     43  C   LIG    1       24.858 -29.067   7.226  0.00  0.00    -0.021 C 
ENDROOT
BRANCH   3  44
ATOM     44  O   LIG    1       25.058 -31.959   7.981  0.00  0.00    -0.391 OA
ATOM     45  H   LIG    1       25.724 -31.360   7.602  0.00  0.00    +0.210 HD
ENDBRANCH   3  44
BRANCH  12  46
ATOM     46  O   LIG    1       20.966 -33.825  13.276  0.00  0.00    -0.391 OA
ATOM     47  H   LIG    1       21.579 -33.251  13.769  0.00  0.00    +0.210 HD
ENDBRANCH  12  46
BRANCH  14  48
ATOM     48  O   LIG    1       21.910 -31.306  13.571  0.00  0.00    -0.392 OA
ATOM     49  H   LIG    1       21.441 -31.088  12.730  0.00  0.00    +0.210 HD
ENDBRANCH  14  48
BRANCH  16  50
ATOM     50  O   LIG    1       23.115 -29.893  15.500  0.00  0.00    -0.392 OA
ATOM     51  H   LIG    1       22.940 -30.464  16.275  0.00  0.00    +0.210 HD
ENDBRANCH  16  50
BRANCH  19  52
ATOM     52  O   LIG    1       21.586 -27.926  10.528  0.00  0.00    -0.389 OA
ATOM     53  H   LIG    1       22.119 -27.707   9.734  0.00  0.00    +0.210 HD
ENDBRANCH  19  52
BRANCH  20  54
ATOM     54  O   LIG    1       24.565 -26.981  12.388  0.00  0.00    -0.389 OA
ATOM     55  H   LIG    1       24.804 -27.778  12.911  0.00  0.00    +0.210 HD
ENDBRANCH  20  54
BRANCH  25  56
ATOM     56  O   LIG    1       27.844 -31.654  12.319  0.00  0.00    -0.391 OA
ATOM     57  H   LIG    1       28.201 -32.215  11.607  0.00  0.00    +0.210 HD
ENDBRANCH  25  56
BRANCH  26  58
ATOM     58  C   LIG    1       25.112 -32.505  13.595  0.00  0.00    +0.313 C 
ATOM     59  O   LIG    1       24.207 -32.733  14.432  0.00  0.00    -0.251 OA
BRANCH  58  60
ATOM     60  O   LIG    1       25.696 -33.540  12.996  0.00  0.00    -0.480 OA
ATOM     61  H   LIG    1       26.661 -33.399  13.106  0.00  0.00    +0.295 HD
ENDBRANCH  58  60
ENDBRANCH  26  58
BRANCH  27  62
ATOM     62  O   LIG    1       27.510 -31.035  14.909  0.00  0.00    -0.391 OA
ATOM     63  H   LIG    1       28.075 -30.999  14.108  0.00  0.00    +0.210 HD
ENDBRANCH  27  62
BRANCH  29  64
ATOM     64  O   LIG    1       28.415 -28.081  14.334  0.00  0.00    -0.341 OA
BRANCH  64  65
ATOM     65  C   LIG    1       29.508 -28.546  15.179  0.00  0.00    +0.281 C 
ATOM     66  C   LIG    1       30.029 -29.977  14.824  0.00  0.00    +0.189 C 
ATOM     67  C   LIG    1       30.741 -29.948  13.460  0.00  0.00    +0.116 C 
ATOM     68  C   LIG    1       31.741 -28.768  13.417  0.00  0.00    +0.162 C 
ATOM     69  C   LIG    1       31.858 -28.086  14.791  0.00  0.00    +0.148 C 
ATOM     70  C   LIG    1       32.899 -26.968  14.788  0.00  0.00    +0.040 C 
ATOM     71  O   LIG    1       30.581 -27.567  15.184  0.00  0.00    -0.343 OA
BRANCH  67  72
ATOM     72  N   LIG    1       29.836 -29.919  12.286  0.00  0.00    -0.323 NA
ATOM     73  H   LIG    1       29.121 -30.653  12.399  0.00  0.00    +0.119 HD
ATOM     74  H   LIG    1       30.364 -30.228  11.467  0.00  0.00    +0.119 HD
ENDBRANCH  67  72
BRANCH  66  75
ATOM     75  O   LIG    1       29.100 -31.063  14.863  0.00  0.00    -0.385 OA
ATOM     76  H   LIG    1       29.534 -31.827  14.445  0.00  0.00    +0.210 HD
ENDBRANCH  66  75
BRANCH  68  77
ATOM     77  O   LIG    1       33.023 -29.254  13.009  0.00  0.00    -0.388 OA
ATOM     78  H   LIG    1       33.249 -28.758  12.202  0.00  0.00    +0.210 HD
ENDBRANCH  68  77
ENDBRANCH  64  65
ENDBRANCH  29  64
TORSDOF 15
ENDMDL
