MODEL 1
REMARK VINA RESULT:      -4.7      0.000      0.000
REMARK  Name = *****
REMARK                            x       y       z     vdW  Elec       q    Type
REMARK                         _______ _______ _______ _____ _____    ______ ____
ROOT
ATOM      1  C   LIG    1       25.236 -17.145   3.446  0.00  0.00    +0.341 C 
ATOM      2  O   LIG    1       26.190 -17.888   3.229  0.00  0.00    -0.247 OA
ENDROOT
BRANCH   1   3
ATOM      3  O   LIG    1       25.305 -15.794   3.621  0.00  0.00    -0.459 OA
BRANCH   3  11
ATOM      4  C   LIG    1       23.940 -12.950   4.116  0.00  0.00    +0.007 C 
ATOM      5  C   LIG    1       24.982 -12.720   3.021  0.00  0.00    -0.010 C 
ATOM      6  C   LIG    1       26.348 -12.265   3.554  0.00  0.00    +0.010 C 
ATOM      7  C   LIG    1       27.287 -13.371   4.088  0.00  0.00    -0.031 C 
ATOM      8  C   LIG    1       28.709 -12.770   4.204  0.00  0.00    +0.011 C 
ATOM      9  C   LIG    1       26.893 -13.826   5.504  0.00  0.00    +0.011 C 
ATOM     10  C   LIG    1       27.339 -14.564   3.105  0.00  0.00    +0.051 C 
ATOM     11  C   LIG    1       25.981 -15.060   2.584  0.00  0.00    +0.177 C 
ATOM     12  C   LIG    1       25.117 -13.909   2.061  0.00  0.00    +0.048 C 
ENDBRANCH   3  11
ENDBRANCH   1   3
BRANCH   1  13
ATOM     13  C   LIG    1       23.797 -17.660   3.587  0.00  0.00    +0.253 C 
BRANCH  13  14
ATOM     14  C   LIG    1       23.709 -19.038   4.199  0.00  0.00    -0.008 A 
ATOM     15  C   LIG    1       22.728 -19.324   5.160  0.00  0.00    +0.007 A 
ATOM     16  C   LIG    1       22.667 -20.583   5.761  0.00  0.00    +0.000 A 
ATOM     17  C   LIG    1       23.585 -21.571   5.409  0.00  0.00    +0.000 A 
ATOM     18  C   LIG    1       24.562 -21.303   4.455  0.00  0.00    +0.000 A 
ATOM     19  C   LIG    1       24.624 -20.046   3.851  0.00  0.00    +0.007 A 
ENDBRANCH  13  14
BRANCH  13  20
ATOM     20  O   LIG    1       23.013 -16.771   4.388  0.00  0.00    -0.376 OA
ATOM     21  H   LIG    1       22.236 -16.533   3.847  0.00  0.00    +0.211 HD
ENDBRANCH  13  20
ENDBRANCH   1  13
TORSDOF 5
ENDMDL
MODEL 2
REMARK VINA RESULT:      -4.4      1.438      2.171
REMARK  Name = *****
REMARK                            x       y       z     vdW  Elec       q    Type
REMARK                         _______ _______ _______ _____ _____    ______ ____
ROOT
ATOM      1  C   LIG    1       22.672 -15.929   5.061  0.00  0.00    +0.341 C 
ATOM      2  O   LIG    1       21.843 -15.767   5.953  0.00  0.00    -0.247 OA
ENDROOT
BRANCH   1   3
ATOM      3  O   LIG    1       23.789 -15.170   4.868  0.00  0.00    -0.459 OA
BRANCH   3  11
ATOM      4  C   LIG    1       23.798 -11.980   4.740  0.00  0.00    +0.007 C 
ATOM      5  C   LIG    1       24.344 -12.446   3.390  0.00  0.00    -0.010 C 
ATOM      6  C   LIG    1       25.875 -12.548   3.345  0.00  0.00    +0.010 C 
ATOM      7  C   LIG    1       26.502 -13.831   3.939  0.00  0.00    -0.031 C 
ATOM      8  C   LIG    1       27.970 -13.908   3.453  0.00  0.00    +0.011 C 
ATOM      9  C   LIG    1       26.557 -13.786   5.476  0.00  0.00    +0.011 C 
ATOM     10  C   LIG    1       25.754 -15.087   3.435  0.00  0.00    +0.051 C 
ATOM     11  C   LIG    1       24.220 -15.022   3.503  0.00  0.00    +0.177 C 
ATOM     12  C   LIG    1       23.676 -13.730   2.884  0.00  0.00    +0.048 C 
ENDBRANCH   3  11
ENDBRANCH   1   3
BRANCH   1  13
ATOM     13  C   LIG    1       22.541 -17.021   3.991  0.00  0.00    +0.253 C 
BRANCH  13  14
ATOM     14  C   LIG    1       23.207 -18.322   4.375  0.00  0.00    -0.008 A 
ATOM     15  C   LIG    1       24.440 -18.680   3.810  0.00  0.00    +0.007 A 
ATOM     16  C   LIG    1       25.040 -19.899   4.129  0.00  0.00    +0.000 A 
ATOM     17  C   LIG    1       24.417 -20.776   5.016  0.00  0.00    +0.000 A 
ATOM     18  C   LIG    1       23.195 -20.433   5.587  0.00  0.00    +0.000 A 
ATOM     19  C   LIG    1       22.593 -19.213   5.272  0.00  0.00    +0.007 A 
ENDBRANCH  13  14
BRANCH  13  20
ATOM     20  O   LIG    1       21.166 -17.296   3.707  0.00  0.00    -0.376 OA
ATOM     21  H   LIG    1       21.149 -18.171   3.275  0.00  0.00    +0.211 HD
ENDBRANCH  13  20
ENDBRANCH   1  13
TORSDOF 5
ENDMDL
MODEL 3
REMARK VINA RESULT:      -4.4      1.302      7.008
REMARK  Name = *****
REMARK                            x       y       z     vdW  Elec       q    Type
REMARK                         _______ _______ _______ _____ _____    ______ ____
ROOT
ATOM      1  C   LIG    1       25.192 -17.791   3.650  0.00  0.00    +0.341 C 
ATOM      2  O   LIG    1       24.048 -17.459   3.351  0.00  0.00    -0.247 OA
ENDROOT
BRANCH   1   3
ATOM      3  O   LIG    1       25.536 -18.899   4.366  0.00  0.00    -0.459 OA
BRANCH   3  11
ATOM      4  C   LIG    1       25.456 -20.612   7.060  0.00  0.00    +0.007 C 
ATOM      5  C   LIG    1       24.969 -21.555   5.960  0.00  0.00    -0.010 C 
ATOM      6  C   LIG    1       23.443 -21.571   5.791  0.00  0.00    +0.010 C 
ATOM      7  C   LIG    1       22.826 -20.425   4.956  0.00  0.00    -0.031 C 
ATOM      8  C   LIG    1       21.378 -20.833   4.590  0.00  0.00    +0.011 C 
ATOM      9  C   LIG    1       22.717 -19.119   5.763  0.00  0.00    +0.011 C 
ATOM     10  C   LIG    1       23.621 -20.217   3.646  0.00  0.00    +0.051 C 
ATOM     11  C   LIG    1       25.149 -20.162   3.794  0.00  0.00    +0.177 C 
ATOM     12  C   LIG    1       25.683 -21.336   4.621  0.00  0.00    +0.048 C 
ENDBRANCH   3  11
ENDBRANCH   1   3
BRANCH   1  13
ATOM     13  C   LIG    1       26.425 -16.958   3.274  0.00  0.00    +0.253 C 
BRANCH  13  14
ATOM     14  C   LIG    1       26.319 -15.508   3.685  0.00  0.00    -0.008 A 
ATOM     15  C   LIG    1       27.470 -14.782   4.025  0.00  0.00    +0.007 A 
ATOM     16  C   LIG    1       27.375 -13.455   4.446  0.00  0.00    +0.000 A 
ATOM     17  C   LIG    1       26.129 -12.836   4.534  0.00  0.00    +0.000 A 
ATOM     18  C   LIG    1       24.978 -13.542   4.196  0.00  0.00    +0.000 A 
ATOM     19  C   LIG    1       25.070 -14.869   3.772  0.00  0.00    +0.007 A 
ENDBRANCH  13  14
BRANCH  13  20
ATOM     20  O   LIG    1       27.608 -17.499   3.869  0.00  0.00    -0.376 OA
ATOM     21  H   LIG    1       27.307 -18.054   4.613  0.00  0.00    +0.211 HD
ENDBRANCH  13  20
ENDBRANCH   1  13
TORSDOF 5
ENDMDL
MODEL 4
REMARK VINA RESULT:      -4.3      1.478      1.705
REMARK  Name = *****
REMARK                            x       y       z     vdW  Elec       q    Type
REMARK                         _______ _______ _______ _____ _____    ______ ____
ROOT
ATOM      1  C   LIG    1       26.643 -17.223   3.722  0.00  0.00    +0.341 C 
ATOM      2  O   LIG    1       27.832 -17.337   4.004  0.00  0.00    -0.247 OA
ENDROOT
BRANCH   1   3
ATOM      3  O   LIG    1       25.959 -16.048   3.621  0.00  0.00    -0.459 OA
BRANCH   3  11
ATOM      4  C   LIG    1       23.919 -13.664   4.219  0.00  0.00    +0.007 C 
ATOM      5  C   LIG    1       24.954 -13.086   3.254  0.00  0.00    -0.010 C 
ATOM      6  C   LIG    1       26.128 -12.386   3.953  0.00  0.00    +0.010 C 
ATOM      7  C   LIG    1       27.262 -13.294   4.480  0.00  0.00    -0.031 C 
ATOM      8  C   LIG    1       28.486 -12.395   4.784  0.00  0.00    +0.011 C 
ATOM      9  C   LIG    1       26.884 -13.973   5.809  0.00  0.00    +0.011 C 
ATOM     10  C   LIG    1       27.672 -14.332   3.410  0.00  0.00    +0.051 C 
ATOM     11  C   LIG    1       26.515 -15.072   2.720  0.00  0.00    +0.177 C 
ATOM     12  C   LIG    1       25.440 -14.104   2.215  0.00  0.00    +0.048 C 
ENDBRANCH   3  11
ENDBRANCH   1   3
BRANCH   1  13
ATOM     13  C   LIG    1       25.729 -18.430   3.469  0.00  0.00    +0.253 C 
BRANCH  13  14
ATOM     14  C   LIG    1       25.848 -19.505   4.523  0.00  0.00    -0.008 A 
ATOM     15  C   LIG    1       24.754 -20.333   4.817  0.00  0.00    +0.007 A 
ATOM     16  C   LIG    1       24.843 -21.300   5.820  0.00  0.00    +0.000 A 
ATOM     17  C   LIG    1       26.026 -21.453   6.541  0.00  0.00    +0.000 A 
ATOM     18  C   LIG    1       27.121 -20.642   6.258  0.00  0.00    +0.000 A 
ATOM     19  C   LIG    1       27.035 -19.675   5.255  0.00  0.00    +0.007 A 
ENDBRANCH  13  14
BRANCH  13  20
ATOM     20  O   LIG    1       24.358 -18.028   3.402  0.00  0.00    -0.376 OA
ATOM     21  H   LIG    1       23.899 -18.510   4.116  0.00  0.00    +0.211 HD
ENDBRANCH  13  20
ENDBRANCH   1  13
TORSDOF 5
ENDMDL
MODEL 5
REMARK VINA RESULT:      -4.2      1.322      7.024
REMARK  Name = *****
REMARK                            x       y       z     vdW  Elec       q    Type
REMARK                         _______ _______ _______ _____ _____    ______ ____
ROOT
ATOM      1  C   LIG    1       24.945 -16.845   3.738  0.00  0.00    +0.341 C 
ATOM      2  O   LIG    1       25.860 -16.883   2.920  0.00  0.00    -0.247 OA
ENDROOT
BRANCH   1   3
ATOM      3  O   LIG    1       24.298 -17.927   4.257  0.00  0.00    -0.459 OA
BRANCH   3  11
ATOM      4  C   LIG    1       26.122 -20.177   5.600  0.00  0.00    +0.007 C 
ATOM      5  C   LIG    1       25.396 -20.872   4.448  0.00  0.00    -0.010 C 
ATOM      6  C   LIG    1       24.083 -21.551   4.864  0.00  0.00    +0.010 C 
ATOM      7  C   LIG    1       22.838 -20.642   4.980  0.00  0.00    -0.031 C 
ATOM      8  C   LIG    1       21.588 -21.554   5.021  0.00  0.00    +0.011 C 
ATOM      9  C   LIG    1       22.833 -19.839   6.292  0.00  0.00    +0.011 C 
ATOM     10  C   LIG    1       22.726 -19.714   3.747  0.00  0.00    +0.051 C 
ATOM     11  C   LIG    1       24.019 -18.995   3.332  0.00  0.00    +0.177 C 
ATOM     12  C   LIG    1       25.200 -19.965   3.227  0.00  0.00    +0.048 C 
ENDBRANCH   3  11
ENDBRANCH   1   3
BRANCH   1  13
ATOM     13  C   LIG    1       24.366 -15.529   4.278  0.00  0.00    +0.253 C 
BRANCH  13  14
ATOM     14  C   LIG    1       24.838 -14.310   3.522  0.00  0.00    -0.008 A 
ATOM     15  C   LIG    1       26.209 -14.076   3.341  0.00  0.00    +0.007 A 
ATOM     16  C   LIG    1       26.653 -12.930   2.680  0.00  0.00    +0.000 A 
ATOM     17  C   LIG    1       25.734 -12.003   2.191  0.00  0.00    +0.000 A 
ATOM     18  C   LIG    1       24.370 -12.223   2.360  0.00  0.00    +0.000 A 
ATOM     19  C   LIG    1       23.923 -13.370   3.019  0.00  0.00    +0.007 A 
ENDBRANCH  13  14
BRANCH  13  20
ATOM     20  O   LIG    1       22.936 -15.547   4.240  0.00  0.00    -0.376 OA
ATOM     21  H   LIG    1       22.683 -16.461   4.008  0.00  0.00    +0.211 HD
ENDBRANCH  13  20
ENDBRANCH   1  13
TORSDOF 5
ENDMDL
MODEL 6
REMARK VINA RESULT:      -3.9      1.176      1.759
REMARK  Name = *****
REMARK                            x       y       z     vdW  Elec       q    Type
REMARK                         _______ _______ _______ _____ _____    ______ ____
ROOT
ATOM      1  C   LIG    1       26.873 -17.400   3.938  0.00  0.00    +0.341 C 
ATOM      2  O   LIG    1       27.973 -17.384   4.484  0.00  0.00    -0.247 OA
ENDROOT
BRANCH   1   3
ATOM      3  O   LIG    1       26.063 -16.318   3.752  0.00  0.00    -0.459 OA
BRANCH   3  11
ATOM      4  C   LIG    1       23.857 -14.077   4.305  0.00  0.00    +0.007 C 
ATOM      5  C   LIG    1       24.842 -13.448   3.320  0.00  0.00    -0.010 C 
ATOM      6  C   LIG    1       25.965 -12.647   3.995  0.00  0.00    +0.010 C 
ATOM      7  C   LIG    1       27.165 -13.457   4.537  0.00  0.00    -0.031 C 
ATOM      8  C   LIG    1       28.321 -12.464   4.812  0.00  0.00    +0.011 C 
ATOM      9  C   LIG    1       26.844 -14.130   5.883  0.00  0.00    +0.011 C 
ATOM     10  C   LIG    1       27.645 -14.488   3.489  0.00  0.00    +0.051 C 
ATOM     11  C   LIG    1       26.542 -15.327   2.825  0.00  0.00    +0.177 C 
ATOM     12  C   LIG    1       25.398 -14.452   2.303  0.00  0.00    +0.048 C 
ENDBRANCH   3  11
ENDBRANCH   1   3
BRANCH   1  13
ATOM     13  C   LIG    1       26.226 -18.687   3.405  0.00  0.00    +0.253 C 
BRANCH  13  14
ATOM     14  C   LIG    1       25.010 -19.117   4.190  0.00  0.00    -0.008 A 
ATOM     15  C   LIG    1       25.132 -20.057   5.225  0.00  0.00    +0.007 A 
ATOM     16  C   LIG    1       24.006 -20.491   5.927  0.00  0.00    +0.000 A 
ATOM     17  C   LIG    1       22.745 -19.993   5.604  0.00  0.00    +0.000 A 
ATOM     18  C   LIG    1       22.608 -19.057   4.582  0.00  0.00    +0.000 A 
ATOM     19  C   LIG    1       23.733 -18.620   3.880  0.00  0.00    +0.007 A 
ENDBRANCH  13  14
BRANCH  13  20
ATOM     20  O   LIG    1       25.837 -18.533   2.037  0.00  0.00    -0.376 OA
ATOM     21  H   LIG    1       25.083 -17.913   2.038  0.00  0.00    +0.211 HD
ENDBRANCH  13  20
ENDBRANCH   1  13
TORSDOF 5
ENDMDL
MODEL 7
REMARK VINA RESULT:      -3.7      0.967      2.370
REMARK  Name = *****
REMARK                            x       y       z     vdW  Elec       q    Type
REMARK                         _______ _______ _______ _____ _____    ______ ____
ROOT
ATOM      1  C   LIG    1       25.352 -17.260   3.415  0.00  0.00    +0.341 C 
ATOM      2  O   LIG    1       26.479 -17.726   3.557  0.00  0.00    -0.247 OA
ENDROOT
BRANCH   1   3
ATOM      3  O   LIG    1       25.056 -15.942   3.226  0.00  0.00    -0.459 OA
BRANCH   3  11
ATOM      4  C   LIG    1       27.556 -14.081   2.530  0.00  0.00    +0.007 C 
ATOM      5  C   LIG    1       26.986 -13.530   3.838  0.00  0.00    -0.010 C 
ATOM      6  C   LIG    1       25.966 -12.400   3.641  0.00  0.00    +0.010 C 
ATOM      7  C   LIG    1       24.520 -12.823   3.295  0.00  0.00    -0.031 C 
ATOM      8  C   LIG    1       23.601 -11.597   3.520  0.00  0.00    +0.011 C 
ATOM      9  C   LIG    1       24.372 -13.207   1.812  0.00  0.00    +0.011 C 
ATOM     10  C   LIG    1       24.049 -13.965   4.226  0.00  0.00    +0.051 C 
ATOM     11  C   LIG    1       25.038 -15.126   4.411  0.00  0.00    +0.177 C 
ATOM     12  C   LIG    1       26.443 -14.625   4.765  0.00  0.00    +0.048 C 
ENDBRANCH   3  11
ENDBRANCH   1   3
BRANCH   1  13
ATOM     13  C   LIG    1       24.083 -18.121   3.465  0.00  0.00    +0.253 C 
BRANCH  13  14
ATOM     14  C   LIG    1       24.190 -19.294   4.411  0.00  0.00    -0.008 A 
ATOM     15  C   LIG    1       23.094 -19.668   5.203  0.00  0.00    +0.007 A 
ATOM     16  C   LIG    1       23.200 -20.725   6.109  0.00  0.00    +0.000 A 
ATOM     17  C   LIG    1       24.401 -21.421   6.237  0.00  0.00    +0.000 A 
ATOM     18  C   LIG    1       25.496 -21.064   5.455  0.00  0.00    +0.000 A 
ATOM     19  C   LIG    1       25.393 -20.009   4.546  0.00  0.00    +0.007 A 
ENDBRANCH  13  14
BRANCH  13  20
ATOM     20  O   LIG    1       22.951 -17.340   3.858  0.00  0.00    -0.376 OA
ATOM     21  H   LIG    1       22.650 -16.875   3.055  0.00  0.00    +0.211 HD
ENDBRANCH  13  20
ENDBRANCH   1  13
TORSDOF 5
ENDMDL
MODEL 8
REMARK VINA RESULT:      -3.6      1.287      6.904
REMARK  Name = *****
REMARK                            x       y       z     vdW  Elec       q    Type
REMARK                         _______ _______ _______ _____ _____    ______ ____
ROOT
ATOM      1  C   LIG    1       23.980 -16.635   4.026  0.00  0.00    +0.341 C 
ATOM      2  O   LIG    1       23.072 -15.852   4.290  0.00  0.00    -0.247 OA
ENDROOT
BRANCH   1   3
ATOM      3  O   LIG    1       24.069 -17.924   4.463  0.00  0.00    -0.459 OA
BRANCH   3  11
ATOM      4  C   LIG    1       25.184 -20.492   2.927  0.00  0.00    +0.007 C 
ATOM      5  C   LIG    1       23.735 -20.824   3.282  0.00  0.00    -0.010 C 
ATOM      6  C   LIG    1       23.581 -21.569   4.616  0.00  0.00    +0.010 C 
ATOM      7  C   LIG    1       23.602 -20.706   5.899  0.00  0.00    -0.031 C 
ATOM      8  C   LIG    1       23.055 -21.572   7.060  0.00  0.00    +0.011 C 
ATOM      9  C   LIG    1       25.032 -20.302   6.297  0.00  0.00    +0.011 C 
ATOM     10  C   LIG    1       22.688 -19.469   5.738  0.00  0.00    +0.051 C 
ATOM     11  C   LIG    1       22.848 -18.686   4.426  0.00  0.00    +0.177 C 
ATOM     12  C   LIG    1       22.803 -19.608   3.203  0.00  0.00    +0.048 C 
ENDBRANCH   3  11
ENDBRANCH   1   3
BRANCH   1  13
ATOM     13  C   LIG    1       25.192 -16.245   3.169  0.00  0.00    +0.253 C 
BRANCH  13  14
ATOM     14  C   LIG    1       25.962 -15.067   3.718  0.00  0.00    -0.008 A 
ATOM     15  C   LIG    1       27.328 -14.921   3.436  0.00  0.00    +0.007 A 
ATOM     16  C   LIG    1       28.055 -13.857   3.974  0.00  0.00    +0.000 A 
ATOM     17  C   LIG    1       27.427 -12.928   4.801  0.00  0.00    +0.000 A 
ATOM     18  C   LIG    1       26.071 -13.057   5.087  0.00  0.00    +0.000 A 
ATOM     19  C   LIG    1       25.341 -14.119   4.548  0.00  0.00    +0.007 A 
ENDBRANCH  13  14
BRANCH  13  20
ATOM     20  O   LIG    1       26.100 -17.343   3.039  0.00  0.00    -0.376 OA
ATOM     21  H   LIG    1       26.664 -17.324   3.836  0.00  0.00    +0.211 HD
ENDBRANCH  13  20
ENDBRANCH   1  13
TORSDOF 5
ENDMDL
MODEL 9
REMARK VINA RESULT:      -3.5      1.797      6.577
REMARK  Name = *****
REMARK                            x       y       z     vdW  Elec       q    Type
REMARK                         _______ _______ _______ _____ _____    ______ ____
ROOT
ATOM      1  C   LIG    1       26.795 -19.238   4.865  0.00  0.00    +0.341 C 
ATOM      2  O   LIG    1       27.240 -20.119   5.596  0.00  0.00    -0.247 OA
ENDROOT
BRANCH   1   3
ATOM      3  O   LIG    1       25.475 -19.004   4.615  0.00  0.00    -0.459 OA
BRANCH   3  11
ATOM      4  C   LIG    1       23.944 -20.586   6.929  0.00  0.00    +0.007 C 
ATOM      5  C   LIG    1       23.470 -21.215   5.618  0.00  0.00    -0.010 C 
ATOM      6  C   LIG    1       22.183 -20.589   5.062  0.00  0.00    +0.010 C 
ATOM      7  C   LIG    1       22.340 -19.273   4.267  0.00  0.00    -0.031 C 
ATOM      8  C   LIG    1       21.025 -19.031   3.487  0.00  0.00    +0.011 C 
ATOM      9  C   LIG    1       22.523 -18.059   5.195  0.00  0.00    +0.011 C 
ATOM     10  C   LIG    1       23.499 -19.386   3.248  0.00  0.00    +0.051 C 
ATOM     11  C   LIG    1       24.809 -19.977   3.790  0.00  0.00    +0.177 C 
ATOM     12  C   LIG    1       24.571 -21.285   4.553  0.00  0.00    +0.048 C 
ENDBRANCH   3  11
ENDBRANCH   1   3
BRANCH   1  13
ATOM     13  C   LIG    1       27.697 -18.273   4.081  0.00  0.00    +0.253 C 
BRANCH  13  14
ATOM     14  C   LIG    1       27.121 -16.882   3.956  0.00  0.00    -0.008 A 
ATOM     15  C   LIG    1       25.855 -16.689   3.385  0.00  0.00    +0.007 A 
ATOM     16  C   LIG    1       25.334 -15.403   3.228  0.00  0.00    +0.000 A 
ATOM     17  C   LIG    1       26.072 -14.295   3.639  0.00  0.00    +0.000 A 
ATOM     18  C   LIG    1       27.329 -14.470   4.211  0.00  0.00    +0.000 A 
ATOM     19  C   LIG    1       27.850 -15.755   4.372  0.00  0.00    +0.007 A 
ENDBRANCH  13  14
BRANCH  13  20
ATOM     20  O   LIG    1       28.984 -18.165   4.696  0.00  0.00    -0.376 OA
ATOM     21  H   LIG    1       29.074 -17.233   4.971  0.00  0.00    +0.211 HD
ENDBRANCH  13  20
ENDBRANCH   1  13
TORSDOF 5
ENDMDL
