MODEL 1
REMARK VINA RESULT:      -4.5      0.000      0.000
REMARK  Name = *****
REMARK                            x       y       z     vdW  Elec       q    Type
REMARK                         _______ _______ _______ _____ _____    ______ ____
ROOT
ATOM      1  N   LIG    1       27.128 -13.356   4.221  0.00  0.00    -0.186 N 
ATOM      2  H   LIG    1       26.776 -13.472   5.157  0.00  0.00    +0.271 HD
ENDROOT
BRANCH   1   3
ATOM      3  C   LIG    1       26.238 -13.669   3.228  0.00  0.00    +0.390 C 
ATOM      4  N   LIG    1       26.663 -14.205   2.127  0.00  0.00    -0.129 NA
ATOM      5  H   LIG    1       25.883 -14.394   1.502  0.00  0.00    +0.306 HD
BRANCH   3   7
ATOM      6  C   LIG    1       24.183 -12.306   2.898  0.00  0.00    +0.241 C 
ATOM      7  N   LIG    1       24.909 -13.420   3.506  0.00  0.00    -0.268 N 
ATOM      8  C   LIG    1       24.047 -14.438   4.100  0.00  0.00    +0.241 C 
ENDBRANCH   3   7
ENDBRANCH   1   3
BRANCH   1   9
ATOM      9  C   LIG    1       28.416 -12.947   4.198  0.00  0.00    +0.386 C 
ATOM     10  N   LIG    1       29.324 -13.264   3.336  0.00  0.00    -0.129 NA
ATOM     11  H   LIG    1       28.857 -13.918   2.686  0.00  0.00    +0.306 HD
BRANCH   9  12
ATOM     12  N   LIG    1       28.755 -12.133   5.225  0.00  0.00    -0.289 N 
ATOM     13  H   LIG    1       29.202 -12.714   5.933  0.00  0.00    +0.255 HD
ATOM     14  H   LIG    1       27.932 -11.708   5.645  0.00  0.00    +0.255 HD
ENDBRANCH   9  12
ENDBRANCH   1   9
TORSDOF 4
ENDMDL
MODEL 2
REMARK VINA RESULT:      -4.5      0.150      1.164
REMARK  Name = *****
REMARK                            x       y       z     vdW  Elec       q    Type
REMARK                         _______ _______ _______ _____ _____    ______ ____
ROOT
ATOM      1  N   LIG    1       27.098 -13.318   4.119  0.00  0.00    -0.186 N 
ATOM      2  H   LIG    1       26.661 -13.368   5.025  0.00  0.00    +0.271 HD
ENDROOT
BRANCH   1   3
ATOM      3  C   LIG    1       26.290 -13.668   3.070  0.00  0.00    +0.390 C 
ATOM      4  N   LIG    1       26.814 -14.150   1.987  0.00  0.00    -0.129 NA
ATOM      5  H   LIG    1       26.086 -14.377   1.314  0.00  0.00    +0.306 HD
BRANCH   3   7
ATOM      6  C   LIG    1       24.190 -14.357   4.213  0.00  0.00    +0.241 C 
ATOM      7  N   LIG    1       24.933 -13.517   3.274  0.00  0.00    -0.268 N 
ATOM      8  C   LIG    1       24.231 -12.299   2.881  0.00  0.00    +0.241 C 
ENDBRANCH   3   7
ENDBRANCH   1   3
BRANCH   1   9
ATOM      9  C   LIG    1       28.394 -12.943   4.188  0.00  0.00    +0.386 C 
ATOM     10  N   LIG    1       29.343 -13.246   3.367  0.00  0.00    -0.129 NA
ATOM     11  H   LIG    1       28.899 -13.859   2.663  0.00  0.00    +0.306 HD
BRANCH   9  12
ATOM     12  N   LIG    1       28.692 -12.183   5.269  0.00  0.00    -0.289 N 
ATOM     13  H   LIG    1       28.143 -11.328   5.195  0.00  0.00    +0.255 HD
ATOM     14  H   LIG    1       29.675 -11.922   5.276  0.00  0.00    +0.255 HD
ENDBRANCH   9  12
ENDBRANCH   1   9
TORSDOF 4
ENDMDL
MODEL 3
REMARK VINA RESULT:      -4.2      1.311      3.660
REMARK  Name = *****
REMARK                            x       y       z     vdW  Elec       q    Type
REMARK                         _______ _______ _______ _____ _____    ______ ____
ROOT
ATOM      1  N   LIG    1       25.144 -13.541   3.348  0.00  0.00    -0.186 N 
ATOM      2  H   LIG    1       24.706 -14.213   3.957  0.00  0.00    +0.271 HD
ENDROOT
BRANCH   1   3
ATOM      3  C   LIG    1       26.456 -13.800   3.055  0.00  0.00    +0.390 C 
ATOM      4  N   LIG    1       26.786 -14.185   1.862  0.00  0.00    -0.129 NA
ATOM      5  H   LIG    1       27.793 -14.317   1.799  0.00  0.00    +0.306 HD
BRANCH   3   7
ATOM      6  C   LIG    1       28.693 -13.032   3.828  0.00  0.00    +0.241 C 
ATOM      7  N   LIG    1       27.360 -13.579   4.075  0.00  0.00    -0.268 N 
ATOM      8  C   LIG    1       26.936 -13.504   5.470  0.00  0.00    +0.241 C 
ENDBRANCH   3   7
ENDBRANCH   1   3
BRANCH   1   9
ATOM      9  C   LIG    1       24.313 -12.532   3.004  0.00  0.00    +0.386 C 
ATOM     10  N   LIG    1       24.014 -12.134   1.812  0.00  0.00    -0.129 NA
ATOM     11  H   LIG    1       24.570 -12.738   1.183  0.00  0.00    +0.306 HD
BRANCH   9  12
ATOM     12  N   LIG    1       23.773 -11.878   4.059  0.00  0.00    -0.289 N 
ATOM     13  H   LIG    1       23.977 -12.429   4.890  0.00  0.00    +0.255 HD
ATOM     14  H   LIG    1       22.761 -11.809   3.971  0.00  0.00    +0.255 HD
ENDBRANCH   9  12
ENDBRANCH   1   9
TORSDOF 4
ENDMDL
MODEL 4
REMARK VINA RESULT:      -4.1      6.638      7.060
REMARK  Name = *****
REMARK                            x       y       z     vdW  Elec       q    Type
REMARK                         _______ _______ _______ _____ _____    ______ ____
ROOT
ATOM      1  N   LIG    1       27.645 -20.063   5.195  0.00  0.00    -0.186 N 
ATOM      2  H   LIG    1       27.782 -20.485   4.290  0.00  0.00    +0.271 HD
ENDROOT
BRANCH   1   3
ATOM      3  C   LIG    1       26.432 -20.323   5.774  0.00  0.00    +0.390 C 
ATOM      4  N   LIG    1       26.344 -20.439   7.062  0.00  0.00    -0.129 NA
ATOM      5  H   LIG    1       25.380 -20.611   7.336  0.00  0.00    +0.306 HD
BRANCH   3   7
ATOM      6  C   LIG    1       25.230 -19.532   3.744  0.00  0.00    +0.241 C 
ATOM      7  N   LIG    1       25.354 -20.400   4.914  0.00  0.00    -0.268 N 
ATOM      8  C   LIG    1       24.484 -21.572   4.880  0.00  0.00    +0.241 C 
ENDBRANCH   3   7
ENDBRANCH   1   3
BRANCH   1   9
ATOM      9  C   LIG    1       28.702 -19.315   5.584  0.00  0.00    +0.386 C 
ATOM     10  N   LIG    1       29.116 -18.211   5.060  0.00  0.00    -0.129 NA
ATOM     11  H   LIG    1       28.480 -18.040   4.263  0.00  0.00    +0.306 HD
BRANCH   9  12
ATOM     12  N   LIG    1       29.388 -19.832   6.631  0.00  0.00    -0.289 N 
ATOM     13  H   LIG    1       28.765 -20.483   7.105  0.00  0.00    +0.255 HD
ATOM     14  H   LIG    1       29.645 -19.107   7.297  0.00  0.00    +0.255 HD
ENDBRANCH   9  12
ENDBRANCH   1   9
TORSDOF 4
ENDMDL
MODEL 5
REMARK VINA RESULT:      -4.0      6.823      7.359
REMARK  Name = *****
REMARK                            x       y       z     vdW  Elec       q    Type
REMARK                         _______ _______ _______ _____ _____    ______ ____
ROOT
ATOM      1  N   LIG    1       27.432 -20.060   5.186  0.00  0.00    -0.186 N 
ATOM      2  H   LIG    1       27.424 -20.055   4.178  0.00  0.00    +0.271 HD
ENDROOT
BRANCH   1   3
ATOM      3  C   LIG    1       26.250 -20.431   5.769  0.00  0.00    +0.390 C 
ATOM      4  N   LIG    1       26.147 -20.449   7.060  0.00  0.00    -0.129 NA
ATOM      5  H   LIG    1       25.208 -20.725   7.336  0.00  0.00    +0.306 HD
BRANCH   3   7
ATOM      6  C   LIG    1       24.090 -21.572   5.297  0.00  0.00    +0.241 C 
ATOM      7  N   LIG    1       25.214 -20.723   4.904  0.00  0.00    -0.268 N 
ATOM      8  C   LIG    1       24.964 -19.922   3.710  0.00  0.00    +0.241 C 
ENDBRANCH   3   7
ENDBRANCH   1   3
BRANCH   1   9
ATOM      9  C   LIG    1       28.618 -19.663   5.697  0.00  0.00    +0.386 C 
ATOM     10  N   LIG    1       29.307 -20.243   6.622  0.00  0.00    -0.129 NA
ATOM     11  H   LIG    1       28.740 -21.061   6.902  0.00  0.00    +0.306 HD
BRANCH   9  12
ATOM     12  N   LIG    1       29.089 -18.509   5.168  0.00  0.00    -0.289 N 
ATOM     13  H   LIG    1       30.053 -18.681   4.885  0.00  0.00    +0.255 HD
ATOM     14  H   LIG    1       29.096 -17.762   5.859  0.00  0.00    +0.255 HD
ENDBRANCH   9  12
ENDBRANCH   1   9
TORSDOF 4
ENDMDL
MODEL 6
REMARK VINA RESULT:      -4.0      1.367      4.003
REMARK  Name = *****
REMARK                            x       y       z     vdW  Elec       q    Type
REMARK                         _______ _______ _______ _____ _____    ______ ____
ROOT
ATOM      1  N   LIG    1       25.452 -14.741   3.690  0.00  0.00    -0.186 N 
ATOM      2  H   LIG    1       25.624 -15.644   4.100  0.00  0.00    +0.271 HD
ENDROOT
BRANCH   1   3
ATOM      3  C   LIG    1       26.561 -14.116   3.186  0.00  0.00    +0.390 C 
ATOM      4  N   LIG    1       26.791 -14.140   1.911  0.00  0.00    -0.129 NA
ATOM      5  H   LIG    1       27.636 -13.619   1.694  0.00  0.00    +0.306 HD
BRANCH   3   7
ATOM      6  C   LIG    1       27.043 -13.442   5.532  0.00  0.00    +0.241 C 
ATOM      7  N   LIG    1       27.350 -13.450   4.103  0.00  0.00    -0.268 N 
ATOM      8  C   LIG    1       28.717 -13.046   3.786  0.00  0.00    +0.241 C 
ENDBRANCH   3   7
ENDBRANCH   1   3
BRANCH   1   9
ATOM      9  C   LIG    1       24.155 -14.369   3.778  0.00  0.00    +0.386 C 
ATOM     10  N   LIG    1       23.233 -14.908   4.504  0.00  0.00    -0.129 NA
ATOM     11  H   LIG    1       23.698 -15.699   4.980  0.00  0.00    +0.306 HD
BRANCH   9  12
ATOM     12  N   LIG    1       23.824 -13.326   2.981  0.00  0.00    -0.289 N 
ATOM     13  H   LIG    1       24.691 -12.964   2.587  0.00  0.00    +0.255 HD
ATOM     14  H   LIG    1       23.389 -12.578   3.516  0.00  0.00    +0.255 HD
ENDBRANCH   9  12
ENDBRANCH   1   9
TORSDOF 4
ENDMDL
MODEL 7
REMARK VINA RESULT:      -3.9      1.360      1.940
REMARK  Name = *****
REMARK                            x       y       z     vdW  Elec       q    Type
REMARK                         _______ _______ _______ _____ _____    ______ ____
ROOT
ATOM      1  N   LIG    1       26.240 -13.749   2.418  0.00  0.00    -0.186 N 
ATOM      2  H   LIG    1       26.276 -14.137   1.489  0.00  0.00    +0.271 HD
ENDROOT
BRANCH   1   3
ATOM      3  C   LIG    1       25.126 -13.000   2.686  0.00  0.00    +0.390 C 
ATOM      4  N   LIG    1       24.700 -12.143   1.812  0.00  0.00    -0.129 NA
ATOM      5  H   LIG    1       23.858 -11.683   2.149  0.00  0.00    +0.306 HD
BRANCH   3   7
ATOM      6  C   LIG    1       24.096 -12.189   4.801  0.00  0.00    +0.241 C 
ATOM      7  N   LIG    1       24.497 -13.259   3.888  0.00  0.00    -0.268 N 
ATOM      8  C   LIG    1       23.852 -14.541   4.155  0.00  0.00    +0.241 C 
ENDBRANCH   3   7
ENDBRANCH   1   3
BRANCH   1   9
ATOM      9  C   LIG    1       27.335 -14.052   3.151  0.00  0.00    +0.386 C 
ATOM     10  N   LIG    1       27.573 -15.150   3.786  0.00  0.00    -0.129 NA
ATOM     11  H   LIG    1       26.733 -15.733   3.634  0.00  0.00    +0.306 HD
BRANCH   9  12
ATOM     12  N   LIG    1       28.248 -13.055   3.217  0.00  0.00    -0.289 N 
ATOM     13  H   LIG    1       29.065 -13.428   3.696  0.00  0.00    +0.255 HD
ATOM     14  H   LIG    1       27.898 -12.271   3.763  0.00  0.00    +0.255 HD
ENDBRANCH   9  12
ENDBRANCH   1   9
TORSDOF 4
ENDMDL
MODEL 8
REMARK VINA RESULT:      -3.9      6.775      7.443
REMARK  Name = *****
REMARK                            x       y       z     vdW  Elec       q    Type
REMARK                         _______ _______ _______ _____ _____    ______ ____
ROOT
ATOM      1  N   LIG    1       25.850 -20.823   5.547  0.00  0.00    -0.186 N 
ATOM      2  H   LIG    1       25.555 -21.669   6.009  0.00  0.00    +0.271 HD
ENDROOT
BRANCH   1   3
ATOM      3  C   LIG    1       24.922 -20.272   4.706  0.00  0.00    +0.390 C 
ATOM      4  N   LIG    1       25.285 -19.837   3.540  0.00  0.00    -0.129 NA
ATOM      5  H   LIG    1       24.483 -19.478   3.031  0.00  0.00    +0.306 HD
BRANCH   3   7
ATOM      6  C   LIG    1       23.220 -20.961   6.385  0.00  0.00    +0.241 C 
ATOM      7  N   LIG    1       23.619 -20.264   5.163  0.00  0.00    -0.268 N 
ATOM      8  C   LIG    1       22.651 -19.274   4.701  0.00  0.00    +0.241 C 
ENDBRANCH   3   7
ENDBRANCH   1   3
BRANCH   1   9
ATOM      9  C   LIG    1       27.116 -20.472   5.866  0.00  0.00    +0.386 C 
ATOM     10  N   LIG    1       27.932 -19.759   5.165  0.00  0.00    -0.129 NA
ATOM     11  H   LIG    1       27.415 -19.539   4.298  0.00  0.00    +0.306 HD
BRANCH   9  12
ATOM     12  N   LIG    1       27.543 -20.965   7.053  0.00  0.00    -0.289 N 
ATOM     13  H   LIG    1       26.915 -20.607   7.770  0.00  0.00    +0.255 HD
ATOM     14  H   LIG    1       28.483 -20.640   7.270  0.00  0.00    +0.255 HD
ENDBRANCH   9  12
ENDBRANCH   1   9
TORSDOF 4
ENDMDL
MODEL 9
REMARK VINA RESULT:      -3.9      1.530      3.905
REMARK  Name = *****
REMARK                            x       y       z     vdW  Elec       q    Type
REMARK                         _______ _______ _______ _____ _____    ______ ____
ROOT
ATOM      1  N   LIG    1       25.164 -13.585   4.424  0.00  0.00    -0.186 N 
ATOM      2  H   LIG    1       24.764 -14.508   4.492  0.00  0.00    +0.271 HD
ENDROOT
BRANCH   1   3
ATOM      3  C   LIG    1       26.481 -13.501   4.785  0.00  0.00    +0.390 C 
ATOM      4  N   LIG    1       26.798 -13.302   6.026  0.00  0.00    -0.129 NA
ATOM      5  H   LIG    1       27.808 -13.283   6.135  0.00  0.00    +0.306 HD
BRANCH   3   7
ATOM      6  C   LIG    1       27.015 -14.193   2.456  0.00  0.00    +0.241 C 
ATOM      7  N   LIG    1       27.400 -13.685   3.771  0.00  0.00    -0.268 N 
ATOM      8  C   LIG    1       28.711 -13.042   3.799  0.00  0.00    +0.241 C 
ENDBRANCH   3   7
ENDBRANCH   1   3
BRANCH   1   9
ATOM      9  C   LIG    1       24.266 -12.660   4.017  0.00  0.00    +0.386 C 
ATOM     10  N   LIG    1       23.766 -12.519   2.835  0.00  0.00    -0.129 NA
ATOM     11  H   LIG    1       24.223 -13.251   2.265  0.00  0.00    +0.306 HD
BRANCH   9  12
ATOM     12  N   LIG    1       23.895 -11.788   4.984  0.00  0.00    -0.289 N 
ATOM     13  H   LIG    1       22.959 -12.055   5.285  0.00  0.00    +0.255 HD
ATOM     14  H   LIG    1       23.848 -10.837   4.625  0.00  0.00    +0.255 HD
ENDBRANCH   9  12
ENDBRANCH   1   9
TORSDOF 4
ENDMDL
