MODEL 1
REMARK VINA RESULT:       2.4      0.000      0.000
REMARK  Name = *****
REMARK                            x       y       z     vdW  Elec       q    Type
REMARK                         _______ _______ _______ _____ _____    ______ ____
ROOT
ATOM      1 CL   LIG    1       25.690 -13.243   3.468  0.00  0.00    -0.084 Cl
ATOM      2  C   LIG    1       25.018 -14.808   3.721  0.00  0.00    +0.041 A 
ATOM      3  C   LIG    1       25.668 -15.930   3.203  0.00  0.00    +0.024 A 
ATOM      4  C   LIG    1       25.128 -17.207   3.405  0.00  0.00    -0.038 A 
ATOM      5  C   LIG    1       25.838 -18.443   2.907  0.00  0.00    +0.040 C 
ATOM      6  C   LIG    1       26.407 -19.283   4.058  0.00  0.00    +0.042 C 
ATOM      7  C   LIG    1       25.470 -19.907   5.074  0.00  0.00    -0.021 A 
ATOM      8  C   LIG    1       24.097 -19.650   5.207  0.00  0.00    +0.075 A 
ATOM      9  C   LIG    1       23.367 -18.701   4.322  0.00  0.00    +0.007 C 
ATOM     10  C   LIG    1       22.252 -19.078   3.637  0.00  0.00    -0.057 C 
ATOM     11  C   LIG    1       21.602 -20.454   3.701  0.00  0.00    +0.046 C 
ATOM     12  C   LIG    1       20.135 -20.325   4.138  0.00  0.00    +0.085 C 
ATOM     13  N   LIG    1       19.352 -19.458   3.239  0.00  0.00    -0.315 NA
ATOM     14  H   LIG    1       19.352 -19.879   2.311  0.00  0.00    +0.122 HD
ATOM     15  C   LIG    1       19.978 -18.130   3.149  0.00  0.00    +0.085 C 
ATOM     16  C   LIG    1       21.447 -18.190   2.697  0.00  0.00    +0.046 C 
ATOM     17  N   LIG    1       23.339 -20.195   6.198  0.00  0.00    -0.255 NA
ATOM     18  C   LIG    1       23.936 -21.040   7.062  0.00  0.00    +0.111 A 
ATOM     19  C   LIG    1       25.274 -21.371   7.003  0.00  0.00    +0.020 A 
ATOM     20  C   LIG    1       26.045 -20.794   6.003  0.00  0.00    +0.007 A 
ATOM     21  C   LIG    1       23.923 -17.342   4.115  0.00  0.00    -0.013 A 
ATOM     22  C   LIG    1       23.294 -16.212   4.655  0.00  0.00    +0.010 A 
ATOM     23  C   LIG    1       23.839 -14.943   4.449  0.00  0.00    +0.020 A 
ENDROOT
TORSDOF 0
ENDMDL
