MODEL 1
REMARK VINA RESULT:      -1.0      0.000      0.000
REMARK  Name = *****
REMARK                            x       y       z     vdW  Elec       q    Type
REMARK                         _______ _______ _______ _____ _____    ______ ____
ROOT
ATOM      1  O   LIG    1       24.844 -18.359   3.295  0.00  0.00    -0.252 OA
ATOM      2  C   LIG    1       24.978 -17.205   3.655  0.00  0.00    +0.306 C 
ATOM      3  N   LIG    1       26.178 -16.512   3.772  0.00  0.00    -0.272 N 
ATOM      4  C   LIG    1       25.981 -15.188   4.356  0.00  0.00    +0.152 C 
ATOM      5  C   LIG    1       24.443 -15.004   4.328  0.00  0.00    +0.155 C 
ATOM      6  C   LIG    1       24.066 -13.991   3.225  0.00  0.00    +0.230 C 
ATOM      7  S   LIG    1       25.553 -13.717   2.150  0.00  0.00    -0.004 S 
ATOM      8  C   LIG    1       25.417 -11.898   2.279  0.00  0.00    +0.278 C 
ATOM      9  C   LIG    1       23.993 -11.603   2.715  0.00  0.00    +0.059 C 
ATOM     10  C   LIG    1       23.676 -12.623   3.792  0.00  0.00    +0.064 C 
ATOM     11  C   LIG    1       26.616 -14.024   3.602  0.00  0.00    +0.302 C 
ATOM     12  N   LIG    1       23.958 -16.350   4.053  0.00  0.00    -0.271 N 
ENDROOT
BRANCH   3  13
ATOM     13  C   LIG    1       27.470 -17.134   3.538  0.00  0.00    +0.145 C 
BRANCH  13  14
ATOM     14  C   LIG    1       27.886 -18.127   4.599  0.00  0.00    -0.030 A 
ATOM     15  C   LIG    1       27.155 -19.305   4.814  0.00  0.00    +0.005 A 
ATOM     16  C   LIG    1       27.576 -20.240   5.765  0.00  0.00    +0.000 A 
ATOM     17  C   LIG    1       28.732 -20.011   6.508  0.00  0.00    +0.000 A 
ATOM     18  C   LIG    1       29.473 -18.850   6.297  0.00  0.00    +0.000 A 
ATOM     19  C   LIG    1       29.056 -17.916   5.346  0.00  0.00    +0.005 A 
ENDBRANCH  13  14
ENDBRANCH   3  13
BRANCH  12  20
ATOM     20  C   LIG    1       22.560 -16.734   4.091  0.00  0.00    +0.145 C 
BRANCH  20  21
ATOM     21  C   LIG    1       22.350 -18.177   4.484  0.00  0.00    -0.030 A 
ATOM     22  C   LIG    1       21.501 -19.005   3.736  0.00  0.00    +0.005 A 
ATOM     23  C   LIG    1       21.353 -20.355   4.067  0.00  0.00    +0.000 A 
ATOM     24  C   LIG    1       22.054 -20.891   5.145  0.00  0.00    +0.000 A 
ATOM     25  C   LIG    1       22.897 -20.078   5.900  0.00  0.00    +0.000 A 
ATOM     26  C   LIG    1       23.044 -18.728   5.573  0.00  0.00    +0.005 A 
ENDBRANCH  20  21
ENDBRANCH  12  20
TORSDOF 4
ENDMDL
MODEL 2
REMARK VINA RESULT:      -0.3      1.859      5.868
REMARK  Name = *****
REMARK                            x       y       z     vdW  Elec       q    Type
REMARK                         _______ _______ _______ _____ _____    ______ ____
ROOT
ATOM      1  O   LIG    1       26.217 -16.936   2.915  0.00  0.00    -0.252 OA
ATOM      2  C   LIG    1       25.267 -17.311   3.576  0.00  0.00    +0.306 C 
ATOM      3  N   LIG    1       24.179 -16.539   3.967  0.00  0.00    -0.272 N 
ATOM      4  C   LIG    1       23.290 -17.275   4.862  0.00  0.00    +0.152 C 
ATOM      5  C   LIG    1       23.800 -18.734   4.761  0.00  0.00    +0.155 C 
ATOM      6  C   LIG    1       22.798 -19.573   3.937  0.00  0.00    +0.230 C 
ATOM      7  S   LIG    1       21.619 -18.415   3.095  0.00  0.00    -0.004 S 
ATOM      8  C   LIG    1       20.156 -19.337   3.688  0.00  0.00    +0.278 C 
ATOM      9  C   LIG    1       20.646 -20.722   4.071  0.00  0.00    +0.059 C 
ATOM     10  C   LIG    1       21.951 -20.502   4.812  0.00  0.00    +0.064 C 
ATOM     11  C   LIG    1       21.810 -17.258   4.495  0.00  0.00    +0.302 C 
ATOM     12  N   LIG    1       25.091 -18.584   4.102  0.00  0.00    -0.271 N 
ENDROOT
BRANCH   3  13
ATOM     13  C   LIG    1       24.081 -15.118   3.681  0.00  0.00    +0.145 C 
BRANCH  13  14
ATOM     14  C   LIG    1       25.385 -14.364   3.806  0.00  0.00    -0.030 A 
ATOM     15  C   LIG    1       25.949 -14.096   5.063  0.00  0.00    +0.005 A 
ATOM     16  C   LIG    1       27.180 -13.441   5.166  0.00  0.00    +0.000 A 
ATOM     17  C   LIG    1       27.863 -13.051   4.017  0.00  0.00    +0.000 A 
ATOM     18  C   LIG    1       27.320 -13.320   2.762  0.00  0.00    +0.000 A 
ATOM     19  C   LIG    1       26.092 -13.977   2.657  0.00  0.00    +0.005 A 
ENDBRANCH  13  14
ENDBRANCH   3  13
BRANCH  12  20
ATOM     20  C   LIG    1       26.043 -19.663   3.926  0.00  0.00    +0.145 C 
BRANCH  20  21
ATOM     21  C   LIG    1       27.052 -19.755   5.046  0.00  0.00    -0.030 A 
ATOM     22  C   LIG    1       26.911 -20.717   6.057  0.00  0.00    +0.005 A 
ATOM     23  C   LIG    1       27.876 -20.839   7.060  0.00  0.00    +0.000 A 
ATOM     24  C   LIG    1       28.992 -20.006   7.062  0.00  0.00    +0.000 A 
ATOM     25  C   LIG    1       29.142 -19.043   6.065  0.00  0.00    +0.000 A 
ATOM     26  C   LIG    1       28.178 -18.916   5.064  0.00  0.00    +0.005 A 
ENDBRANCH  20  21
ENDBRANCH  12  20
TORSDOF 4
ENDMDL
MODEL 3
REMARK VINA RESULT:       0.3      1.955      5.715
REMARK  Name = *****
REMARK                            x       y       z     vdW  Elec       q    Type
REMARK                         _______ _______ _______ _____ _____    ______ ____
ROOT
ATOM      1  O   LIG    1       24.912 -16.371   3.572  0.00  0.00    -0.252 OA
ATOM      2  C   LIG    1       25.938 -17.012   3.701  0.00  0.00    +0.306 C 
ATOM      3  N   LIG    1       27.204 -16.498   3.960  0.00  0.00    -0.272 N 
ATOM      4  C   LIG    1       28.226 -17.540   3.923  0.00  0.00    +0.152 C 
ATOM      5  C   LIG    1       27.406 -18.853   3.895  0.00  0.00    +0.155 C 
ATOM      6  C   LIG    1       27.502 -19.549   5.271  0.00  0.00    +0.230 C 
ATOM      7  S   LIG    1       28.225 -18.346   6.485  0.00  0.00    -0.004 S 
ATOM      8  C   LIG    1       29.475 -19.549   7.062  0.00  0.00    +0.278 C 
ATOM      9  C   LIG    1       28.967 -20.923   6.662  0.00  0.00    +0.059 C 
ATOM     10  C   LIG    1       28.432 -20.765   5.251  0.00  0.00    +0.064 C 
ATOM     11  C   LIG    1       29.172 -17.590   5.118  0.00  0.00    +0.302 C 
ATOM     12  N   LIG    1       26.059 -18.390   3.586  0.00  0.00    -0.271 N 
ENDROOT
BRANCH   3  13
ATOM     13  C   LIG    1       27.472 -15.072   4.038  0.00  0.00    +0.145 C 
BRANCH  13  14
ATOM     14  C   LIG    1       26.298 -14.195   3.666  0.00  0.00    -0.030 A 
ATOM     15  C   LIG    1       25.416 -13.711   4.644  0.00  0.00    +0.005 A 
ATOM     16  C   LIG    1       24.361 -12.862   4.295  0.00  0.00    +0.000 A 
ATOM     17  C   LIG    1       24.178 -12.483   2.968  0.00  0.00    +0.000 A 
ATOM     18  C   LIG    1       25.053 -12.947   1.987  0.00  0.00    +0.000 A 
ATOM     19  C   LIG    1       26.108 -13.794   2.334  0.00  0.00    +0.005 A 
ENDBRANCH  13  14
ENDBRANCH   3  13
BRANCH  12  20
ATOM     20  C   LIG    1       24.945 -19.270   3.289  0.00  0.00    +0.145 C 
BRANCH  20  21
ATOM     21  C   LIG    1       24.326 -19.883   4.523  0.00  0.00    -0.030 A 
ATOM     22  C   LIG    1       23.049 -19.493   4.950  0.00  0.00    +0.005 A 
ATOM     23  C   LIG    1       22.453 -20.103   6.057  0.00  0.00    +0.000 A 
ATOM     24  C   LIG    1       23.126 -21.109   6.746  0.00  0.00    +0.000 A 
ATOM     25  C   LIG    1       24.397 -21.503   6.335  0.00  0.00    +0.000 A 
ATOM     26  C   LIG    1       24.996 -20.893   5.231  0.00  0.00    +0.005 A 
ENDBRANCH  20  21
ENDBRANCH  12  20
TORSDOF 4
ENDMDL
MODEL 4
REMARK VINA RESULT:       0.5      1.837      5.319
REMARK  Name = *****
REMARK                            x       y       z     vdW  Elec       q    Type
REMARK                         _______ _______ _______ _____ _____    ______ ____
ROOT
ATOM      1  O   LIG    1       26.104 -15.545   4.438  0.00  0.00    -0.252 OA
ATOM      2  C   LIG    1       25.485 -16.512   4.036  0.00  0.00    +0.306 C 
ATOM      3  N   LIG    1       26.026 -17.730   3.641  0.00  0.00    -0.272 N 
ATOM      4  C   LIG    1       25.006 -18.620   3.093  0.00  0.00    +0.152 C 
ATOM      5  C   LIG    1       23.675 -17.918   3.462  0.00  0.00    +0.155 C 
ATOM      6  C   LIG    1       22.983 -18.694   4.604  0.00  0.00    +0.230 C 
ATOM      7  S   LIG    1       24.201 -19.900   5.313  0.00  0.00    -0.004 S 
ATOM      8  C   LIG    1       23.024 -21.294   5.186  0.00  0.00    +0.278 C 
ATOM      9  C   LIG    1       21.640 -20.680   5.076  0.00  0.00    +0.059 C 
ATOM     10  C   LIG    1       21.786 -19.515   4.115  0.00  0.00    +0.064 C 
ATOM     11  C   LIG    1       24.975 -20.034   3.665  0.00  0.00    +0.302 C 
ATOM     12  N   LIG    1       24.109 -16.586   3.863  0.00  0.00    -0.271 N 
ENDROOT
BRANCH   3  13
ATOM     13  C   LIG    1       27.457 -17.975   3.591  0.00  0.00    +0.145 C 
BRANCH  13  14
ATOM     14  C   LIG    1       28.019 -18.650   4.822  0.00  0.00    -0.030 A 
ATOM     15  C   LIG    1       27.713 -19.987   5.118  0.00  0.00    +0.005 A 
ATOM     16  C   LIG    1       28.276 -20.616   6.233  0.00  0.00    +0.000 A 
ATOM     17  C   LIG    1       29.152 -19.919   7.061  0.00  0.00    +0.000 A 
ATOM     18  C   LIG    1       29.473 -18.594   6.773  0.00  0.00    +0.000 A 
ATOM     19  C   LIG    1       28.914 -17.965   5.658  0.00  0.00    +0.005 A 
ENDBRANCH  13  14
ENDBRANCH   3  13
BRANCH  12  20
ATOM     20  C   LIG    1       23.206 -15.487   4.146  0.00  0.00    +0.145 C 
BRANCH  20  21
ATOM     21  C   LIG    1       23.724 -14.152   3.666  0.00  0.00    -0.030 A 
ATOM     22  C   LIG    1       24.150 -13.986   2.340  0.00  0.00    +0.005 A 
ATOM     23  C   LIG    1       24.573 -12.736   1.882  0.00  0.00    +0.000 A 
ATOM     24  C   LIG    1       24.573 -11.640   2.741  0.00  0.00    +0.000 A 
ATOM     25  C   LIG    1       24.157 -11.792   4.062  0.00  0.00    +0.000 A 
ATOM     26  C   LIG    1       23.736 -13.041   4.524  0.00  0.00    +0.005 A 
ENDBRANCH  20  21
ENDBRANCH  12  20
TORSDOF 4
ENDMDL
MODEL 5
REMARK VINA RESULT:       1.5      2.301      7.107
REMARK  Name = *****
REMARK                            x       y       z     vdW  Elec       q    Type
REMARK                         _______ _______ _______ _____ _____    ______ ____
ROOT
ATOM      1  O   LIG    1       24.119 -19.312   2.673  0.00  0.00    -0.252 OA
ATOM      2  C   LIG    1       24.694 -19.300   3.745  0.00  0.00    +0.306 C 
ATOM      3  N   LIG    1       24.334 -20.015   4.881  0.00  0.00    -0.272 N 
ATOM      4  C   LIG    1       25.169 -19.664   6.026  0.00  0.00    +0.152 C 
ATOM      5  C   LIG    1       26.317 -18.835   5.398  0.00  0.00    +0.155 C 
ATOM      6  C   LIG    1       27.612 -19.677   5.384  0.00  0.00    +0.230 C 
ATOM      7  S   LIG    1       27.168 -21.438   5.761  0.00  0.00    -0.004 S 
ATOM      8  C   LIG    1       28.446 -21.572   7.062  0.00  0.00    +0.278 C 
ATOM      9  C   LIG    1       29.444 -20.457   6.801  0.00  0.00    +0.059 C 
ATOM     10  C   LIG    1       28.610 -19.236   6.459  0.00  0.00    +0.064 C 
ATOM     11  C   LIG    1       25.784 -20.833   6.788  0.00  0.00    +0.302 C 
ATOM     12  N   LIG    1       25.815 -18.544   4.061  0.00  0.00    -0.271 N 
ENDROOT
BRANCH   3  13
ATOM     13  C   LIG    1       23.137 -20.837   4.946  0.00  0.00    +0.145 C 
BRANCH  13  14
ATOM     14  C   LIG    1       21.882 -20.151   4.457  0.00  0.00    -0.030 A 
ATOM     15  C   LIG    1       21.872 -18.777   4.173  0.00  0.00    +0.005 A 
ATOM     16  C   LIG    1       20.719 -18.161   3.675  0.00  0.00    +0.000 A 
ATOM     17  C   LIG    1       19.566 -18.911   3.453  0.00  0.00    +0.000 A 
ATOM     18  C   LIG    1       19.565 -20.278   3.721  0.00  0.00    +0.000 A 
ATOM     19  C   LIG    1       20.717 -20.896   4.216  0.00  0.00    +0.005 A 
ENDBRANCH  13  14
ENDBRANCH   3  13
BRANCH  12  20
ATOM     20  C   LIG    1       26.465 -17.645   3.126  0.00  0.00    +0.145 C 
BRANCH  20  21
ATOM     21  C   LIG    1       26.285 -16.188   3.480  0.00  0.00    -0.030 A 
ATOM     22  C   LIG    1       27.398 -15.349   3.637  0.00  0.00    +0.005 A 
ATOM     23  C   LIG    1       27.228 -13.988   3.907  0.00  0.00    +0.000 A 
ATOM     24  C   LIG    1       25.947 -13.452   4.020  0.00  0.00    +0.000 A 
ATOM     25  C   LIG    1       24.833 -14.276   3.870  0.00  0.00    +0.000 A 
ATOM     26  C   LIG    1       25.000 -15.637   3.604  0.00  0.00    +0.005 A 
ENDBRANCH  20  21
ENDBRANCH  12  20
TORSDOF 4
ENDMDL
