MODEL 1
REMARK VINA RESULT:      -6.5      0.000      0.000
REMARK  Name = *****
REMARK                            x       y       z     vdW  Elec       q    Type
REMARK                         _______ _______ _______ _____ _____    ______ ____
ROOT
ATOM      1  C   LIG    1       25.888 -23.481   7.877  0.00  0.00    +0.034 C 
ATOM      2  C   LIG    1       25.288 -22.089   8.080  0.00  0.00    +0.122 C 
ATOM      3  N   LIG    1       25.250 -21.362   6.800  0.00  0.00    -0.337 NA
ATOM      4  C   LIG    1       26.383 -20.564   6.513  0.00  0.00    +0.097 C 
ATOM      5  C   LIG    1       26.488 -19.942   5.260  0.00  0.00    +0.052 C 
ATOM      6  C   LIG    1       25.408 -20.129   4.261  0.00  0.00    +0.204 C 
ATOM      7  C   LIG    1       24.268 -21.004   4.611  0.00  0.00    +0.122 C 
ATOM      8  O   LIG    1       25.450 -19.584   3.160  0.00  0.00    -0.286 OA
ATOM      9  C   LIG    1       27.598 -19.167   4.932  0.00  0.00    +0.054 C 
ATOM     10  C   LIG    1       28.629 -19.018   5.855  0.00  0.00    +0.149 C 
ATOM     11  F   LIG    1       29.663 -18.248   5.486  0.00  0.00    -0.203 F 
ATOM     12  C   LIG    1       28.591 -19.613   7.130  0.00  0.00    +0.110 C 
ATOM     13  C   LIG    1       27.432 -20.375   7.443  0.00  0.00    +0.168 C 
ATOM     14  O   LIG    1       27.398 -20.984   8.687  0.00  0.00    -0.486 OA
ATOM     15  C   LIG    1       24.275 -21.551   5.836  0.00  0.00    +0.105 C 
ATOM     16  C   LIG    1       26.065 -21.269   9.114  0.00  0.00    +0.254 C 
ENDROOT
BRANCH  12  17
ATOM     17  N   LIG    1       29.625 -19.485   8.083  0.00  0.00    -0.322 NA
ATOM     18  C   LIG    1       29.515 -18.260   8.906  0.00  0.00    +0.120 C 
ATOM     19  C   LIG    1       30.508 -18.317  10.094  0.00  0.00    +0.103 C 
ATOM     20  N   LIG    1       31.918 -18.612   9.744  0.00  0.00    -0.302 NA
ATOM     21  C   LIG    1       32.566 -17.467   9.111  0.00  0.00    +0.105 C 
ATOM     22  C   LIG    1       31.951 -19.811   8.872  0.00  0.00    +0.103 C 
ATOM     23  C   LIG    1       31.008 -19.756   7.645  0.00  0.00    +0.120 C 
ENDBRANCH  12  17
BRANCH   7  24
ATOM     24  C   LIG    1       23.155 -21.309   3.689  0.00  0.00    +0.342 C 
ATOM     25  O   LIG    1       21.986 -21.050   3.938  0.00  0.00    -0.245 OA
BRANCH  24  26
ATOM     26  O   LIG    1       23.529 -21.904   2.536  0.00  0.00    -0.477 OA
ATOM     27  H   LIG    1       22.775 -22.159   1.950  0.00  0.00    +0.295 HD
ENDBRANCH  24  26
ENDBRANCH   7  24
TORSDOF 3
ENDMDL
MODEL 2
REMARK VINA RESULT:      -5.5      9.542     11.988
REMARK  Name = *****
REMARK                            x       y       z     vdW  Elec       q    Type
REMARK                         _______ _______ _______ _____ _____    ______ ____
ROOT
ATOM      1  C   LIG    1       21.819 -26.406  13.543  0.00  0.00    +0.034 C 
ATOM      2  C   LIG    1       22.856 -27.049  14.465  0.00  0.00    +0.122 C 
ATOM      3  N   LIG    1       24.198 -26.521  14.167  0.00  0.00    -0.337 NA
ATOM      4  C   LIG    1       24.948 -27.253  13.216  0.00  0.00    +0.097 C 
ATOM      5  C   LIG    1       26.181 -26.749  12.777  0.00  0.00    +0.052 C 
ATOM      6  C   LIG    1       26.677 -25.461  13.320  0.00  0.00    +0.204 C 
ATOM      7  C   LIG    1       25.827 -24.728  14.284  0.00  0.00    +0.122 C 
ATOM      8  O   LIG    1       27.763 -24.995  12.979  0.00  0.00    -0.286 OA
ATOM      9  C   LIG    1       26.940 -27.429  11.827  0.00  0.00    +0.054 C 
ATOM     10  C   LIG    1       26.461 -28.620  11.291  0.00  0.00    +0.149 C 
ATOM     11  F   LIG    1       27.243 -29.235  10.392  0.00  0.00    -0.203 F 
ATOM     12  C   LIG    1       25.232 -29.184  11.685  0.00  0.00    +0.110 C 
ATOM     13  C   LIG    1       24.497 -28.480  12.676  0.00  0.00    +0.168 C 
ATOM     14  O   LIG    1       23.275 -29.015  13.051  0.00  0.00    -0.486 OA
ATOM     15  C   LIG    1       24.665 -25.303  14.629  0.00  0.00    +0.105 C 
ATOM     16  C   LIG    1       22.866 -28.576  14.348  0.00  0.00    +0.254 C 
ENDROOT
BRANCH  12  17
ATOM     17  N   LIG    1       24.719 -30.387  11.153  0.00  0.00    -0.322 NA
ATOM     18  C   LIG    1       23.566 -30.184  10.250  0.00  0.00    +0.120 C 
ATOM     19  C   LIG    1       23.230 -31.497   9.499  0.00  0.00    +0.103 C 
ATOM     20  N   LIG    1       23.050 -32.699  10.347  0.00  0.00    -0.302 NA
ATOM     21  C   LIG    1       21.785 -32.660  11.075  0.00  0.00    +0.105 C 
ATOM     22  C   LIG    1       24.207 -32.809  11.267  0.00  0.00    +0.103 C 
ATOM     23  C   LIG    1       24.530 -31.527  12.072  0.00  0.00    +0.120 C 
ENDBRANCH  12  17
BRANCH   7  24
ATOM     24  C   LIG    1       26.184 -23.416  14.859  0.00  0.00    +0.342 C 
ATOM     25  O   LIG    1       25.470 -22.427  14.770  0.00  0.00    -0.245 OA
BRANCH  24  26
ATOM     26  O   LIG    1       27.373 -23.389  15.500  0.00  0.00    -0.477 OA
ATOM     27  H   LIG    1       27.680 -22.481  15.743  0.00  0.00    +0.295 HD
ENDBRANCH  24  26
ENDBRANCH   7  24
TORSDOF 3
ENDMDL
MODEL 3
REMARK VINA RESULT:      -5.3     10.166     13.236
REMARK  Name = *****
REMARK                            x       y       z     vdW  Elec       q    Type
REMARK                         _______ _______ _______ _____ _____    ______ ____
ROOT
ATOM      1  C   LIG    1       25.692 -31.001  13.984  0.00  0.00    +0.034 C 
ATOM      2  C   LIG    1       25.714 -30.212  12.674  0.00  0.00    +0.122 C 
ATOM      3  N   LIG    1       25.509 -28.778  12.942  0.00  0.00    -0.337 NA
ATOM      4  C   LIG    1       24.166 -28.333  12.903  0.00  0.00    +0.097 C 
ATOM      5  C   LIG    1       23.867 -27.014  13.273  0.00  0.00    +0.052 C 
ATOM      6  C   LIG    1       24.963 -26.109  13.695  0.00  0.00    +0.204 C 
ATOM      7  C   LIG    1       26.340 -26.648  13.749  0.00  0.00    +0.122 C 
ATOM      8  O   LIG    1       24.748 -24.939  14.007  0.00  0.00    -0.286 OA
ATOM      9  C   LIG    1       22.555 -26.544  13.269  0.00  0.00    +0.054 C 
ATOM     10  C   LIG    1       21.521 -27.400  12.905  0.00  0.00    +0.149 C 
ATOM     11  F   LIG    1       20.282 -26.886  12.906  0.00  0.00    -0.203 F 
ATOM     12  C   LIG    1       21.747 -28.736  12.522  0.00  0.00    +0.110 C 
ATOM     13  C   LIG    1       23.099 -29.176  12.511  0.00  0.00    +0.168 C 
ATOM     14  O   LIG    1       23.328 -30.496  12.159  0.00  0.00    -0.486 OA
ATOM     15  C   LIG    1       26.508 -27.926  13.376  0.00  0.00    +0.105 C 
ATOM     16  C   LIG    1       24.658 -30.707  11.682  0.00  0.00    +0.254 C 
ENDROOT
BRANCH  12  17
ATOM     17  N   LIG    1       20.716 -29.629  12.156  0.00  0.00    -0.322 NA
ATOM     18  C   LIG    1       20.228 -30.455  13.282  0.00  0.00    +0.120 C 
ATOM     19  C   LIG    1       18.933 -31.205  12.880  0.00  0.00    +0.103 C 
ATOM     20  N   LIG    1       19.003 -31.987  11.623  0.00  0.00    -0.302 NA
ATOM     21  C   LIG    1       19.790 -33.206  11.791  0.00  0.00    +0.105 C 
ATOM     22  C   LIG    1       19.555 -31.121  10.554  0.00  0.00    +0.103 C 
ATOM     23  C   LIG    1       20.880 -30.404  10.910  0.00  0.00    +0.120 C 
ENDBRANCH  12  17
BRANCH   7  24
ATOM     24  C   LIG    1       27.510 -25.866  14.198  0.00  0.00    +0.342 C 
ATOM     25  O   LIG    1       28.141 -26.123  15.213  0.00  0.00    -0.245 OA
BRANCH  24  26
ATOM     26  O   LIG    1       27.835 -24.831  13.392  0.00  0.00    -0.477 OA
ATOM     27  H   LIG    1       27.585 -23.945  13.753  0.00  0.00    +0.295 HD
ENDBRANCH  24  26
ENDBRANCH   7  24
TORSDOF 3
ENDMDL
MODEL 4
REMARK VINA RESULT:      -5.2     10.312     12.546
REMARK  Name = *****
REMARK                            x       y       z     vdW  Elec       q    Type
REMARK                         _______ _______ _______ _____ _____    ______ ____
ROOT
ATOM      1  C   LIG    1       27.025 -28.009  11.054  0.00  0.00    +0.034 C 
ATOM      2  C   LIG    1       26.786 -29.437  11.545  0.00  0.00    +0.122 C 
ATOM      3  N   LIG    1       26.002 -30.191  10.552  0.00  0.00    -0.337 NA
ATOM      4  C   LIG    1       24.598 -30.157  10.725  0.00  0.00    +0.097 C 
ATOM      5  C   LIG    1       23.771 -30.738   9.752  0.00  0.00    +0.052 C 
ATOM      6  C   LIG    1       24.383 -31.379   8.564  0.00  0.00    +0.204 C 
ATOM      7  C   LIG    1       25.855 -31.348   8.426  0.00  0.00    +0.122 C 
ATOM      8  O   LIG    1       23.695 -31.919   7.699  0.00  0.00    -0.286 OA
ATOM      9  C   LIG    1       22.383 -30.706   9.875  0.00  0.00    +0.054 C 
ATOM     10  C   LIG    1       21.806 -30.075  10.972  0.00  0.00    +0.149 C 
ATOM     11  F   LIG    1       20.466 -30.091  11.041  0.00  0.00    -0.203 F 
ATOM     12  C   LIG    1       22.574 -29.471  11.986  0.00  0.00    +0.110 C 
ATOM     13  C   LIG    1       23.986 -29.545  11.844  0.00  0.00    +0.168 C 
ATOM     14  O   LIG    1       24.749 -28.932  12.825  0.00  0.00    -0.486 OA
ATOM     15  C   LIG    1       26.546 -30.762   9.416  0.00  0.00    +0.105 C 
ATOM     16  C   LIG    1       26.070 -29.471  12.899  0.00  0.00    +0.254 C 
ENDROOT
BRANCH  12  17
ATOM     17  N   LIG    1       22.014 -28.818  13.106  0.00  0.00    -0.322 NA
ATOM     18  C   LIG    1       21.327 -29.739  14.038  0.00  0.00    +0.120 C 
ATOM     19  C   LIG    1       20.978 -29.008  15.359  0.00  0.00    +0.103 C 
ATOM     20  N   LIG    1       20.242 -27.730  15.217  0.00  0.00    -0.302 NA
ATOM     21  C   LIG    1       18.848 -27.951  14.840  0.00  0.00    +0.105 C 
ATOM     22  C   LIG    1       20.948 -26.882  14.227  0.00  0.00    +0.103 C 
ATOM     23  C   LIG    1       21.258 -27.571  12.875  0.00  0.00    +0.120 C 
ENDBRANCH  12  17
BRANCH   7  24
ATOM     24  C   LIG    1       26.583 -31.908   7.269  0.00  0.00    +0.342 C 
ATOM     25  O   LIG    1       27.400 -32.813   7.363  0.00  0.00    -0.245 OA
BRANCH  24  26
ATOM     26  O   LIG    1       26.275 -31.337   6.084  0.00  0.00    -0.477 OA
ATOM     27  H   LIG    1       25.590 -30.627   6.144  0.00  0.00    +0.295 HD
ENDBRANCH  24  26
ENDBRANCH   7  24
TORSDOF 3
ENDMDL
MODEL 5
REMARK VINA RESULT:      -5.2     10.575     14.292
REMARK  Name = *****
REMARK                            x       y       z     vdW  Elec       q    Type
REMARK                         _______ _______ _______ _____ _____    ______ ____
ROOT
ATOM      1  C   LIG    1       22.671 -27.171  13.127  0.00  0.00    +0.034 C 
ATOM      2  C   LIG    1       23.305 -28.498  13.545  0.00  0.00    +0.122 C 
ATOM      3  N   LIG    1       23.881 -29.177  12.372  0.00  0.00    -0.337 NA
ATOM      4  C   LIG    1       23.021 -30.079  11.702  0.00  0.00    +0.097 C 
ATOM      5  C   LIG    1       23.444 -30.669  10.501  0.00  0.00    +0.052 C 
ATOM      6  C   LIG    1       24.783 -30.340   9.959  0.00  0.00    +0.204 C 
ATOM      7  C   LIG    1       25.618 -29.361  10.689  0.00  0.00    +0.122 C 
ATOM      8  O   LIG    1       25.201 -30.851   8.922  0.00  0.00    -0.286 OA
ATOM      9  C   LIG    1       22.618 -31.546   9.800  0.00  0.00    +0.054 C 
ATOM     10  C   LIG    1       21.347 -31.831  10.289  0.00  0.00    +0.149 C 
ATOM     11  F   LIG    1       20.606 -32.693   9.578  0.00  0.00    -0.203 F 
ATOM     12  C   LIG    1       20.858 -31.275  11.487  0.00  0.00    +0.110 C 
ATOM     13  C   LIG    1       21.735 -30.406  12.191  0.00  0.00    +0.168 C 
ATOM     14  O   LIG    1       21.252 -29.837  13.358  0.00  0.00    -0.486 OA
ATOM     15  C   LIG    1       25.111 -28.857  11.825  0.00  0.00    +0.105 C 
ATOM     16  C   LIG    1       22.302 -29.427  14.236  0.00  0.00    +0.254 C 
ENDROOT
BRANCH  12  17
ATOM     17  N   LIG    1       19.570 -31.541  12.003  0.00  0.00    -0.322 NA
ATOM     18  C   LIG    1       19.484 -32.828  12.728  0.00  0.00    +0.120 C 
ATOM     19  C   LIG    1       18.138 -32.928  13.490  0.00  0.00    +0.103 C 
ATOM     20  N   LIG    1       16.919 -32.675  12.685  0.00  0.00    -0.302 NA
ATOM     21  C   LIG    1       16.624 -33.790  11.789  0.00  0.00    +0.105 C 
ATOM     22  C   LIG    1       17.097 -31.406  11.939  0.00  0.00    +0.103 C 
ATOM     23  C   LIG    1       18.409 -31.302  11.123  0.00  0.00    +0.120 C 
ENDBRANCH  12  17
BRANCH   7  24
ATOM     24  C   LIG    1       26.948 -28.912  10.230  0.00  0.00    +0.342 C 
ATOM     25  O   LIG    1       27.934 -28.883  10.953  0.00  0.00    -0.245 OA
BRANCH  24  26
ATOM     26  O   LIG    1       26.995 -28.531   8.935  0.00  0.00    -0.477 OA
ATOM     27  H   LIG    1       27.482 -29.158   8.347  0.00  0.00    +0.295 HD
ENDBRANCH  24  26
ENDBRANCH   7  24
TORSDOF 3
ENDMDL
MODEL 6
REMARK VINA RESULT:      -5.1     10.434     14.023
REMARK  Name = *****
REMARK                            x       y       z     vdW  Elec       q    Type
REMARK                         _______ _______ _______ _____ _____    ______ ____
ROOT
ATOM      1  C   LIG    1       21.541 -26.671  13.361  0.00  0.00    +0.034 C 
ATOM      2  C   LIG    1       22.210 -27.881  14.015  0.00  0.00    +0.122 C 
ATOM      3  N   LIG    1       23.300 -28.382  13.160  0.00  0.00    -0.337 NA
ATOM      4  C   LIG    1       22.939 -29.390  12.235  0.00  0.00    +0.097 C 
ATOM      5  C   LIG    1       23.882 -29.830  11.295  0.00  0.00    +0.052 C 
ATOM      6  C   LIG    1       25.240 -29.235  11.291  0.00  0.00    +0.204 C 
ATOM      7  C   LIG    1       25.541 -28.159  12.261  0.00  0.00    +0.122 C 
ATOM      8  O   LIG    1       26.104 -29.607  10.498  0.00  0.00    -0.286 OA
ATOM      9  C   LIG    1       23.560 -30.806  10.354  0.00  0.00    +0.054 C 
ATOM     10  C   LIG    1       22.276 -31.342  10.334  0.00  0.00    +0.149 C 
ATOM     11  F   LIG    1       22.031 -32.288   9.415  0.00  0.00    -0.203 F 
ATOM     12  C   LIG    1       21.280 -30.948  11.247  0.00  0.00    +0.110 C 
ATOM     13  C   LIG    1       21.650 -29.971  12.211  0.00  0.00    +0.168 C 
ATOM     14  O   LIG    1       20.668 -29.560  13.097  0.00  0.00    -0.486 OA
ATOM     15  C   LIG    1       24.561 -27.815  13.110  0.00  0.00    +0.105 C 
ATOM     16  C   LIG    1       21.216 -29.011  14.297  0.00  0.00    +0.254 C 
ENDROOT
BRANCH  12  17
ATOM     17  N   LIG    1       19.968 -31.470  11.245  0.00  0.00    -0.322 NA
ATOM     18  C   LIG    1       19.912 -32.916  11.551  0.00  0.00    +0.120 C 
ATOM     19  C   LIG    1       18.449 -33.360  11.798  0.00  0.00    +0.103 C 
ATOM     20  N   LIG    1       17.474 -32.990  10.745  0.00  0.00    -0.302 NA
ATOM     21  C   LIG    1       17.639 -33.810   9.547  0.00  0.00    +0.105 C 
ATOM     22  C   LIG    1       17.624 -31.546  10.444  0.00  0.00    +0.103 C 
ATOM     23  C   LIG    1       19.071 -31.087  10.137  0.00  0.00    +0.120 C 
ENDBRANCH  12  17
BRANCH   7  24
ATOM     24  C   LIG    1       26.836 -27.452  12.327  0.00  0.00    +0.342 C 
ATOM     25  O   LIG    1       26.936 -26.248  12.511  0.00  0.00    -0.245 OA
BRANCH  24  26
ATOM     26  O   LIG    1       27.917 -28.247  12.164  0.00  0.00    -0.477 OA
ATOM     27  H   LIG    1       28.679 -28.016  12.751  0.00  0.00    +0.295 HD
ENDBRANCH  24  26
ENDBRANCH   7  24
TORSDOF 3
ENDMDL
MODEL 7
REMARK VINA RESULT:      -5.1      9.992     12.821
REMARK  Name = *****
REMARK                            x       y       z     vdW  Elec       q    Type
REMARK                         _______ _______ _______ _____ _____    ______ ____
ROOT
ATOM      1  C   LIG    1       27.975 -29.818  13.823  0.00  0.00    +0.034 C 
ATOM      2  C   LIG    1       27.674 -28.938  12.609  0.00  0.00    +0.122 C 
ATOM      3  N   LIG    1       26.811 -27.811  13.001  0.00  0.00    -0.337 NA
ATOM      4  C   LIG    1       25.419 -28.033  12.879  0.00  0.00    +0.097 C 
ATOM      5  C   LIG    1       24.524 -27.062  13.353  0.00  0.00    +0.052 C 
ATOM      6  C   LIG    1       25.052 -25.822  13.968  0.00  0.00    +0.204 C 
ATOM      7  C   LIG    1       26.518 -25.668  14.098  0.00  0.00    +0.122 C 
ATOM      8  O   LIG    1       24.303 -24.936  14.376  0.00  0.00    -0.286 OA
ATOM      9  C   LIG    1       23.146 -27.253  13.271  0.00  0.00    +0.054 C 
ATOM     10  C   LIG    1       22.648 -28.431  12.724  0.00  0.00    +0.149 C 
ATOM     11  F   LIG    1       21.313 -28.549  12.659  0.00  0.00    -0.203 F 
ATOM     12  C   LIG    1       23.487 -29.448  12.229  0.00  0.00    +0.110 C 
ATOM     13  C   LIG    1       24.887 -29.210  12.303  0.00  0.00    +0.168 C 
ATOM     14  O   LIG    1       25.720 -30.216  11.842  0.00  0.00    -0.486 OA
ATOM     15  C   LIG    1       27.279 -26.662  13.615  0.00  0.00    +0.105 C 
ATOM     16  C   LIG    1       27.010 -29.724  11.475  0.00  0.00    +0.254 C 
ENDROOT
BRANCH  12  17
ATOM     17  N   LIG    1       23.009 -30.656  11.677  0.00  0.00    -0.322 NA
ATOM     18  C   LIG    1       22.482 -30.503  10.303  0.00  0.00    +0.120 C 
ATOM     19  C   LIG    1       22.229 -31.892   9.664  0.00  0.00    +0.103 C 
ATOM     20  N   LIG    1       21.404 -32.831  10.462  0.00  0.00    -0.302 NA
ATOM     21  C   LIG    1       19.995 -32.447  10.455  0.00  0.00    +0.105 C 
ATOM     22  C   LIG    1       21.949 -32.890  11.839  0.00  0.00    +0.103 C 
ATOM     23  C   LIG    1       22.157 -31.516  12.522  0.00  0.00    +0.120 C 
ENDBRANCH  12  17
BRANCH   7  24
ATOM     24  C   LIG    1       27.167 -24.504  14.735  0.00  0.00    +0.342 C 
ATOM     25  O   LIG    1       28.231 -24.573  15.334  0.00  0.00    -0.245 OA
BRANCH  24  26
ATOM     26  O   LIG    1       26.490 -23.343  14.604  0.00  0.00    -0.477 OA
ATOM     27  H   LIG    1       25.892 -23.311  13.817  0.00  0.00    +0.295 HD
ENDBRANCH  24  26
ENDBRANCH   7  24
TORSDOF 3
ENDMDL
MODEL 8
REMARK VINA RESULT:      -4.8      9.748     11.127
REMARK  Name = *****
REMARK                            x       y       z     vdW  Elec       q    Type
REMARK                         _______ _______ _______ _____ _____    ______ ____
ROOT
ATOM      1  C   LIG    1       24.321 -33.825  10.952  0.00  0.00    +0.034 C 
ATOM      2  C   LIG    1       23.327 -32.706  10.640  0.00  0.00    +0.122 C 
ATOM      3  N   LIG    1       23.789 -31.924   9.481  0.00  0.00    -0.337 NA
ATOM      4  C   LIG    1       24.589 -30.796   9.783  0.00  0.00    +0.097 C 
ATOM      5  C   LIG    1       25.180 -30.072   8.737  0.00  0.00    +0.052 C 
ATOM      6  C   LIG    1       24.952 -30.500   7.335  0.00  0.00    +0.204 C 
ATOM      7  C   LIG    1       24.136 -31.709   7.091  0.00  0.00    +0.122 C 
ATOM      8  O   LIG    1       25.433 -29.880   6.388  0.00  0.00    -0.286 OA
ATOM      9  C   LIG    1       25.991 -28.969   8.993  0.00  0.00    +0.054 C 
ATOM     10  C   LIG    1       26.234 -28.586  10.308  0.00  0.00    +0.149 C 
ATOM     11  F   LIG    1       27.010 -27.507  10.490  0.00  0.00    -0.203 F 
ATOM     12  C   LIG    1       25.674 -29.266  11.407  0.00  0.00    +0.110 C 
ATOM     13  C   LIG    1       24.830 -30.370  11.110  0.00  0.00    +0.168 C 
ATOM     14  O   LIG    1       24.295 -31.059  12.186  0.00  0.00    -0.486 OA
ATOM     15  C   LIG    1       23.624 -32.325   8.168  0.00  0.00    +0.105 C 
ATOM     16  C   LIG    1       23.109 -31.775  11.836  0.00  0.00    +0.254 C 
ENDROOT
BRANCH  12  17
ATOM     17  N   LIG    1       25.909 -28.904  12.751  0.00  0.00    -0.322 NA
ATOM     18  C   LIG    1       25.272 -27.624  13.134  0.00  0.00    +0.120 C 
ATOM     19  C   LIG    1       25.339 -27.425  14.669  0.00  0.00    +0.103 C 
ATOM     20  N   LIG    1       26.681 -27.568  15.281  0.00  0.00    -0.302 NA
ATOM     21  C   LIG    1       27.534 -26.421  14.983  0.00  0.00    +0.105 C 
ATOM     22  C   LIG    1       27.286 -28.837  14.811  0.00  0.00    +0.103 C 
ATOM     23  C   LIG    1       27.283 -29.035  13.275  0.00  0.00    +0.120 C 
ENDBRANCH  12  17
BRANCH   7  24
ATOM     24  C   LIG    1       23.875 -32.265   5.748  0.00  0.00    +0.342 C 
ATOM     25  O   LIG    1       22.891 -32.939   5.479  0.00  0.00    -0.245 OA
BRANCH  24  26
ATOM     26  O   LIG    1       24.819 -31.971   4.827  0.00  0.00    -0.477 OA
ATOM     27  H   LIG    1       25.636 -32.523   4.897  0.00  0.00    +0.295 HD
ENDBRANCH  24  26
ENDBRANCH   7  24
TORSDOF 3
ENDMDL
MODEL 9
REMARK VINA RESULT:      -4.8     10.170     12.466
REMARK  Name = *****
REMARK                            x       y       z     vdW  Elec       q    Type
REMARK                         _______ _______ _______ _____ _____    ______ ____
ROOT
ATOM      1  C   LIG    1       26.627 -28.251   9.276  0.00  0.00    +0.034 C 
ATOM      2  C   LIG    1       26.666 -29.619   9.958  0.00  0.00    +0.122 C 
ATOM      3  N   LIG    1       25.664 -30.515   9.356  0.00  0.00    -0.337 NA
ATOM      4  C   LIG    1       24.391 -30.515   9.974  0.00  0.00    +0.097 C 
ATOM      5  C   LIG    1       23.342 -31.239   9.388  0.00  0.00    +0.052 C 
ATOM      6  C   LIG    1       23.587 -31.992   8.135  0.00  0.00    +0.204 C 
ATOM      7  C   LIG    1       24.931 -31.921   7.522  0.00  0.00    +0.122 C 
ATOM      8  O   LIG    1       22.701 -32.657   7.601  0.00  0.00    -0.286 OA
ATOM      9  C   LIG    1       22.068 -31.246   9.954  0.00  0.00    +0.054 C 
ATOM     10  C   LIG    1       21.827 -30.512  11.111  0.00  0.00    +0.149 C 
ATOM     11  F   LIG    1       20.586 -30.572  11.616  0.00  0.00    -0.203 F 
ATOM     12  C   LIG    1       22.832 -29.764  11.753  0.00  0.00    +0.110 C 
ATOM     13  C   LIG    1       24.126 -29.799  11.165  0.00  0.00    +0.168 C 
ATOM     14  O   LIG    1       25.115 -29.046  11.777  0.00  0.00    -0.486 OA
ATOM     15  C   LIG    1       25.857 -31.195   8.167  0.00  0.00    +0.105 C 
ATOM     16  C   LIG    1       26.427 -29.520  11.468  0.00  0.00    +0.254 C 
ENDROOT
BRANCH  12  17
ATOM     17  N   LIG    1       22.614 -29.005  12.923  0.00  0.00    -0.322 NA
ATOM     18  C   LIG    1       22.325 -29.834  14.114  0.00  0.00    +0.120 C 
ATOM     19  C   LIG    1       22.365 -28.967  15.398  0.00  0.00    +0.103 C 
ATOM     20  N   LIG    1       21.534 -27.740  15.376  0.00  0.00    -0.302 NA
ATOM     21  C   LIG    1       20.112 -28.051  15.495  0.00  0.00    +0.105 C 
ATOM     22  C   LIG    1       21.827 -26.989  14.131  0.00  0.00    +0.103 C 
ATOM     23  C   LIG    1       21.739 -27.819  12.828  0.00  0.00    +0.120 C 
ENDBRANCH  12  17
BRANCH   7  24
ATOM     24  C   LIG    1       25.289 -32.585   6.252  0.00  0.00    +0.342 C 
ATOM     25  O   LIG    1       26.226 -33.363   6.142  0.00  0.00    -0.245 OA
BRANCH  24  26
ATOM     26  O   LIG    1       24.495 -32.264   5.208  0.00  0.00    -0.477 OA
ATOM     27  H   LIG    1       23.813 -31.579   5.415  0.00  0.00    +0.295 HD
ENDBRANCH  24  26
ENDBRANCH   7  24
TORSDOF 3
ENDMDL
