MODEL 1
REMARK VINA RESULT:      -9.9      0.000      0.000
REMARK  Name = *****
REMARK                            x       y       z     vdW  Elec       q    Type
REMARK                         _______ _______ _______ _____ _____    ______ ____
ROOT
ATOM      1  C   LIG    1       30.248 -19.532   6.974  0.00  0.00    +0.132 A 
ATOM      2  C   LIG    1       29.472 -20.388   7.750  0.00  0.00    +0.050 A 
ATOM      3  C   LIG    1       28.119 -20.591   7.444  0.00  0.00    -0.040 A 
ATOM      4  C   LIG    1       27.325 -21.516   8.325  0.00  0.00    +0.036 C 
ATOM      5  C   LIG    1       25.995 -21.944   7.711  0.00  0.00    +0.009 C 
ATOM      6  C   LIG    1       25.238 -20.727   7.156  0.00  0.00    +0.001 C 
ATOM      7  C   LIG    1       26.059 -20.067   6.022  0.00  0.00    +0.023 C 
ATOM      8  C   LIG    1       25.920 -20.857   4.712  0.00  0.00    +0.009 C 
ATOM      9  C   LIG    1       24.469 -20.919   4.252  0.00  0.00    +0.010 C 
ATOM     10  C   LIG    1       23.461 -21.423   5.299  0.00  0.00    -0.003 C 
ATOM     11  C   LIG    1       22.065 -20.885   4.864  0.00  0.00    +0.014 C 
ATOM     12  C   LIG    1       23.324 -22.968   5.418  0.00  0.00    +0.121 C 
ATOM     13  C   LIG    1       23.148 -23.287   6.908  0.00  0.00    +0.032 C 
ATOM     14  C   LIG    1       22.986 -21.945   7.614  0.00  0.00    +0.007 C 
ATOM     15  C   LIG    1       23.753 -20.939   6.745  0.00  0.00    +0.001 C 
ATOM     16  C   LIG    1       27.529 -19.888   6.379  0.00  0.00    -0.041 A 
ATOM     17  C   LIG    1       28.324 -19.005   5.625  0.00  0.00    +0.008 A 
ATOM     18  C   LIG    1       29.677 -18.826   5.921  0.00  0.00    +0.046 A 
ENDROOT
BRANCH  12  19
ATOM     19  O   LIG    1       24.413 -23.689   4.866  0.00  0.00    -0.391 OA
ATOM     20  H   LIG    1       24.426 -23.560   3.906  0.00  0.00    +0.210 HD
ENDBRANCH  12  19
BRANCH   1  21
ATOM     21  O   LIG    1       31.594 -19.252   7.275  0.00  0.00    -0.426 OA
BRANCH  21  23
ATOM     22  C   LIG    1       31.946 -17.390   8.672  0.00  0.00    +0.136 C 
ATOM     23  C   LIG    1       31.954 -18.885   8.570  0.00  0.00    +0.309 C 
ATOM     24  O   LIG    1       32.267 -19.630   9.490  0.00  0.00    -0.251 OA
ENDBRANCH  21  23
ENDBRANCH   1  21
TORSDOF 3
ENDMDL
MODEL 2
REMARK VINA RESULT:      -9.6      1.514      2.780
REMARK  Name = *****
REMARK                            x       y       z     vdW  Elec       q    Type
REMARK                         _______ _______ _______ _____ _____    ______ ____
ROOT
ATOM      1  C   LIG    1       30.763 -19.535   7.709  0.00  0.00    +0.132 A 
ATOM      2  C   LIG    1       29.842 -19.128   6.747  0.00  0.00    +0.050 A 
ATOM      3  C   LIG    1       28.660 -19.856   6.546  0.00  0.00    -0.040 A 
ATOM      4  C   LIG    1       27.708 -19.378   5.484  0.00  0.00    +0.036 C 
ATOM      5  C   LIG    1       26.321 -20.004   5.588  0.00  0.00    +0.009 C 
ATOM      6  C   LIG    1       26.427 -21.528   5.762  0.00  0.00    +0.001 C 
ATOM      7  C   LIG    1       27.164 -21.859   7.083  0.00  0.00    +0.023 C 
ATOM      8  C   LIG    1       26.226 -21.701   8.289  0.00  0.00    +0.009 C 
ATOM      9  C   LIG    1       25.027 -22.635   8.186  0.00  0.00    +0.010 C 
ATOM     10  C   LIG    1       24.235 -22.558   6.870  0.00  0.00    -0.003 C 
ATOM     11  C   LIG    1       23.470 -23.908   6.734  0.00  0.00    +0.014 C 
ATOM     12  C   LIG    1       23.165 -21.431   6.790  0.00  0.00    +0.121 C 
ATOM     13  C   LIG    1       23.201 -20.882   5.358  0.00  0.00    +0.032 C 
ATOM     14  C   LIG    1       24.130 -21.803   4.572  0.00  0.00    +0.007 C 
ATOM     15  C   LIG    1       25.118 -22.355   5.609  0.00  0.00    +0.001 C 
ATOM     16  C   LIG    1       28.426 -21.030   7.281  0.00  0.00    -0.041 A 
ATOM     17  C   LIG    1       29.384 -21.441   8.229  0.00  0.00    +0.008 A 
ATOM     18  C   LIG    1       30.548 -20.698   8.441  0.00  0.00    +0.046 A 
ENDROOT
BRANCH  12  19
ATOM     19  O   LIG    1       23.344 -20.394   7.739  0.00  0.00    -0.391 OA
ATOM     20  H   LIG    1       22.900 -20.638   8.565  0.00  0.00    +0.210 HD
ENDBRANCH  12  19
BRANCH   1  21
ATOM     21  O   LIG    1       31.988 -18.872   7.910  0.00  0.00    -0.426 OA
BRANCH  21  23
ATOM     22  C   LIG    1       31.349 -18.035  10.016  0.00  0.00    +0.136 C 
ATOM     23  C   LIG    1       32.038 -17.739   8.719  0.00  0.00    +0.309 C 
ATOM     24  O   LIG    1       32.523 -16.650   8.436  0.00  0.00    -0.251 OA
ENDBRANCH  21  23
ENDBRANCH   1  21
TORSDOF 3
ENDMDL
MODEL 3
REMARK VINA RESULT:      -7.1      6.951      9.384
REMARK  Name = *****
REMARK                            x       y       z     vdW  Elec       q    Type
REMARK                         _______ _______ _______ _____ _____    ______ ____
ROOT
ATOM      1  C   LIG    1       25.377 -25.383   6.038  0.00  0.00    +0.132 A 
ATOM      2  C   LIG    1       25.934 -26.017   7.146  0.00  0.00    +0.050 A 
ATOM      3  C   LIG    1       25.716 -27.385   7.364  0.00  0.00    -0.040 A 
ATOM      4  C   LIG    1       26.330 -28.014   8.584  0.00  0.00    +0.036 C 
ATOM      5  C   LIG    1       26.340 -29.538   8.540  0.00  0.00    +0.009 C 
ATOM      6  C   LIG    1       24.961 -30.077   8.126  0.00  0.00    +0.001 C 
ATOM      7  C   LIG    1       24.612 -29.593   6.698  0.00  0.00    +0.023 C 
ATOM      8  C   LIG    1       25.349 -30.428   5.640  0.00  0.00    +0.009 C 
ATOM      9  C   LIG    1       24.970 -31.900   5.731  0.00  0.00    +0.010 C 
ATOM     10  C   LIG    1       25.115 -32.539   7.123  0.00  0.00    -0.003 C 
ATOM     11  C   LIG    1       24.182 -33.787   7.137  0.00  0.00    +0.014 C 
ATOM     12  C   LIG    1       26.539 -33.046   7.490  0.00  0.00    +0.121 C 
ATOM     13  C   LIG    1       26.756 -32.731   8.976  0.00  0.00    +0.032 C 
ATOM     14  C   LIG    1       25.414 -32.235   9.506  0.00  0.00    +0.007 C 
ATOM     15  C   LIG    1       24.713 -31.604   8.296  0.00  0.00    +0.001 C 
ATOM     16  C   LIG    1       24.888 -28.110   6.489  0.00  0.00    -0.041 A 
ATOM     17  C   LIG    1       24.311 -27.444   5.391  0.00  0.00    +0.008 A 
ATOM     18  C   LIG    1       24.552 -26.087   5.166  0.00  0.00    +0.046 A 
ENDROOT
BRANCH  12  19
ATOM     19  O   LIG    1       27.573 -32.491   6.695  0.00  0.00    -0.391 OA
ATOM     20  H   LIG    1       28.111 -33.208   6.327  0.00  0.00    +0.210 HD
ENDBRANCH  12  19
BRANCH   1  21
ATOM     21  O   LIG    1       25.520 -24.003   5.807  0.00  0.00    -0.426 OA
BRANCH  21  23
ATOM     22  C   LIG    1       23.781 -22.917   6.965  0.00  0.00    +0.136 C 
ATOM     23  C   LIG    1       25.263 -23.097   6.834  0.00  0.00    +0.309 C 
ATOM     24  O   LIG    1       26.086 -22.498   7.515  0.00  0.00    -0.251 OA
ENDBRANCH  21  23
ENDBRANCH   1  21
TORSDOF 3
ENDMDL
MODEL 4
REMARK VINA RESULT:      -6.9      4.144      7.756
REMARK  Name = *****
REMARK                            x       y       z     vdW  Elec       q    Type
REMARK                         _______ _______ _______ _____ _____    ______ ____
ROOT
ATOM      1  C   LIG    1       25.206 -28.385   6.618  0.00  0.00    +0.132 A 
ATOM      2  C   LIG    1       26.011 -27.331   7.043  0.00  0.00    +0.050 A 
ATOM      3  C   LIG    1       25.663 -26.007   6.738  0.00  0.00    -0.040 A 
ATOM      4  C   LIG    1       26.577 -24.910   7.210  0.00  0.00    +0.036 C 
ATOM      5  C   LIG    1       25.941 -23.524   7.148  0.00  0.00    +0.009 C 
ATOM      6  C   LIG    1       25.264 -23.299   5.786  0.00  0.00    +0.001 C 
ATOM      7  C   LIG    1       24.120 -24.323   5.590  0.00  0.00    +0.023 C 
ATOM      8  C   LIG    1       22.868 -23.904   6.376  0.00  0.00    +0.009 C 
ATOM      9  C   LIG    1       22.354 -22.545   5.918  0.00  0.00    +0.010 C 
ATOM     10  C   LIG    1       23.391 -21.410   5.906  0.00  0.00    -0.003 C 
ATOM     11  C   LIG    1       22.858 -20.333   4.915  0.00  0.00    +0.014 C 
ATOM     12  C   LIG    1       23.620 -20.688   7.265  0.00  0.00    +0.121 C 
ATOM     13  C   LIG    1       25.121 -20.387   7.364  0.00  0.00    +0.032 C 
ATOM     14  C   LIG    1       25.717 -20.747   6.006  0.00  0.00    +0.007 C 
ATOM     15  C   LIG    1       24.808 -21.851   5.449  0.00  0.00    +0.001 C 
ATOM     16  C   LIG    1       24.525 -25.744   5.957  0.00  0.00    -0.041 A 
ATOM     17  C   LIG    1       23.740 -26.826   5.514  0.00  0.00    +0.008 A 
ATOM     18  C   LIG    1       24.079 -28.141   5.841  0.00  0.00    +0.046 A 
ENDROOT
BRANCH  12  19
ATOM     19  O   LIG    1       23.172 -21.422   8.392  0.00  0.00    -0.391 OA
ATOM     20  H   LIG    1       22.270 -21.144   8.614  0.00  0.00    +0.210 HD
ENDBRANCH  12  19
BRANCH   1  21
ATOM     21  O   LIG    1       25.541 -29.732   6.850  0.00  0.00    -0.426 OA
BRANCH  21  23
ATOM     22  C   LIG    1       25.657 -31.321   5.115  0.00  0.00    +0.136 C 
ATOM     23  C   LIG    1       24.821 -30.744   6.218  0.00  0.00    +0.309 C 
ATOM     24  O   LIG    1       23.678 -31.106   6.469  0.00  0.00    -0.251 OA
ENDBRANCH  21  23
ENDBRANCH   1  21
TORSDOF 3
ENDMDL
