MODEL 1
REMARK VINA RESULT:      -8.9      0.000      0.000
REMARK  Name = *****
REMARK                            x       y       z     vdW  Elec       q    Type
REMARK                         _______ _______ _______ _____ _____    ______ ____
ROOT
ATOM      1  N   LIG    1       23.853 -21.487   4.391  0.00  0.00    -0.313 NA
ATOM      2  H   LIG    1       23.403 -21.830   3.541  0.00  0.00    +0.122 HD
ENDROOT
BRANCH   1   4
ATOM      3  C   LIG    1       22.706 -20.034   5.801  0.00  0.00    +0.024 C 
ATOM      4  C   LIG    1       22.826 -21.452   5.450  0.00  0.00    +0.051 C 
BRANCH   4   5
ATOM      5  C   LIG    1       23.039 -22.062   6.833  0.00  0.00    +0.023 C 
BRANCH   5   6
ATOM      6  C   LIG    1       22.736 -23.602   6.803  0.00  0.00    +0.036 C 
BRANCH   6   7
ATOM      7  C   LIG    1       23.941 -24.431   6.527  0.00  0.00    -0.047 A 
ATOM      8  C   LIG    1       23.767 -25.695   5.978  0.00  0.00    +0.007 A 
ATOM      9  C   LIG    1       24.876 -26.486   5.723  0.00  0.00    +0.045 A 
ATOM     10  C   LIG    1       26.150 -25.988   5.983  0.00  0.00    +0.117 A 
ATOM     11  C   LIG    1       26.337 -24.731   6.545  0.00  0.00    +0.045 A 
ATOM     12  C   LIG    1       25.226 -23.951   6.836  0.00  0.00    +0.007 A 
BRANCH  10  13
ATOM     13  O   LIG    1       27.258 -26.721   5.677  0.00  0.00    -0.507 OA
ATOM     14  H   LIG    1       27.948 -26.494   6.321  0.00  0.00    +0.292 HD
ENDBRANCH  10  13
ENDBRANCH   6   7
ENDBRANCH   5   6
ENDBRANCH   4   5
ENDBRANCH   1   4
BRANCH   1  15
ATOM     15  C   LIG    1       24.522 -20.170   4.050  0.00  0.00    +0.086 C 
BRANCH  15  16
ATOM     16  C   LIG    1       26.091 -19.828   4.240  0.00  0.00    +0.050 C 
BRANCH  16  17
ATOM     17  C   LIG    1       26.853 -20.015   5.566  0.00  0.00    -0.043 A 
ATOM     18  C   LIG    1       26.264 -20.471   6.729  0.00  0.00    +0.052 A 
ATOM     19  C   LIG    1       27.087 -20.884   7.785  0.00  0.00    +0.159 A 
ATOM     20  C   LIG    1       28.449 -21.023   7.652  0.00  0.00    +0.158 A 
ATOM     21  C   LIG    1       29.043 -20.522   6.511  0.00  0.00    +0.049 A 
ATOM     22  C   LIG    1       28.205 -19.760   5.719  0.00  0.00    +0.007 A 
BRANCH  19  23
ATOM     23  O   LIG    1       26.514 -21.199   9.022  0.00  0.00    -0.503 OA
ATOM     24  H   LIG    1       25.675 -21.627   8.756  0.00  0.00    +0.292 HD
ENDBRANCH  19  23
BRANCH  20  25
ATOM     25  O   LIG    1       29.217 -21.552   8.648  0.00  0.00    -0.503 OA
ATOM     26  H   LIG    1       28.619 -21.892   9.336  0.00  0.00    +0.292 HD
ENDBRANCH  20  25
ENDBRANCH  16  17
ENDBRANCH  15  16
ENDBRANCH   1  15
TORSDOF 10
ENDMDL
MODEL 2
REMARK VINA RESULT:      -8.8      2.185      3.165
REMARK  Name = *****
REMARK                            x       y       z     vdW  Elec       q    Type
REMARK                         _______ _______ _______ _____ _____    ______ ____
ROOT
ATOM      1  N   LIG    1       26.409 -19.979   4.470  0.00  0.00    -0.313 NA
ATOM      2  H   LIG    1       25.999 -19.107   4.132  0.00  0.00    +0.122 HD
ENDROOT
BRANCH   1   4
ATOM      3  C   LIG    1       24.207 -20.636   4.099  0.00  0.00    +0.024 C 
ATOM      4  C   LIG    1       25.315 -20.785   5.047  0.00  0.00    +0.051 C 
BRANCH   4   5
ATOM      5  C   LIG    1       24.615 -20.417   6.352  0.00  0.00    +0.023 C 
BRANCH   5   6
ATOM      6  C   LIG    1       25.022 -21.419   7.491  0.00  0.00    +0.036 C 
BRANCH   6   7
ATOM      7  C   LIG    1       24.847 -22.846   7.106  0.00  0.00    -0.047 A 
ATOM      8  C   LIG    1       23.564 -23.311   6.843  0.00  0.00    +0.007 A 
ATOM      9  C   LIG    1       23.379 -24.639   6.494  0.00  0.00    +0.045 A 
ATOM     10  C   LIG    1       24.484 -25.478   6.370  0.00  0.00    +0.117 A 
ATOM     11  C   LIG    1       25.770 -25.029   6.644  0.00  0.00    +0.045 A 
ATOM     12  C   LIG    1       25.954 -23.709   7.031  0.00  0.00    +0.007 A 
BRANCH  10  13
ATOM     13  O   LIG    1       24.332 -26.769   5.961  0.00  0.00    -0.507 OA
ATOM     14  H   LIG    1       24.979 -27.309   6.444  0.00  0.00    +0.292 HD
ENDBRANCH  10  13
ENDBRANCH   6   7
ENDBRANCH   5   6
ENDBRANCH   4   5
ENDBRANCH   1   4
BRANCH   1  15
ATOM     15  C   LIG    1       27.547 -19.613   5.403  0.00  0.00    +0.086 C 
BRANCH  15  16
ATOM     16  C   LIG    1       28.424 -20.651   6.278  0.00  0.00    +0.050 C 
BRANCH  16  17
ATOM     17  C   LIG    1       29.303 -20.234   7.473  0.00  0.00    -0.043 A 
ATOM     18  C   LIG    1       30.363 -20.986   7.942  0.00  0.00    +0.052 A 
ATOM     19  C   LIG    1       31.271 -20.392   8.828  0.00  0.00    +0.159 A 
ATOM     20  C   LIG    1       31.257 -19.046   9.111  0.00  0.00    +0.158 A 
ATOM     21  C   LIG    1       30.175 -18.305   8.684  0.00  0.00    +0.049 A 
ATOM     22  C   LIG    1       29.129 -19.059   8.183  0.00  0.00    +0.007 A 
BRANCH  19  23
ATOM     23  O   LIG    1       32.256 -21.179   9.436  0.00  0.00    -0.503 OA
ATOM     24  H   LIG    1       32.181 -22.019   8.938  0.00  0.00    +0.292 HD
ENDBRANCH  19  23
BRANCH  20  25
ATOM     25  O   LIG    1       32.229 -18.463   9.870  0.00  0.00    -0.503 OA
ATOM     26  H   LIG    1       32.605 -17.725   9.359  0.00  0.00    +0.292 HD
ENDBRANCH  20  25
ENDBRANCH  16  17
ENDBRANCH  15  16
ENDBRANCH   1  15
TORSDOF 10
ENDMDL
MODEL 3
REMARK VINA RESULT:      -8.7      1.588      2.268
REMARK  Name = *****
REMARK                            x       y       z     vdW  Elec       q    Type
REMARK                         _______ _______ _______ _____ _____    ______ ____
ROOT
ATOM      1  N   LIG    1       25.025 -21.133   5.013  0.00  0.00    -0.313 NA
ATOM      2  H   LIG    1       24.935 -20.336   4.383  0.00  0.00    +0.122 HD
ENDROOT
BRANCH   1   4
ATOM      3  C   LIG    1       22.987 -20.171   5.593  0.00  0.00    +0.024 C 
ATOM      4  C   LIG    1       23.672 -21.464   5.501  0.00  0.00    +0.051 C 
BRANCH   4   5
ATOM      5  C   LIG    1       23.406 -22.018   6.898  0.00  0.00    +0.023 C 
BRANCH   5   6
ATOM      6  C   LIG    1       22.960 -23.521   6.813  0.00  0.00    +0.036 C 
BRANCH   6   7
ATOM      7  C   LIG    1       24.079 -24.446   6.483  0.00  0.00    -0.047 A 
ATOM      8  C   LIG    1       23.807 -25.569   5.710  0.00  0.00    +0.007 A 
ATOM      9  C   LIG    1       24.833 -26.448   5.401  0.00  0.00    +0.045 A 
ATOM     10  C   LIG    1       26.128 -26.173   5.834  0.00  0.00    +0.117 A 
ATOM     11  C   LIG    1       26.409 -25.061   6.619  0.00  0.00    +0.045 A 
ATOM     12  C   LIG    1       25.377 -24.199   6.961  0.00  0.00    +0.007 A 
BRANCH  10  13
ATOM     13  O   LIG    1       27.163 -26.986   5.483  0.00  0.00    -0.507 OA
ATOM     14  H   LIG    1       27.284 -27.633   6.198  0.00  0.00    +0.292 HD
ENDBRANCH  10  13
ENDBRANCH   6   7
ENDBRANCH   5   6
ENDBRANCH   4   5
ENDBRANCH   1   4
BRANCH   1  15
ATOM     15  C   LIG    1       26.054 -20.767   6.065  0.00  0.00    +0.086 C 
BRANCH  15  16
ATOM     16  C   LIG    1       27.383 -19.880   5.820  0.00  0.00    +0.050 C 
BRANCH  16  17
ATOM     17  C   LIG    1       28.738 -20.165   6.495  0.00  0.00    -0.043 A 
ATOM     18  C   LIG    1       29.794 -19.272   6.499  0.00  0.00    +0.052 A 
ATOM     19  C   LIG    1       30.862 -19.495   7.377  0.00  0.00    +0.159 A 
ATOM     20  C   LIG    1       30.826 -20.459   8.358  0.00  0.00    +0.158 A 
ATOM     21  C   LIG    1       29.799 -21.380   8.325  0.00  0.00    +0.049 A 
ATOM     22  C   LIG    1       29.028 -21.333   7.177  0.00  0.00    +0.007 A 
BRANCH  19  23
ATOM     23  O   LIG    1       32.007 -18.696   7.286  0.00  0.00    -0.503 OA
ATOM     24  H   LIG    1       32.685 -19.343   7.004  0.00  0.00    +0.292 HD
ENDBRANCH  19  23
BRANCH  20  25
ATOM     25  O   LIG    1       31.818 -20.574   9.288  0.00  0.00    -0.503 OA
ATOM     26  H   LIG    1       31.751 -21.458   9.688  0.00  0.00    +0.292 HD
ENDBRANCH  20  25
ENDBRANCH  16  17
ENDBRANCH  15  16
ENDBRANCH   1  15
TORSDOF 10
ENDMDL
MODEL 4
REMARK VINA RESULT:      -8.6      1.654      5.594
REMARK  Name = *****
REMARK                            x       y       z     vdW  Elec       q    Type
REMARK                         _______ _______ _______ _____ _____    ______ ____
ROOT
ATOM      1  N   LIG    1       23.441 -21.013   4.478  0.00  0.00    -0.313 NA
ATOM      2  H   LIG    1       23.908 -21.857   4.144  0.00  0.00    +0.122 HD
ENDROOT
BRANCH   1   4
ATOM      3  C   LIG    1       24.506 -19.184   3.510  0.00  0.00    +0.024 C 
ATOM      4  C   LIG    1       24.486 -20.001   4.727  0.00  0.00    +0.051 C 
BRANCH   4   5
ATOM      5  C   LIG    1       25.967 -20.352   4.850  0.00  0.00    +0.023 C 
BRANCH   5   6
ATOM      6  C   LIG    1       26.374 -20.479   6.361  0.00  0.00    +0.036 C 
BRANCH   6   7
ATOM      7  C   LIG    1       27.820 -20.217   6.601  0.00  0.00    -0.047 A 
ATOM      8  C   LIG    1       28.469 -20.938   7.595  0.00  0.00    +0.007 A 
ATOM      9  C   LIG    1       29.813 -20.701   7.842  0.00  0.00    +0.045 A 
ATOM     10  C   LIG    1       30.501 -19.773   7.064  0.00  0.00    +0.117 A 
ATOM     11  C   LIG    1       29.859 -19.036   6.076  0.00  0.00    +0.045 A 
ATOM     12  C   LIG    1       28.505 -19.245   5.852  0.00  0.00    +0.007 A 
BRANCH  10  13
ATOM     13  O   LIG    1       31.837 -19.574   7.243  0.00  0.00    -0.507 OA
ATOM     14  H   LIG    1       31.951 -18.708   7.666  0.00  0.00    +0.292 HD
ENDBRANCH  10  13
ENDBRANCH   6   7
ENDBRANCH   5   6
ENDBRANCH   4   5
ENDBRANCH   1   4
BRANCH   1  15
ATOM     15  C   LIG    1       22.584 -21.409   5.665  0.00  0.00    +0.086 C 
BRANCH  15  16
ATOM     16  C   LIG    1       23.082 -22.243   6.957  0.00  0.00    +0.050 C 
BRANCH  16  17
ATOM     17  C   LIG    1       23.950 -23.512   6.873  0.00  0.00    -0.043 A 
ATOM     18  C   LIG    1       23.480 -24.732   6.425  0.00  0.00    +0.052 A 
ATOM     19  C   LIG    1       24.404 -25.736   6.110  0.00  0.00    +0.159 A 
ATOM     20  C   LIG    1       25.759 -25.506   6.056  0.00  0.00    +0.158 A 
ATOM     21  C   LIG    1       26.233 -24.307   6.549  0.00  0.00    +0.049 A 
ATOM     22  C   LIG    1       25.289 -23.554   7.222  0.00  0.00    +0.007 A 
BRANCH  19  23
ATOM     23  O   LIG    1       23.946 -27.024   5.807  0.00  0.00    -0.503 OA
ATOM     24  H   LIG    1       24.012 -27.039   4.831  0.00  0.00    +0.292 HD
ENDBRANCH  19  23
BRANCH  20  25
ATOM     25  O   LIG    1       26.632 -26.458   5.618  0.00  0.00    -0.503 OA
ATOM     26  H   LIG    1       27.205 -26.703   6.365  0.00  0.00    +0.292 HD
ENDBRANCH  20  25
ENDBRANCH  16  17
ENDBRANCH  15  16
ENDBRANCH   1  15
TORSDOF 10
ENDMDL
MODEL 5
REMARK VINA RESULT:      -8.5      3.892      8.105
REMARK  Name = *****
REMARK                            x       y       z     vdW  Elec       q    Type
REMARK                         _______ _______ _______ _____ _____    ______ ____
ROOT
ATOM      1  N   LIG    1       28.337 -20.894   6.190  0.00  0.00    -0.313 NA
ATOM      2  H   LIG    1       28.287 -21.877   6.461  0.00  0.00    +0.122 HD
ENDROOT
BRANCH   1   4
ATOM      3  C   LIG    1       29.773 -21.099   8.010  0.00  0.00    +0.024 C 
ATOM      4  C   LIG    1       29.574 -20.339   6.773  0.00  0.00    +0.051 C 
BRANCH   4   5
ATOM      5  C   LIG    1       29.671 -18.912   7.306  0.00  0.00    +0.023 C 
BRANCH   5   6
ATOM      6  C   LIG    1       31.149 -18.584   7.723  0.00  0.00    +0.036 C 
BRANCH   6   7
ATOM      7  C   LIG    1       31.241 -17.805   8.988  0.00  0.00    -0.047 A 
ATOM      8  C   LIG    1       30.215 -17.923   9.918  0.00  0.00    +0.007 A 
ATOM      9  C   LIG    1       30.277 -17.198  11.097  0.00  0.00    +0.045 A 
ATOM     10  C   LIG    1       31.385 -16.393  11.352  0.00  0.00    +0.117 A 
ATOM     11  C   LIG    1       32.410 -16.255  10.424  0.00  0.00    +0.045 A 
ATOM     12  C   LIG    1       32.332 -16.952   9.226  0.00  0.00    +0.007 A 
BRANCH  10  13
ATOM     13  O   LIG    1       31.499 -15.725  12.534  0.00  0.00    -0.507 OA
ATOM     14  H   LIG    1       32.028 -14.927  12.371  0.00  0.00    +0.292 HD
ENDBRANCH  10  13
ENDBRANCH   6   7
ENDBRANCH   5   6
ENDBRANCH   4   5
ENDBRANCH   1   4
BRANCH   1  15
ATOM     15  C   LIG    1       27.035 -20.241   6.612  0.00  0.00    +0.086 C 
BRANCH  15  16
ATOM     16  C   LIG    1       25.959 -20.857   7.649  0.00  0.00    +0.050 C 
BRANCH  16  17
ATOM     17  C   LIG    1       25.244 -22.205   7.440  0.00  0.00    -0.043 A 
ATOM     18  C   LIG    1       23.886 -22.324   7.216  0.00  0.00    +0.052 A 
ATOM     19  C   LIG    1       23.384 -23.545   6.750  0.00  0.00    +0.159 A 
ATOM     20  C   LIG    1       24.200 -24.573   6.337  0.00  0.00    +0.158 A 
ATOM     21  C   LIG    1       25.550 -24.476   6.605  0.00  0.00    +0.049 A 
ATOM     22  C   LIG    1       25.892 -23.428   7.440  0.00  0.00    +0.007 A 
BRANCH  19  23
ATOM     23  O   LIG    1       21.999 -23.735   6.668  0.00  0.00    -0.503 OA
ATOM     24  H   LIG    1       21.841 -23.665   5.705  0.00  0.00    +0.292 HD
ENDBRANCH  19  23
BRANCH  20  25
ATOM     25  O   LIG    1       23.696 -25.703   5.762  0.00  0.00    -0.503 OA
ATOM     26  H   LIG    1       24.284 -26.443   5.992  0.00  0.00    +0.292 HD
ENDBRANCH  20  25
ENDBRANCH  16  17
ENDBRANCH  15  16
ENDBRANCH   1  15
TORSDOF 10
ENDMDL
MODEL 6
REMARK VINA RESULT:      -8.5      1.493      2.324
REMARK  Name = *****
REMARK                            x       y       z     vdW  Elec       q    Type
REMARK                         _______ _______ _______ _____ _____    ______ ____
ROOT
ATOM      1  N   LIG    1       25.065 -20.320   4.996  0.00  0.00    -0.313 NA
ATOM      2  H   LIG    1       24.964 -19.304   5.023  0.00  0.00    +0.122 HD
ENDROOT
BRANCH   1   4
ATOM      3  C   LIG    1       22.791 -19.850   5.147  0.00  0.00    +0.024 C 
ATOM      4  C   LIG    1       23.776 -20.902   5.415  0.00  0.00    +0.051 C 
BRANCH   4   5
ATOM      5  C   LIG    1       23.446 -21.227   6.869  0.00  0.00    +0.023 C 
BRANCH   5   6
ATOM      6  C   LIG    1       22.851 -22.675   6.984  0.00  0.00    +0.036 C 
BRANCH   6   7
ATOM      7  C   LIG    1       23.865 -23.743   6.769  0.00  0.00    -0.047 A 
ATOM      8  C   LIG    1       25.176 -23.505   7.163  0.00  0.00    +0.007 A 
ATOM      9  C   LIG    1       26.137 -24.483   6.962  0.00  0.00    +0.045 A 
ATOM     10  C   LIG    1       25.769 -25.705   6.405  0.00  0.00    +0.117 A 
ATOM     11  C   LIG    1       24.464 -25.950   5.994  0.00  0.00    +0.045 A 
ATOM     12  C   LIG    1       23.507 -24.959   6.160  0.00  0.00    +0.007 A 
BRANCH  10  13
ATOM     13  O   LIG    1       26.683 -26.705   6.261  0.00  0.00    -0.507 OA
ATOM     14  H   LIG    1       27.252 -26.698   7.048  0.00  0.00    +0.292 HD
ENDBRANCH  10  13
ENDBRANCH   6   7
ENDBRANCH   5   6
ENDBRANCH   4   5
ENDBRANCH   1   4
BRANCH   1  15
ATOM     15  C   LIG    1       26.276 -20.678   5.836  0.00  0.00    +0.086 C 
BRANCH  15  16
ATOM     16  C   LIG    1       27.743 -20.009   5.716  0.00  0.00    +0.050 C 
BRANCH  16  17
ATOM     17  C   LIG    1       28.752 -19.945   6.878  0.00  0.00    -0.043 A 
ATOM     18  C   LIG    1       29.075 -21.030   7.671  0.00  0.00    +0.052 A 
ATOM     19  C   LIG    1       30.203 -20.949   8.498  0.00  0.00    +0.159 A 
ATOM     20  C   LIG    1       31.102 -19.910   8.424  0.00  0.00    +0.158 A 
ATOM     21  C   LIG    1       30.757 -18.806   7.672  0.00  0.00    +0.049 A 
ATOM     22  C   LIG    1       29.445 -18.802   7.234  0.00  0.00    +0.007 A 
BRANCH  19  23
ATOM     23  O   LIG    1       30.456 -21.970   9.420  0.00  0.00    -0.503 OA
ATOM     24  H   LIG    1       31.093 -21.542  10.028  0.00  0.00    +0.292 HD
ENDBRANCH  19  23
BRANCH  20  25
ATOM     25  O   LIG    1       32.263 -19.914   9.141  0.00  0.00    -0.503 OA
ATOM     26  H   LIG    1       32.226 -19.173   9.771  0.00  0.00    +0.292 HD
ENDBRANCH  20  25
ENDBRANCH  16  17
ENDBRANCH  15  16
ENDBRANCH   1  15
TORSDOF 10
ENDMDL
MODEL 7
REMARK VINA RESULT:      -8.4      2.049      6.238
REMARK  Name = *****
REMARK                            x       y       z     vdW  Elec       q    Type
REMARK                         _______ _______ _______ _____ _____    ______ ____
ROOT
ATOM      1  N   LIG    1       23.647 -21.224   7.723  0.00  0.00    -0.313 NA
ATOM      2  H   LIG    1       22.985 -20.459   7.867  0.00  0.00    +0.122 HD
ENDROOT
BRANCH   1   4
ATOM      3  C   LIG    1       25.280 -20.848   6.108  0.00  0.00    +0.024 C 
ATOM      4  C   LIG    1       24.979 -20.621   7.525  0.00  0.00    +0.051 C 
BRANCH   4   5
ATOM      5  C   LIG    1       26.245 -21.179   8.169  0.00  0.00    +0.023 C 
BRANCH   5   6
ATOM      6  C   LIG    1       27.421 -21.206   7.130  0.00  0.00    +0.036 C 
BRANCH   6   7
ATOM      7  C   LIG    1       28.708 -20.708   7.688  0.00  0.00    -0.047 A 
ATOM      8  C   LIG    1       28.957 -19.341   7.668  0.00  0.00    +0.007 A 
ATOM      9  C   LIG    1       30.154 -18.859   8.173  0.00  0.00    +0.045 A 
ATOM     10  C   LIG    1       31.072 -19.745   8.731  0.00  0.00    +0.117 A 
ATOM     11  C   LIG    1       30.841 -21.115   8.745  0.00  0.00    +0.045 A 
ATOM     12  C   LIG    1       29.659 -21.605   8.205  0.00  0.00    +0.007 A 
BRANCH  10  13
ATOM     13  O   LIG    1       32.224 -19.286   9.297  0.00  0.00    -0.507 OA
ATOM     14  H   LIG    1       32.765 -18.900   8.589  0.00  0.00    +0.292 HD
ENDBRANCH  10  13
ENDBRANCH   6   7
ENDBRANCH   5   6
ENDBRANCH   4   5
ENDBRANCH   1   4
BRANCH   1  15
ATOM     15  C   LIG    1       23.112 -22.078   6.590  0.00  0.00    +0.086 C 
BRANCH  15  16
ATOM     16  C   LIG    1       22.859 -23.673   6.644  0.00  0.00    +0.050 C 
BRANCH  16  17
ATOM     17  C   LIG    1       23.981 -24.722   6.523  0.00  0.00    -0.043 A 
ATOM     18  C   LIG    1       23.816 -25.951   5.913  0.00  0.00    +0.052 A 
ATOM     19  C   LIG    1       24.954 -26.703   5.594  0.00  0.00    +0.159 A 
ATOM     20  C   LIG    1       26.229 -26.198   5.699  0.00  0.00    +0.158 A 
ATOM     21  C   LIG    1       26.398 -24.995   6.353  0.00  0.00    +0.049 A 
ATOM     22  C   LIG    1       25.266 -24.533   6.999  0.00  0.00    +0.007 A 
BRANCH  19  23
ATOM     23  O   LIG    1       24.804 -28.012   5.122  0.00  0.00    -0.503 OA
ATOM     24  H   LIG    1       25.531 -28.479   5.583  0.00  0.00    +0.292 HD
ENDBRANCH  19  23
BRANCH  20  25
ATOM     25  O   LIG    1       27.315 -26.897   5.260  0.00  0.00    -0.503 OA
ATOM     26  H   LIG    1       27.896 -26.277   4.785  0.00  0.00    +0.292 HD
ENDBRANCH  20  25
ENDBRANCH  16  17
ENDBRANCH  15  16
ENDBRANCH   1  15
TORSDOF 10
ENDMDL
MODEL 8
REMARK VINA RESULT:      -8.4      1.089      5.698
REMARK  Name = *****
REMARK                            x       y       z     vdW  Elec       q    Type
REMARK                         _______ _______ _______ _____ _____    ______ ____
ROOT
ATOM      1  N   LIG    1       22.428 -22.057   5.864  0.00  0.00    -0.313 NA
ATOM      2  H   LIG    1       22.254 -22.497   4.959  0.00  0.00    +0.122 HD
ENDROOT
BRANCH   1   4
ATOM      3  C   LIG    1       22.652 -19.927   4.955  0.00  0.00    +0.024 C 
ATOM      4  C   LIG    1       23.407 -20.975   5.647  0.00  0.00    +0.051 C 
BRANCH   4   5
ATOM      5  C   LIG    1       24.606 -21.116   4.713  0.00  0.00    +0.023 C 
BRANCH   5   6
ATOM      6  C   LIG    1       25.645 -19.971   4.981  0.00  0.00    +0.036 C 
BRANCH   6   7
ATOM      7  C   LIG    1       26.719 -20.366   5.934  0.00  0.00    -0.047 A 
ATOM      8  C   LIG    1       28.025 -19.978   5.662  0.00  0.00    +0.007 A 
ATOM      9  C   LIG    1       29.040 -20.346   6.531  0.00  0.00    +0.045 A 
ATOM     10  C   LIG    1       28.732 -21.063   7.684  0.00  0.00    +0.117 A 
ATOM     11  C   LIG    1       27.432 -21.469   7.960  0.00  0.00    +0.045 A 
ATOM     12  C   LIG    1       26.419 -21.135   7.072  0.00  0.00    +0.007 A 
BRANCH  10  13
ATOM     13  O   LIG    1       29.704 -21.375   8.587  0.00  0.00    -0.507 OA
ATOM     14  H   LIG    1       29.692 -20.694   9.279  0.00  0.00    +0.292 HD
ENDBRANCH  10  13
ENDBRANCH   6   7
ENDBRANCH   5   6
ENDBRANCH   4   5
ENDBRANCH   1   4
BRANCH   1  15
ATOM     15  C   LIG    1       22.831 -23.154   6.830  0.00  0.00    +0.086 C 
BRANCH  15  16
ATOM     16  C   LIG    1       24.319 -23.762   7.006  0.00  0.00    +0.050 C 
BRANCH  16  17
ATOM     17  C   LIG    1       24.811 -25.039   6.299  0.00  0.00    -0.043 A 
ATOM     18  C   LIG    1       26.145 -25.330   6.086  0.00  0.00    +0.052 A 
ATOM     19  C   LIG    1       26.499 -26.631   5.707  0.00  0.00    +0.159 A 
ATOM     20  C   LIG    1       25.601 -27.674   5.711  0.00  0.00    +0.158 A 
ATOM     21  C   LIG    1       24.264 -27.377   5.875  0.00  0.00    +0.049 A 
ATOM     22  C   LIG    1       23.968 -26.028   5.822  0.00  0.00    +0.007 A 
BRANCH  19  23
ATOM     23  O   LIG    1       27.820 -26.905   5.335  0.00  0.00    -0.503 OA
ATOM     24  H   LIG    1       27.864 -26.512   4.440  0.00  0.00    +0.292 HD
ENDBRANCH  19  23
BRANCH  20  25
ATOM     25  O   LIG    1       25.993 -28.958   5.469  0.00  0.00    -0.503 OA
ATOM     26  H   LIG    1       25.858 -29.470   6.285  0.00  0.00    +0.292 HD
ENDBRANCH  20  25
ENDBRANCH  16  17
ENDBRANCH  15  16
ENDBRANCH   1  15
TORSDOF 10
ENDMDL
MODEL 9
REMARK VINA RESULT:      -8.3      2.864      4.880
REMARK  Name = *****
REMARK                            x       y       z     vdW  Elec       q    Type
REMARK                         _______ _______ _______ _____ _____    ______ ____
ROOT
ATOM      1  N   LIG    1       25.523 -23.040   6.987  0.00  0.00    -0.313 NA
ATOM      2  H   LIG    1       25.531 -22.767   6.003  0.00  0.00    +0.122 HD
ENDROOT
BRANCH   1   4
ATOM      3  C   LIG    1       23.350 -23.812   6.674  0.00  0.00    +0.024 C 
ATOM      4  C   LIG    1       24.141 -22.876   7.478  0.00  0.00    +0.051 C 
BRANCH   4   5
ATOM      5  C   LIG    1       23.338 -21.593   7.280  0.00  0.00    +0.023 C 
BRANCH   5   6
ATOM      6  C   LIG    1       22.883 -21.460   5.784  0.00  0.00    +0.036 C 
BRANCH   6   7
ATOM      7  C   LIG    1       23.693 -20.479   5.010  0.00  0.00    -0.047 A 
ATOM      8  C   LIG    1       23.056 -19.371   4.468  0.00  0.00    +0.007 A 
ATOM      9  C   LIG    1       23.792 -18.452   3.735  0.00  0.00    +0.045 A 
ATOM     10  C   LIG    1       25.165 -18.631   3.588  0.00  0.00    +0.117 A 
ATOM     11  C   LIG    1       25.811 -19.743   4.114  0.00  0.00    +0.045 A 
ATOM     12  C   LIG    1       25.071 -20.684   4.816  0.00  0.00    +0.007 A 
BRANCH  10  13
ATOM     13  O   LIG    1       25.919 -17.706   2.932  0.00  0.00    -0.507 OA
ATOM     14  H   LIG    1       26.045 -16.951   3.530  0.00  0.00    +0.292 HD
ENDBRANCH  10  13
ENDBRANCH   6   7
ENDBRANCH   5   6
ENDBRANCH   4   5
ENDBRANCH   1   4
BRANCH   1  15
ATOM     15  C   LIG    1       26.594 -22.229   7.691  0.00  0.00    +0.086 C 
BRANCH  15  16
ATOM     16  C   LIG    1       27.830 -21.471   6.977  0.00  0.00    +0.050 C 
BRANCH  16  17
ATOM     17  C   LIG    1       28.940 -20.731   7.747  0.00  0.00    -0.043 A 
ATOM     18  C   LIG    1       30.043 -21.359   8.293  0.00  0.00    +0.052 A 
ATOM     19  C   LIG    1       31.127 -20.577   8.709  0.00  0.00    +0.159 A 
ATOM     20  C   LIG    1       31.218 -19.231   8.437  0.00  0.00    +0.158 A 
ATOM     21  C   LIG    1       30.101 -18.594   7.938  0.00  0.00    +0.049 A 
ATOM     22  C   LIG    1       28.951 -19.362   7.955  0.00  0.00    +0.007 A 
BRANCH  19  23
ATOM     23  O   LIG    1       32.182 -21.177   9.406  0.00  0.00    -0.503 OA
ATOM     24  H   LIG    1       31.723 -21.557  10.182  0.00  0.00    +0.292 HD
ENDBRANCH  19  23
BRANCH  20  25
ATOM     25  O   LIG    1       32.340 -18.514   8.733  0.00  0.00    -0.503 OA
ATOM     26  H   LIG    1       32.996 -18.684   8.034  0.00  0.00    +0.292 HD
ENDBRANCH  20  25
ENDBRANCH  16  17
ENDBRANCH  15  16
ENDBRANCH   1  15
TORSDOF 10
ENDMDL
