MODEL 1
REMARK VINA RESULT:      -6.6      0.000      0.000
REMARK  Name = *****
REMARK                            x       y       z     vdW  Elec       q    Type
REMARK                         _______ _______ _______ _____ _____    ______ ____
ROOT
ATOM      1  C   LIG    1       23.763 -31.549   9.271  0.00  0.00    +0.134 C 
ATOM      2  C   LIG    1       23.710 -30.025   9.488  0.00  0.00    +0.079 C 
ATOM      3  C   LIG    1       23.500 -29.677  10.963  0.00  0.00    +0.158 C 
ATOM      4  C   LIG    1       22.139 -30.221  11.330  0.00  0.00    +0.030 A 
ATOM      5  C   LIG    1       21.749 -31.495  10.867  0.00  0.00    +0.007 A 
ATOM      6  C   LIG    1       20.621 -32.091  11.428  0.00  0.00    +0.132 A 
ATOM      7  C   LIG    1       19.830 -31.397  12.354  0.00  0.00    +0.078 A 
ATOM      8  C   LIG    1       18.682 -32.064  12.968  0.00  0.00    +0.198 C 
ATOM      9  O   LIG    1       18.497 -33.260  12.752  0.00  0.00    -0.286 OA
ATOM     10  C   LIG    1       17.778 -31.313  13.843  0.00  0.00    +0.037 A 
ATOM     11  C   LIG    1       18.014 -29.969  14.147  0.00  0.00    +0.075 A 
ATOM     12  C   LIG    1       17.115 -29.297  14.996  0.00  0.00    +0.132 A 
ATOM     13  C   LIG    1       16.001 -29.983  15.500  0.00  0.00    +0.046 A 
ATOM     14  C   LIG    1       15.781 -31.324  15.189  0.00  0.00    +0.004 A 
ATOM     15  C   LIG    1       19.222 -29.317  13.585  0.00  0.00    +0.202 C 
ATOM     16  O   LIG    1       19.533 -28.152  13.837  0.00  0.00    -0.286 OA
ATOM     17  C   LIG    1       16.669 -31.991  14.362  0.00  0.00    +0.012 A 
ATOM     18  C   LIG    1       20.121 -30.076  12.684  0.00  0.00    +0.078 A 
ATOM     19  C   LIG    1       21.284 -29.492  12.171  0.00  0.00    +0.135 A 
ATOM     20  C   LIG    1       22.425 -32.171   9.680  0.00  0.00    +0.082 C 
ENDROOT
BRANCH   1  21
ATOM     21  O   LIG    1       24.798 -32.190  10.029  0.00  0.00    -0.381 OA
ATOM     22  H   LIG    1       25.253 -31.480  10.527  0.00  0.00    +0.211 HD
ENDBRANCH   1  21
BRANCH  19  23
ATOM     23  O   LIG    1       21.634 -28.197  12.448  0.00  0.00    -0.506 OA
ATOM     24  H   LIG    1       22.112 -27.816  11.674  0.00  0.00    +0.292 HD
ENDBRANCH  19  23
BRANCH   6  25
ATOM     25  O   LIG    1       20.339 -33.371  11.028  0.00  0.00    -0.506 OA
ATOM     26  H   LIG    1       20.421 -33.968  11.806  0.00  0.00    +0.292 HD
ENDBRANCH   6  25
BRANCH  12  27
ATOM     27  O   LIG    1       17.319 -27.966  15.248  0.00  0.00    -0.494 OA
ATOM     28  C   LIG    1       16.379 -27.064  14.675  0.00  0.00    +0.277 C 
ENDBRANCH  12  27
BRANCH   1  29
ATOM     29  C   LIG    1       24.118 -31.816   7.802  0.00  0.00    +0.202 C 
ATOM     30  O   LIG    1       23.785 -32.861   7.233  0.00  0.00    -0.291 OA
BRANCH  29  31
ATOM     31  C   LIG    1       24.848 -30.707   7.059  0.00  0.00    +0.309 C 
BRANCH  31  32
ATOM     32  O   LIG    1       23.982 -29.681   6.588  0.00  0.00    -0.457 OA
BRANCH  32  33
ATOM     33  C   LIG    1       24.613 -28.760   5.789  0.00  0.00    +0.307 C 
ATOM     34  O   LIG    1       25.363 -29.012   4.885  0.00  0.00    -0.251 OA
BRANCH  33  35
ATOM     35  C   LIG    1       24.437 -27.381   6.375  0.00  0.00    +0.120 C 
BRANCH  35  36
ATOM     36  C   LIG    1       25.729 -26.573   6.472  0.00  0.00    +0.011 C 
BRANCH  36  38
ATOM     37  C   LIG    1       25.425 -24.086   6.883  0.00  0.00    +0.004 C 
ATOM     38  C   LIG    1       25.612 -25.187   5.849  0.00  0.00    -0.003 C 
ENDBRANCH  36  38
ENDBRANCH  35  36
ENDBRANCH  33  35
ENDBRANCH  32  33
ENDBRANCH  31  32
ENDBRANCH  29  31
ENDBRANCH   1  29
BRANCH   3  39
ATOM     39  O   LIG    1       24.521 -30.331  11.755  0.00  0.00    -0.343 OA
BRANCH  39  40
ATOM     40  C   LIG    1       25.382 -29.462  12.518  0.00  0.00    +0.253 C 
ATOM     41  O   LIG    1       24.684 -28.280  12.866  0.00  0.00    -0.346 OA
ATOM     42  C   LIG    1       25.436 -27.163  13.341  0.00  0.00    +0.148 C 
ATOM     43  C   LIG    1       25.718 -27.221  14.843  0.00  0.00    +0.040 C 
ATOM     44  C   LIG    1       26.655 -26.860  12.459  0.00  0.00    +0.163 C 
ATOM     45  C   LIG    1       27.536 -28.113  12.234  0.00  0.00    +0.109 C 
ATOM     46  C   LIG    1       26.612 -29.181  11.636  0.00  0.00    +0.086 C 
BRANCH  45  47
ATOM     47  N   LIG    1       28.266 -28.596  13.414  0.00  0.00    -0.302 N 
ATOM     48  H   LIG    1       27.833 -28.537  14.331  0.00  0.00    +0.149 HD
ATOM     49  C   LIG    1       29.374 -29.447  13.311  0.00  0.00    +0.318 C 
ATOM     50  O   LIG    1       29.805 -29.823  12.219  0.00  0.00    -0.266 OA
BRANCH  49  51
ATOM     51  C   LIG    1       30.004 -29.867  14.665  0.00  0.00    +0.469 C 
ATOM     52  F   LIG    1       30.205 -28.811  15.500  0.00  0.00    -0.162 F 
ATOM     53  F   LIG    1       31.201 -30.497  14.527  0.00  0.00    -0.162 F 
ATOM     54  F   LIG    1       29.190 -30.730  15.345  0.00  0.00    -0.162 F 
ENDBRANCH  49  51
ENDBRANCH  45  47
BRANCH  44  55
ATOM     55  O   LIG    1       27.347 -25.712  12.924  0.00  0.00    -0.387 OA
ATOM     56  H   LIG    1       28.305 -25.891  12.869  0.00  0.00    +0.210 HD
ENDBRANCH  44  55
ENDBRANCH  39  40
ENDBRANCH   3  39
TORSDOF 16
ENDMDL
MODEL 2
REMARK VINA RESULT:      -6.3      3.587      7.033
REMARK  Name = *****
REMARK                            x       y       z     vdW  Elec       q    Type
REMARK                         _______ _______ _______ _____ _____    ______ ____
ROOT
ATOM      1  C   LIG    1       25.950 -27.772  14.181  0.00  0.00    +0.134 C 
ATOM      2  C   LIG    1       25.735 -29.267  13.878  0.00  0.00    +0.079 C 
ATOM      3  C   LIG    1       24.598 -29.477  12.877  0.00  0.00    +0.158 C 
ATOM      4  C   LIG    1       23.344 -28.983  13.560  0.00  0.00    +0.030 A 
ATOM      5  C   LIG    1       23.382 -27.788  14.309  0.00  0.00    +0.007 A 
ATOM      6  C   LIG    1       22.177 -27.209  14.700  0.00  0.00    +0.132 A 
ATOM      7  C   LIG    1       20.958 -27.853  14.450  0.00  0.00    +0.078 A 
ATOM      8  C   LIG    1       19.704 -27.199  14.824  0.00  0.00    +0.198 C 
ATOM      9  O   LIG    1       19.732 -26.044  15.245  0.00  0.00    -0.286 OA
ATOM     10  C   LIG    1       18.432 -27.912  14.679  0.00  0.00    +0.037 A 
ATOM     11  C   LIG    1       18.382 -29.202  14.143  0.00  0.00    +0.075 A 
ATOM     12  C   LIG    1       17.132 -29.839  14.023  0.00  0.00    +0.132 A 
ATOM     13  C   LIG    1       15.977 -29.175  14.459  0.00  0.00    +0.046 A 
ATOM     14  C   LIG    1       16.044 -27.888  14.989  0.00  0.00    +0.004 A 
ATOM     15  C   LIG    1       19.647 -29.833  13.693  0.00  0.00    +0.202 C 
ATOM     16  O   LIG    1       19.690 -30.945  13.166  0.00  0.00    -0.286 OA
ATOM     17  C   LIG    1       17.271 -27.254  15.099  0.00  0.00    +0.012 A 
ATOM     18  C   LIG    1       20.931 -29.114  13.861  0.00  0.00    +0.078 A 
ATOM     19  C   LIG    1       22.132 -29.674  13.412  0.00  0.00    +0.135 A 
ATOM     20  C   LIG    1       24.687 -27.194  14.827  0.00  0.00    +0.082 C 
ENDROOT
BRANCH   1  21
ATOM     21  O   LIG    1       26.240 -26.996  13.010  0.00  0.00    -0.381 OA
ATOM     22  H   LIG    1       26.703 -27.597  12.390  0.00  0.00    +0.211 HD
ENDBRANCH   1  21
BRANCH  19  23
ATOM     23  O   LIG    1       22.186 -30.912  12.826  0.00  0.00    -0.506 OA
ATOM     24  H   LIG    1       22.031 -31.604  13.511  0.00  0.00    +0.292 HD
ENDBRANCH  19  23
BRANCH   6  25
ATOM     25  O   LIG    1       22.255 -25.995  15.332  0.00  0.00    -0.506 OA
ATOM     26  H   LIG    1       22.603 -25.331  14.694  0.00  0.00    +0.292 HD
ENDBRANCH   6  25
BRANCH  12  27
ATOM     27  O   LIG    1       17.092 -31.123  13.548  0.00  0.00    -0.494 OA
ATOM     28  C   LIG    1       16.550 -31.296  12.242  0.00  0.00    +0.277 C 
ENDBRANCH  12  27
BRANCH   1  29
ATOM     29  C   LIG    1       27.190 -27.631  15.072  0.00  0.00    +0.202 C 
ATOM     30  O   LIG    1       27.566 -26.533  15.495  0.00  0.00    -0.291 OA
BRANCH  29  31
ATOM     31  C   LIG    1       27.904 -28.917  15.465  0.00  0.00    +0.309 C 
BRANCH  31  32
ATOM     32  O   LIG    1       29.321 -28.789  15.491  0.00  0.00    -0.457 OA
BRANCH  32  33
ATOM     33  C   LIG    1       29.945 -29.424  14.446  0.00  0.00    +0.307 C 
ATOM     34  O   LIG    1       29.456 -30.267  13.744  0.00  0.00    -0.251 OA
BRANCH  33  35
ATOM     35  C   LIG    1       31.419 -29.103  14.472  0.00  0.00    +0.120 C 
BRANCH  35  36
ATOM     36  C   LIG    1       32.326 -30.311  14.244  0.00  0.00    +0.011 C 
BRANCH  36  38
ATOM     37  C   LIG    1       33.025 -28.912  12.243  0.00  0.00    +0.004 C 
ATOM     38  C   LIG    1       33.006 -30.295  12.880  0.00  0.00    -0.003 C 
ENDBRANCH  36  38
ENDBRANCH  35  36
ENDBRANCH  33  35
ENDBRANCH  32  33
ENDBRANCH  31  32
ENDBRANCH  29  31
ENDBRANCH   1  29
BRANCH   3  39
ATOM     39  O   LIG    1       24.856 -28.686  11.691  0.00  0.00    -0.343 OA
BRANCH  39  40
ATOM     40  C   LIG    1       24.791 -29.391  10.435  0.00  0.00    +0.253 C 
ATOM     41  O   LIG    1       24.495 -30.756  10.666  0.00  0.00    -0.346 OA
ATOM     42  C   LIG    1       24.696 -31.684   9.600  0.00  0.00    +0.148 C 
ATOM     43  C   LIG    1       23.502 -31.775   8.647  0.00  0.00    +0.040 C 
ATOM     44  C   LIG    1       26.062 -31.509   8.920  0.00  0.00    +0.163 C 
ATOM     45  C   LIG    1       26.311 -30.044   8.485  0.00  0.00    +0.109 C 
ATOM     46  C   LIG    1       26.156 -29.192   9.750  0.00  0.00    +0.086 C 
BRANCH  45  47
ATOM     47  N   LIG    1       25.479 -29.561   7.374  0.00  0.00    -0.302 N 
ATOM     48  H   LIG    1       24.674 -30.106   7.076  0.00  0.00    +0.149 HD
ATOM     49  C   LIG    1       25.519 -28.232   6.933  0.00  0.00    +0.318 C 
ATOM     50  O   LIG    1       26.271 -27.400   7.444  0.00  0.00    -0.266 OA
BRANCH  49  51
ATOM     51  C   LIG    1       24.557 -27.903   5.762  0.00  0.00    +0.469 C 
ATOM     52  F   LIG    1       25.212 -27.701   4.586  0.00  0.00    -0.162 F 
ATOM     53  F   LIG    1       23.796 -26.798   5.987  0.00  0.00    -0.162 F 
ATOM     54  F   LIG    1       23.686 -28.931   5.531  0.00  0.00    -0.162 F 
ENDBRANCH  49  51
ENDBRANCH  45  47
BRANCH  44  55
ATOM     55  O   LIG    1       26.253 -32.480   7.904  0.00  0.00    -0.387 OA
ATOM     56  H   LIG    1       27.083 -32.959   8.093  0.00  0.00    +0.210 HD
ENDBRANCH  44  55
ENDBRANCH  39  40
ENDBRANCH   3  39
TORSDOF 16
ENDMDL
MODEL 3
REMARK VINA RESULT:      -5.9      1.942      2.720
REMARK  Name = *****
REMARK                            x       y       z     vdW  Elec       q    Type
REMARK                         _______ _______ _______ _____ _____    ______ ____
ROOT
ATOM      1  C   LIG    1       24.229 -31.826  10.053  0.00  0.00    +0.134 C 
ATOM      2  C   LIG    1       24.300 -30.291  10.153  0.00  0.00    +0.079 C 
ATOM      3  C   LIG    1       23.985 -29.808  11.571  0.00  0.00    +0.158 C 
ATOM      4  C   LIG    1       22.550 -30.200  11.835  0.00  0.00    +0.030 A 
ATOM      5  C   LIG    1       22.086 -31.468  11.427  0.00  0.00    +0.007 A 
ATOM      6  C   LIG    1       20.859 -31.915  11.911  0.00  0.00    +0.132 A 
ATOM      7  C   LIG    1       20.052 -31.083  12.699  0.00  0.00    +0.078 A 
ATOM      8  C   LIG    1       18.793 -31.595  13.239  0.00  0.00    +0.198 C 
ATOM      9  O   LIG    1       18.516 -32.784  13.091  0.00  0.00    -0.286 OA
ATOM     10  C   LIG    1       17.885 -30.699  13.961  0.00  0.00    +0.037 A 
ATOM     11  C   LIG    1       18.218 -29.361  14.189  0.00  0.00    +0.075 A 
ATOM     12  C   LIG    1       17.310 -28.546  14.892  0.00  0.00    +0.132 A 
ATOM     13  C   LIG    1       16.093 -29.090  15.327  0.00  0.00    +0.046 A 
ATOM     14  C   LIG    1       15.777 -30.427  15.093  0.00  0.00    +0.004 A 
ATOM     15  C   LIG    1       19.531 -28.865  13.708  0.00  0.00    +0.202 C 
ATOM     16  O   LIG    1       19.924 -27.715  13.907  0.00  0.00    -0.286 OA
ATOM     17  C   LIG    1       16.673 -31.234  14.411  0.00  0.00    +0.012 A 
ATOM     18  C   LIG    1       20.434 -29.770  12.961  0.00  0.00    +0.078 A 
ATOM     19  C   LIG    1       21.691 -29.334  12.529  0.00  0.00    +0.135 A 
ATOM     20  C   LIG    1       22.805 -32.295  10.367  0.00  0.00    +0.082 C 
ENDROOT
BRANCH   1  21
ATOM     21  O   LIG    1       25.121 -32.492  10.957  0.00  0.00    -0.381 OA
ATOM     22  H   LIG    1       26.004 -32.093  10.815  0.00  0.00    +0.211 HD
ENDBRANCH   1  21
BRANCH  19  23
ATOM     23  O   LIG    1       22.135 -28.056  12.747  0.00  0.00    -0.506 OA
ATOM     24  H   LIG    1       21.368 -27.437  12.729  0.00  0.00    +0.292 HD
ENDBRANCH  19  23
BRANCH   6  25
ATOM     25  O   LIG    1       20.495 -33.194  11.577  0.00  0.00    -0.506 OA
ATOM     26  H   LIG    1       21.145 -33.818  11.972  0.00  0.00    +0.292 HD
ENDBRANCH   6  25
BRANCH  12  27
ATOM     27  O   LIG    1       17.615 -27.223  15.068  0.00  0.00    -0.494 OA
ATOM     28  C   LIG    1       16.821 -26.291  14.341  0.00  0.00    +0.277 C 
ENDBRANCH  12  27
BRANCH   1  29
ATOM     29  C   LIG    1       24.695 -32.242   8.651  0.00  0.00    +0.202 C 
ATOM     30  O   LIG    1       25.518 -33.148   8.482  0.00  0.00    -0.291 OA
BRANCH  29  31
ATOM     31  C   LIG    1       24.049 -31.528   7.473  0.00  0.00    +0.309 C 
BRANCH  31  32
ATOM     32  O   LIG    1       24.961 -30.724   6.734  0.00  0.00    -0.457 OA
BRANCH  32  33
ATOM     33  C   LIG    1       24.389 -29.591   6.211  0.00  0.00    +0.307 C 
ATOM     34  O   LIG    1       23.347 -29.541   5.616  0.00  0.00    -0.251 OA
BRANCH  33  35
ATOM     35  C   LIG    1       25.384 -28.458   6.260  0.00  0.00    +0.120 C 
BRANCH  35  36
ATOM     36  C   LIG    1       24.754 -27.081   6.458  0.00  0.00    +0.011 C 
BRANCH  36  38
ATOM     37  C   LIG    1       25.062 -24.591   6.061  0.00  0.00    +0.004 C 
ATOM     38  C   LIG    1       25.400 -26.001   5.597  0.00  0.00    -0.003 C 
ENDBRANCH  36  38
ENDBRANCH  35  36
ENDBRANCH  33  35
ENDBRANCH  32  33
ENDBRANCH  31  32
ENDBRANCH  29  31
ENDBRANCH   1  29
BRANCH   3  39
ATOM     39  O   LIG    1       24.859 -30.483  12.508  0.00  0.00    -0.343 OA
BRANCH  39  40
ATOM     40  C   LIG    1       26.027 -29.747  12.924  0.00  0.00    +0.253 C 
ATOM     41  O   LIG    1       27.182 -30.551  12.766  0.00  0.00    -0.346 OA
ATOM     42  C   LIG    1       28.389 -30.138  13.407  0.00  0.00    +0.148 C 
ATOM     43  C   LIG    1       29.197 -29.134  12.582  0.00  0.00    +0.040 C 
ATOM     44  C   LIG    1       28.169 -29.748  14.876  0.00  0.00    +0.163 C 
ATOM     45  C   LIG    1       27.028 -28.713  15.037  0.00  0.00    +0.109 C 
ATOM     46  C   LIG    1       25.789 -29.341  14.390  0.00  0.00    +0.086 C 
BRANCH  45  47
ATOM     47  N   LIG    1       27.315 -27.367  14.521  0.00  0.00    -0.302 N 
ATOM     48  H   LIG    1       27.964 -27.254  13.748  0.00  0.00    +0.149 HD
ATOM     49  C   LIG    1       26.487 -26.270  14.794  0.00  0.00    +0.318 C 
ATOM     50  O   LIG    1       25.482 -26.374  15.500  0.00  0.00    -0.266 OA
BRANCH  49  51
ATOM     51  C   LIG    1       26.938 -24.934  14.148  0.00  0.00    +0.469 C 
ATOM     52  F   LIG    1       27.465 -25.104  12.904  0.00  0.00    -0.162 F 
ATOM     53  F   LIG    1       27.867 -24.269  14.885  0.00  0.00    -0.162 F 
ATOM     54  F   LIG    1       25.884 -24.078  13.992  0.00  0.00    -0.162 F 
ENDBRANCH  49  51
ENDBRANCH  45  47
BRANCH  44  55
ATOM     55  O   LIG    1       29.394 -29.397  15.499  0.00  0.00    -0.387 OA
ATOM     56  H   LIG    1       29.431 -28.424  15.574  0.00  0.00    +0.210 HD
ENDBRANCH  44  55
ENDBRANCH  39  40
ENDBRANCH   3  39
TORSDOF 16
ENDMDL
MODEL 4
REMARK VINA RESULT:      -5.9      2.052      2.966
REMARK  Name = *****
REMARK                            x       y       z     vdW  Elec       q    Type
REMARK                         _______ _______ _______ _____ _____    ______ ____
ROOT
ATOM      1  C   LIG    1       24.706 -30.449   8.995  0.00  0.00    +0.134 C 
ATOM      2  C   LIG    1       24.446 -29.155   9.789  0.00  0.00    +0.079 C 
ATOM      3  C   LIG    1       23.959 -29.456  11.208  0.00  0.00    +0.158 C 
ATOM      4  C   LIG    1       22.626 -30.151  11.051  0.00  0.00    +0.030 A 
ATOM      5  C   LIG    1       22.463 -31.131  10.050  0.00  0.00    +0.007 A 
ATOM      6  C   LIG    1       21.332 -31.944  10.093  0.00  0.00    +0.132 A 
ATOM      7  C   LIG    1       20.327 -31.724  11.044  0.00  0.00    +0.078 A 
ATOM      8  C   LIG    1       19.175 -32.624  11.101  0.00  0.00    +0.198 C 
ATOM      9  O   LIG    1       19.163 -33.629  10.392  0.00  0.00    -0.286 OA
ATOM     10  C   LIG    1       18.061 -32.335  12.008  0.00  0.00    +0.037 A 
ATOM     11  C   LIG    1       18.092 -31.230  12.864  0.00  0.00    +0.075 A 
ATOM     12  C   LIG    1       16.996 -31.001  13.717  0.00  0.00    +0.132 A 
ATOM     13  C   LIG    1       15.898 -31.873  13.675  0.00  0.00    +0.046 A 
ATOM     14  C   LIG    1       15.884 -32.972  12.817  0.00  0.00    +0.004 A 
ATOM     15  C   LIG    1       19.295 -30.362  12.859  0.00  0.00    +0.202 C 
ATOM     16  O   LIG    1       19.427 -29.397  13.612  0.00  0.00    -0.286 OA
ATOM     17  C   LIG    1       16.965 -33.205  11.984  0.00  0.00    +0.012 A 
ATOM     18  C   LIG    1       20.409 -30.649  11.925  0.00  0.00    +0.078 A 
ATOM     19  C   LIG    1       21.568 -29.865  11.927  0.00  0.00    +0.135 A 
ATOM     20  C   LIG    1       23.397 -31.231   8.849  0.00  0.00    +0.082 C 
ENDROOT
BRANCH   1  21
ATOM     21  O   LIG    1       25.667 -31.310   9.620  0.00  0.00    -0.381 OA
ATOM     22  H   LIG    1       25.404 -31.376  10.561  0.00  0.00    +0.211 HD
ENDBRANCH   1  21
BRANCH  19  23
ATOM     23  O   LIG    1       21.721 -28.790  12.763  0.00  0.00    -0.506 OA
ATOM     24  H   LIG    1       22.461 -28.226  12.437  0.00  0.00    +0.292 HD
ENDBRANCH  19  23
BRANCH   6  25
ATOM     25  O   LIG    1       21.265 -32.952   9.167  0.00  0.00    -0.506 OA
ATOM     26  H   LIG    1       22.139 -33.027   8.721  0.00  0.00    +0.292 HD
ENDBRANCH   6  25
BRANCH  12  27
ATOM     27  O   LIG    1       17.005 -29.889  14.515  0.00  0.00    -0.494 OA
ATOM     28  C   LIG    1       15.999 -28.916  14.254  0.00  0.00    +0.277 C 
ENDBRANCH  12  27
BRANCH   1  29
ATOM     29  C   LIG    1       25.325 -30.072   7.643  0.00  0.00    +0.202 C 
ATOM     30  O   LIG    1       25.627 -30.928   6.805  0.00  0.00    -0.291 OA
BRANCH  29  31
ATOM     31  C   LIG    1       25.494 -28.587   7.354  0.00  0.00    +0.309 C 
BRANCH  31  32
ATOM     32  O   LIG    1       24.666 -28.122   6.295  0.00  0.00    -0.457 OA
BRANCH  32  33
ATOM     33  C   LIG    1       25.292 -27.220   5.471  0.00  0.00    +0.307 C 
ATOM     34  O   LIG    1       26.436 -27.274   5.110  0.00  0.00    -0.251 OA
BRANCH  33  35
ATOM     35  C   LIG    1       24.414 -26.006   5.296  0.00  0.00    +0.120 C 
BRANCH  35  36
ATOM     36  C   LIG    1       24.336 -25.107   6.529  0.00  0.00    +0.011 C 
BRANCH  36  38
ATOM     37  C   LIG    1       23.022 -22.954   6.826  0.00  0.00    +0.004 C 
ATOM     38  C   LIG    1       24.225 -23.627   6.180  0.00  0.00    -0.003 C 
ENDBRANCH  36  38
ENDBRANCH  35  36
ENDBRANCH  33  35
ENDBRANCH  32  33
ENDBRANCH  31  32
ENDBRANCH  29  31
ENDBRANCH   1  29
BRANCH   3  39
ATOM     39  O   LIG    1       24.903 -30.345  11.855  0.00  0.00    -0.343 OA
BRANCH  39  40
ATOM     40  C   LIG    1       26.046 -29.714  12.467  0.00  0.00    +0.253 C 
ATOM     41  O   LIG    1       27.156 -30.592  12.430  0.00  0.00    -0.346 OA
ATOM     42  C   LIG    1       28.284 -30.294  13.253  0.00  0.00    +0.148 C 
ATOM     43  C   LIG    1       29.266 -29.319  12.601  0.00  0.00    +0.040 C 
ATOM     44  C   LIG    1       27.883 -29.951  14.695  0.00  0.00    +0.163 C 
ATOM     45  C   LIG    1       26.802 -28.844  14.750  0.00  0.00    +0.109 C 
ATOM     46  C   LIG    1       25.628 -29.352  13.904  0.00  0.00    +0.086 C 
BRANCH  45  47
ATOM     47  N   LIG    1       27.247 -27.502  14.348  0.00  0.00    -0.302 N 
ATOM     48  H   LIG    1       27.879 -27.398  13.559  0.00  0.00    +0.149 HD
ATOM     49  C   LIG    1       26.582 -26.340  14.760  0.00  0.00    +0.318 C 
ATOM     50  O   LIG    1       25.597 -26.382  15.500  0.00  0.00    -0.266 OA
BRANCH  49  51
ATOM     51  C   LIG    1       27.185 -25.016  14.222  0.00  0.00    +0.469 C 
ATOM     52  F   LIG    1       26.936 -24.827  12.897  0.00  0.00    -0.162 F 
ATOM     53  F   LIG    1       28.532 -24.933  14.387  0.00  0.00    -0.162 F 
ATOM     54  F   LIG    1       26.650 -23.932  14.860  0.00  0.00    -0.162 F 
ENDBRANCH  49  51
ENDBRANCH  45  47
BRANCH  44  55
ATOM     55  O   LIG    1       29.027 -29.716  15.500  0.00  0.00    -0.387 OA
ATOM     56  H   LIG    1       29.445 -28.886  15.201  0.00  0.00    +0.210 HD
ENDBRANCH  44  55
ENDBRANCH  39  40
ENDBRANCH   3  39
TORSDOF 16
ENDMDL
MODEL 5
REMARK VINA RESULT:      -5.4      3.433      7.277
REMARK  Name = *****
REMARK                            x       y       z     vdW  Elec       q    Type
REMARK                         _______ _______ _______ _____ _____    ______ ____
ROOT
ATOM      1  C   LIG    1       26.645 -27.292  13.732  0.00  0.00    +0.134 C 
ATOM      2  C   LIG    1       26.892 -28.773  14.073  0.00  0.00    +0.079 C 
ATOM      3  C   LIG    1       26.036 -29.698  13.204  0.00  0.00    +0.158 C 
ATOM      4  C   LIG    1       24.600 -29.396  13.566  0.00  0.00    +0.030 A 
ATOM      5  C   LIG    1       24.191 -28.058  13.748  0.00  0.00    +0.007 A 
ATOM      6  C   LIG    1       22.827 -27.782  13.810  0.00  0.00    +0.132 A 
ATOM      7  C   LIG    1       21.884 -28.818  13.802  0.00  0.00    +0.078 A 
ATOM      8  C   LIG    1       20.457 -28.498  13.815  0.00  0.00    +0.198 C 
ATOM      9  O   LIG    1       20.104 -27.324  13.716  0.00  0.00    -0.286 OA
ATOM     10  C   LIG    1       19.465 -29.571  13.929  0.00  0.00    +0.037 A 
ATOM     11  C   LIG    1       19.852 -30.914  13.979  0.00  0.00    +0.075 A 
ATOM     12  C   LIG    1       18.857 -31.903  14.083  0.00  0.00    +0.132 A 
ATOM     13  C   LIG    1       17.510 -31.520  14.154  0.00  0.00    +0.046 A 
ATOM     14  C   LIG    1       17.140 -30.176  14.100  0.00  0.00    +0.004 A 
ATOM     15  C   LIG    1       21.296 -31.239  13.886  0.00  0.00    +0.202 C 
ATOM     16  O   LIG    1       21.722 -32.394  13.875  0.00  0.00    -0.286 OA
ATOM     17  C   LIG    1       18.117 -29.201  13.987  0.00  0.00    +0.012 A 
ATOM     18  C   LIG    1       22.295 -30.148  13.793  0.00  0.00    +0.078 A 
ATOM     19  C   LIG    1       23.660 -30.433  13.669  0.00  0.00    +0.135 A 
ATOM     20  C   LIG    1       25.184 -26.936  14.024  0.00  0.00    +0.082 C 
ENDROOT
BRANCH   1  21
ATOM     21  O   LIG    1       26.908 -26.979  12.357  0.00  0.00    -0.381 OA
ATOM     22  H   LIG    1       26.465 -26.123  12.181  0.00  0.00    +0.211 HD
ENDBRANCH   1  21
BRANCH  19  23
ATOM     23  O   LIG    1       24.139 -31.716  13.656  0.00  0.00    -0.506 OA
ATOM     24  H   LIG    1       25.046 -31.729  14.044  0.00  0.00    +0.292 HD
ENDBRANCH  19  23
BRANCH   6  25
ATOM     25  O   LIG    1       22.471 -26.460  13.880  0.00  0.00    -0.506 OA
ATOM     26  H   LIG    1       23.289 -25.919  13.958  0.00  0.00    +0.292 HD
ENDBRANCH   6  25
BRANCH  12  27
ATOM     27  O   LIG    1       19.241 -33.213  14.186  0.00  0.00    -0.494 OA
ATOM     28  C   LIG    1       19.068 -33.824  15.461  0.00  0.00    +0.277 C 
ENDBRANCH  12  27
BRANCH   1  29
ATOM     29  C   LIG    1       27.636 -26.438  14.535  0.00  0.00    +0.202 C 
ATOM     30  O   LIG    1       27.485 -25.219  14.668  0.00  0.00    -0.291 OA
BRANCH  29  31
ATOM     31  C   LIG    1       28.783 -27.173  15.213  0.00  0.00    +0.309 C 
BRANCH  31  32
ATOM     32  O   LIG    1       29.966 -26.390  15.324  0.00  0.00    -0.457 OA
BRANCH  32  33
ATOM     33  C   LIG    1       31.102 -27.140  15.499  0.00  0.00    +0.307 C 
ATOM     34  O   LIG    1       32.229 -26.727  15.466  0.00  0.00    -0.251 OA
BRANCH  33  35
ATOM     35  C   LIG    1       30.744 -28.606  15.477  0.00  0.00    +0.120 C 
BRANCH  35  36
ATOM     36  C   LIG    1       31.830 -29.506  14.889  0.00  0.00    +0.011 C 
BRANCH  36  38
ATOM     37  C   LIG    1       33.025 -30.197  12.757  0.00  0.00    +0.004 C 
ATOM     38  C   LIG    1       31.763 -29.602  13.369  0.00  0.00    -0.003 C 
ENDBRANCH  36  38
ENDBRANCH  35  36
ENDBRANCH  33  35
ENDBRANCH  32  33
ENDBRANCH  31  32
ENDBRANCH  29  31
ENDBRANCH   1  29
BRANCH   3  39
ATOM     39  O   LIG    1       26.267 -29.386  11.808  0.00  0.00    -0.343 OA
BRANCH  39  40
ATOM     40  C   LIG    1       25.802 -30.365  10.858  0.00  0.00    +0.253 C 
ATOM     41  O   LIG    1       26.887 -30.825  10.072  0.00  0.00    -0.346 OA
ATOM     42  C   LIG    1       26.599 -31.550   8.877  0.00  0.00    +0.148 C 
ATOM     43  C   LIG    1       26.377 -33.045   9.117  0.00  0.00    +0.040 C 
ATOM     44  C   LIG    1       25.531 -30.861   8.016  0.00  0.00    +0.163 C 
ATOM     45  C   LIG    1       24.255 -30.530   8.829  0.00  0.00    +0.109 C 
ATOM     46  C   LIG    1       24.715 -29.674  10.014  0.00  0.00    +0.086 C 
BRANCH  45  47
ATOM     47  N   LIG    1       23.450 -31.687   9.246  0.00  0.00    -0.302 N 
ATOM     48  H   LIG    1       23.877 -32.608   9.284  0.00  0.00    +0.149 HD
ATOM     49  C   LIG    1       22.235 -31.545   9.930  0.00  0.00    +0.318 C 
ATOM     50  O   LIG    1       21.768 -30.436  10.200  0.00  0.00    -0.266 OA
BRANCH  49  51
ATOM     51  C   LIG    1       21.537 -32.877  10.306  0.00  0.00    +0.469 C 
ATOM     52  F   LIG    1       20.334 -32.686  10.913  0.00  0.00    -0.162 F 
ATOM     53  F   LIG    1       22.280 -33.657  11.135  0.00  0.00    -0.162 F 
ATOM     54  F   LIG    1       21.278 -33.632   9.196  0.00  0.00    -0.162 F 
ENDBRANCH  49  51
ENDBRANCH  45  47
BRANCH  44  55
ATOM     55  O   LIG    1       25.309 -31.576   6.810  0.00  0.00    -0.387 OA
ATOM     56  H   LIG    1       25.443 -32.526   6.990  0.00  0.00    +0.210 HD
ENDBRANCH  44  55
ENDBRANCH  39  40
ENDBRANCH   3  39
TORSDOF 16
ENDMDL
MODEL 6
REMARK VINA RESULT:      -4.8      3.123      7.281
REMARK  Name = *****
REMARK                            x       y       z     vdW  Elec       q    Type
REMARK                         _______ _______ _______ _____ _____    ______ ____
ROOT
ATOM      1  C   LIG    1       24.866 -31.001   6.436  0.00  0.00    +0.134 C 
ATOM      2  C   LIG    1       25.206 -32.292   7.203  0.00  0.00    +0.079 C 
ATOM      3  C   LIG    1       24.666 -32.252   8.634  0.00  0.00    +0.158 C 
ATOM      4  C   LIG    1       25.399 -31.125   9.324  0.00  0.00    +0.030 A 
ATOM      5  C   LIG    1       25.613 -29.909   8.640  0.00  0.00    +0.007 A 
ATOM      6  C   LIG    1       26.041 -28.802   9.370  0.00  0.00    +0.132 A 
ATOM      7  C   LIG    1       26.356 -28.918  10.730  0.00  0.00    +0.078 A 
ATOM      8  C   LIG    1       26.752 -27.729  11.485  0.00  0.00    +0.198 C 
ATOM      9  O   LIG    1       26.691 -26.627  10.944  0.00  0.00    -0.286 OA
ATOM     10  C   LIG    1       27.200 -27.857  12.875  0.00  0.00    +0.037 A 
ATOM     11  C   LIG    1       27.214 -29.097  13.520  0.00  0.00    +0.075 A 
ATOM     12  C   LIG    1       27.649 -29.162  14.857  0.00  0.00    +0.132 A 
ATOM     13  C   LIG    1       28.074 -27.990  15.500  0.00  0.00    +0.046 A 
ATOM     14  C   LIG    1       28.051 -26.760  14.842  0.00  0.00    +0.004 A 
ATOM     15  C   LIG    1       26.737 -30.289  12.776  0.00  0.00    +0.202 C 
ATOM     16  O   LIG    1       26.671 -31.410  13.281  0.00  0.00    -0.286 OA
ATOM     17  C   LIG    1       27.614 -26.692  13.530  0.00  0.00    +0.012 A 
ATOM     18  C   LIG    1       26.306 -30.156  11.365  0.00  0.00    +0.078 A 
ATOM     19  C   LIG    1       25.820 -31.260  10.655  0.00  0.00    +0.135 A 
ATOM     20  C   LIG    1       25.537 -29.806   7.122  0.00  0.00    +0.082 C 
ENDROOT
BRANCH   1  21
ATOM     21  O   LIG    1       23.457 -30.738   6.371  0.00  0.00    -0.381 OA
ATOM     22  H   LIG    1       23.285 -30.381   5.476  0.00  0.00    +0.211 HD
ENDBRANCH   1  21
BRANCH  19  23
ATOM     23  O   LIG    1       25.744 -32.509  11.212  0.00  0.00    -0.506 OA
ATOM     24  H   LIG    1       25.632 -32.425  12.188  0.00  0.00    +0.292 HD
ENDBRANCH  19  23
BRANCH   6  25
ATOM     25  O   LIG    1       26.135 -27.616   8.688  0.00  0.00    -0.506 OA
ATOM     26  H   LIG    1       25.282 -27.134   8.781  0.00  0.00    +0.292 HD
ENDBRANCH   6  25
BRANCH  12  27
ATOM     27  O   LIG    1       27.713 -30.385  15.469  0.00  0.00    -0.494 OA
ATOM     28  C   LIG    1       28.978 -31.037  15.446  0.00  0.00    +0.277 C 
ENDBRANCH  12  27
BRANCH   1  29
ATOM     29  C   LIG    1       25.309 -31.173   4.977  0.00  0.00    +0.202 C 
ATOM     30  O   LIG    1       25.391 -32.287   4.450  0.00  0.00    -0.291 OA
BRANCH  29  31
ATOM     31  C   LIG    1       25.583 -29.901   4.188  0.00  0.00    +0.309 C 
BRANCH  31  32
ATOM     32  O   LIG    1       24.677 -28.846   4.488  0.00  0.00    -0.457 OA
BRANCH  32  33
ATOM     33  C   LIG    1       25.301 -27.671   4.826  0.00  0.00    +0.307 C 
ATOM     34  O   LIG    1       26.486 -27.476   4.813  0.00  0.00    -0.251 OA
BRANCH  33  35
ATOM     35  C   LIG    1       24.304 -26.739   5.470  0.00  0.00    +0.120 C 
BRANCH  35  36
ATOM     36  C   LIG    1       24.926 -25.715   6.417  0.00  0.00    +0.011 C 
BRANCH  36  38
ATOM     37  C   LIG    1       24.961 -23.176   6.373  0.00  0.00    +0.004 C 
ATOM     38  C   LIG    1       24.112 -24.431   6.524  0.00  0.00    -0.003 C 
ENDBRANCH  36  38
ENDBRANCH  35  36
ENDBRANCH  33  35
ENDBRANCH  32  33
ENDBRANCH  31  32
ENDBRANCH  29  31
ENDBRANCH   1  29
BRANCH   3  39
ATOM     39  O   LIG    1       23.246 -31.965   8.598  0.00  0.00    -0.343 OA
BRANCH  39  40
ATOM     40  C   LIG    1       22.560 -32.014   9.865  0.00  0.00    +0.253 C 
ATOM     41  O   LIG    1       21.688 -33.130   9.896  0.00  0.00    -0.346 OA
ATOM     42  C   LIG    1       20.693 -33.184  10.918  0.00  0.00    +0.148 C 
ATOM     43  C   LIG    1       21.207 -33.781  12.230  0.00  0.00    +0.040 C 
ATOM     44  C   LIG    1       19.924 -31.863  11.059  0.00  0.00    +0.163 C 
ATOM     45  C   LIG    1       20.875 -30.652  11.223  0.00  0.00    +0.109 C 
ATOM     46  C   LIG    1       21.810 -30.677  10.009  0.00  0.00    +0.086 C 
BRANCH  45  47
ATOM     47  N   LIG    1       21.605 -30.587  12.497  0.00  0.00    -0.302 N 
ATOM     48  H   LIG    1       22.248 -31.334  12.745  0.00  0.00    +0.149 HD
ATOM     49  C   LIG    1       21.736 -29.397  13.224  0.00  0.00    +0.318 C 
ATOM     50  O   LIG    1       21.227 -28.342  12.840  0.00  0.00    -0.266 OA
BRANCH  49  51
ATOM     51  C   LIG    1       22.557 -29.518  14.534  0.00  0.00    +0.469 C 
ATOM     52  F   LIG    1       22.181 -30.584  15.292  0.00  0.00    -0.162 F 
ATOM     53  F   LIG    1       22.469 -28.416  15.326  0.00  0.00    -0.162 F 
ATOM     54  F   LIG    1       23.887 -29.698  14.271  0.00  0.00    -0.162 F 
ENDBRANCH  49  51
ENDBRANCH  45  47
BRANCH  44  55
ATOM     55  O   LIG    1       18.906 -31.968  12.041  0.00  0.00    -0.387 OA
ATOM     56  H   LIG    1       19.231 -32.548  12.756  0.00  0.00    +0.210 HD
ENDBRANCH  44  55
ENDBRANCH  39  40
ENDBRANCH   3  39
TORSDOF 16
ENDMDL
MODEL 7
REMARK VINA RESULT:      -4.7      3.670      6.982
REMARK  Name = *****
REMARK                            x       y       z     vdW  Elec       q    Type
REMARK                         _______ _______ _______ _____ _____    ______ ____
ROOT
ATOM      1  C   LIG    1       25.722 -28.550  13.138  0.00  0.00    +0.134 C 
ATOM      2  C   LIG    1       25.290 -30.014  12.937  0.00  0.00    +0.079 C 
ATOM      3  C   LIG    1       24.009 -30.111  12.105  0.00  0.00    +0.158 C 
ATOM      4  C   LIG    1       22.930 -29.442  12.925  0.00  0.00    +0.030 A 
ATOM      5  C   LIG    1       23.213 -28.239  13.605  0.00  0.00    +0.007 A 
ATOM      6  C   LIG    1       22.151 -27.502  14.124  0.00  0.00    +0.132 A 
ATOM      7  C   LIG    1       20.841 -27.995  14.068  0.00  0.00    +0.078 A 
ATOM      8  C   LIG    1       19.738 -27.178  14.573  0.00  0.00    +0.198 C 
ATOM      9  O   LIG    1       19.962 -26.023  14.931  0.00  0.00    -0.286 OA
ATOM     10  C   LIG    1       18.382 -27.730  14.631  0.00  0.00    +0.037 A 
ATOM     11  C   LIG    1       18.103 -29.019  14.167  0.00  0.00    +0.075 A 
ATOM     12  C   LIG    1       16.782 -29.498  14.244  0.00  0.00    +0.132 A 
ATOM     13  C   LIG    1       15.785 -28.680  14.797  0.00  0.00    +0.046 A 
ATOM     14  C   LIG    1       16.079 -27.396  15.252  0.00  0.00    +0.004 A 
ATOM     15  C   LIG    1       19.210 -29.817  13.584  0.00  0.00    +0.202 C 
ATOM     16  O   LIG    1       19.046 -30.941  13.110  0.00  0.00    -0.286 OA
ATOM     17  C   LIG    1       17.376 -26.919  15.169  0.00  0.00    +0.012 A 
ATOM     18  C   LIG    1       20.583 -29.260  13.547  0.00  0.00    +0.078 A 
ATOM     19  C   LIG    1       21.635 -29.980  12.971  0.00  0.00    +0.135 A 
ATOM     20  C   LIG    1       24.638 -27.798  13.917  0.00  0.00    +0.082 C 
ENDROOT
BRANCH   1  21
ATOM     21  O   LIG    1       25.941 -27.853  11.903  0.00  0.00    -0.381 OA
ATOM     22  H   LIG    1       25.390 -27.044  11.944  0.00  0.00    +0.211 HD
ENDBRANCH   1  21
BRANCH  19  23
ATOM     23  O   LIG    1       21.458 -31.232  12.441  0.00  0.00    -0.506 OA
ATOM     24  H   LIG    1       22.146 -31.839  12.804  0.00  0.00    +0.292 HD
ENDBRANCH  19  23
BRANCH   6  25
ATOM     25  O   LIG    1       22.461 -26.288  14.682  0.00  0.00    -0.506 OA
ATOM     26  H   LIG    1       21.747 -26.043  15.314  0.00  0.00    +0.292 HD
ENDBRANCH   6  25
BRANCH  12  27
ATOM     27  O   LIG    1       16.523 -30.780  13.839  0.00  0.00    -0.494 OA
ATOM     28  C   LIG    1       16.141 -31.698  14.858  0.00  0.00    +0.277 C 
ENDBRANCH  12  27
BRANCH   1  29
ATOM     29  C   LIG    1       27.081 -28.539  13.850  0.00  0.00    +0.202 C 
ATOM     30  O   LIG    1       27.283 -27.847  14.854  0.00  0.00    -0.291 OA
BRANCH  29  31
ATOM     31  C   LIG    1       28.153 -29.468  13.299  0.00  0.00    +0.309 C 
BRANCH  31  32
ATOM     32  O   LIG    1       27.945 -30.833  13.642  0.00  0.00    -0.457 OA
BRANCH  32  33
ATOM     33  C   LIG    1       28.290 -31.128  14.937  0.00  0.00    +0.307 C 
ATOM     34  O   LIG    1       29.313 -30.810  15.481  0.00  0.00    -0.251 OA
BRANCH  33  35
ATOM     35  C   LIG    1       27.319 -32.136  15.500  0.00  0.00    +0.120 C 
BRANCH  35  36
ATOM     36  C   LIG    1       26.746 -33.099  14.462  0.00  0.00    +0.011 C 
BRANCH  36  38
ATOM     37  C   LIG    1       24.606 -32.208  15.500  0.00  0.00    +0.004 C 
ATOM     38  C   LIG    1       25.222 -33.141  14.466  0.00  0.00    -0.003 C 
ENDBRANCH  36  38
ENDBRANCH  35  36
ENDBRANCH  33  35
ENDBRANCH  32  33
ENDBRANCH  31  32
ENDBRANCH  29  31
ENDBRANCH   1  29
BRANCH   3  39
ATOM     39  O   LIG    1       24.196 -29.394  10.860  0.00  0.00    -0.343 OA
BRANCH  39  40
ATOM     40  C   LIG    1       24.371 -30.209   9.684  0.00  0.00    +0.253 C 
ATOM     41  O   LIG    1       23.903 -31.522   9.935  0.00  0.00    -0.346 OA
ATOM     42  C   LIG    1       24.269 -32.559   9.025  0.00  0.00    +0.148 C 
ATOM     43  C   LIG    1       23.339 -32.654   7.814  0.00  0.00    +0.040 C 
ATOM     44  C   LIG    1       25.769 -32.548   8.696  0.00  0.00    +0.163 C 
ATOM     45  C   LIG    1       26.251 -31.152   8.229  0.00  0.00    +0.109 C 
ATOM     46  C   LIG    1       25.874 -30.175   9.349  0.00  0.00    +0.086 C 
BRANCH  45  47
ATOM     47  N   LIG    1       25.762 -30.719   6.913  0.00  0.00    -0.302 N 
ATOM     48  H   LIG    1       25.444 -31.414   6.243  0.00  0.00    +0.149 HD
ATOM     49  C   LIG    1       25.380 -29.396   6.656  0.00  0.00    +0.318 C 
ATOM     50  O   LIG    1       25.453 -28.519   7.519  0.00  0.00    -0.266 OA
BRANCH  49  51
ATOM     51  C   LIG    1       24.872 -29.131   5.215  0.00  0.00    +0.469 C 
ATOM     52  F   LIG    1       25.130 -30.166   4.369  0.00  0.00    -0.162 F 
ATOM     53  F   LIG    1       25.410 -28.016   4.653  0.00  0.00    -0.162 F 
ATOM     54  F   LIG    1       23.516 -28.959   5.191  0.00  0.00    -0.162 F 
ENDBRANCH  49  51
ENDBRANCH  45  47
BRANCH  44  55
ATOM     55  O   LIG    1       26.110 -33.623   7.835  0.00  0.00    -0.387 OA
ATOM     56  H   LIG    1       26.941 -33.394   7.377  0.00  0.00    +0.210 HD
ENDBRANCH  44  55
ENDBRANCH  39  40
ENDBRANCH   3  39
TORSDOF 16
ENDMDL
MODEL 8
REMARK VINA RESULT:      -4.6      3.600      7.354
REMARK  Name = *****
REMARK                            x       y       z     vdW  Elec       q    Type
REMARK                         _______ _______ _______ _____ _____    ______ ____
ROOT
ATOM      1  C   LIG    1       26.477 -28.664  12.153  0.00  0.00    +0.134 C 
ATOM      2  C   LIG    1       26.710 -29.868  11.222  0.00  0.00    +0.079 C 
ATOM      3  C   LIG    1       25.646 -29.941  10.125  0.00  0.00    +0.158 C 
ATOM      4  C   LIG    1       24.334 -30.182  10.834  0.00  0.00    +0.030 A 
ATOM      5  C   LIG    1       24.042 -29.479  12.022  0.00  0.00    +0.007 A 
ATOM      6  C   LIG    1       22.737 -29.506  12.509  0.00  0.00    +0.132 A 
ATOM      7  C   LIG    1       21.760 -30.301  11.895  0.00  0.00    +0.078 A 
ATOM      8  C   LIG    1       20.385 -30.271  12.393  0.00  0.00    +0.198 C 
ATOM      9  O   LIG    1       20.081 -29.462  13.269  0.00  0.00    -0.286 OA
ATOM     10  C   LIG    1       19.383 -31.185  11.839  0.00  0.00    +0.037 A 
ATOM     11  C   LIG    1       19.700 -32.065  10.800  0.00  0.00    +0.075 A 
ATOM     12  C   LIG    1       18.698 -32.918  10.303  0.00  0.00    +0.132 A 
ATOM     13  C   LIG    1       17.416 -32.879  10.871  0.00  0.00    +0.046 A 
ATOM     14  C   LIG    1       17.115 -31.993  11.905  0.00  0.00    +0.004 A 
ATOM     15  C   LIG    1       21.075 -32.038  10.244  0.00  0.00    +0.202 C 
ATOM     16  O   LIG    1       21.428 -32.744   9.299  0.00  0.00    -0.286 OA
ATOM     17  C   LIG    1       18.097 -31.145  12.390  0.00  0.00    +0.012 A 
ATOM     18  C   LIG    1       22.089 -31.126  10.823  0.00  0.00    +0.078 A 
ATOM     19  C   LIG    1       23.382 -31.059  10.292  0.00  0.00    +0.135 A 
ATOM     20  C   LIG    1       25.129 -28.820  12.864  0.00  0.00    +0.082 C 
ENDROOT
BRANCH   1  21
ATOM     21  O   LIG    1       26.467 -27.408  11.460  0.00  0.00    -0.381 OA
ATOM     22  H   LIG    1       25.702 -26.907  11.811  0.00  0.00    +0.211 HD
ENDBRANCH   1  21
BRANCH  19  23
ATOM     23  O   LIG    1       23.780 -31.842   9.240  0.00  0.00    -0.506 OA
ATOM     24  H   LIG    1       23.589 -31.373   8.394  0.00  0.00    +0.292 HD
ENDBRANCH  19  23
BRANCH   6  25
ATOM     25  O   LIG    1       22.473 -28.725  13.603  0.00  0.00    -0.506 OA
ATOM     26  H   LIG    1       21.512 -28.781  13.804  0.00  0.00    +0.292 HD
ENDBRANCH   6  25
BRANCH  12  27
ATOM     27  O   LIG    1       19.026 -33.817   9.323  0.00  0.00    -0.494 OA
ATOM     28  C   LIG    1       18.228 -33.784   8.144  0.00  0.00    +0.277 C 
ENDBRANCH  12  27
BRANCH   1  29
ATOM     29  C   LIG    1       27.656 -28.572  13.131  0.00  0.00    +0.202 C 
ATOM     30  O   LIG    1       27.561 -27.975  14.209  0.00  0.00    -0.291 OA
BRANCH  29  31
ATOM     31  C   LIG    1       28.931 -29.304  12.740  0.00  0.00    +0.309 C 
BRANCH  31  32
ATOM     32  O   LIG    1       29.057 -30.582  13.352  0.00  0.00    -0.457 OA
BRANCH  32  33
ATOM     33  C   LIG    1       29.160 -30.523  14.719  0.00  0.00    +0.307 C 
ATOM     34  O   LIG    1       28.268 -30.721  15.500  0.00  0.00    -0.251 OA
BRANCH  33  35
ATOM     35  C   LIG    1       30.488 -29.915  15.098  0.00  0.00    +0.120 C 
BRANCH  35  36
ATOM     36  C   LIG    1       31.589 -30.123  14.061  0.00  0.00    +0.011 C 
BRANCH  36  38
ATOM     37  C   LIG    1       32.916 -28.359  12.805  0.00  0.00    +0.004 C 
ATOM     38  C   LIG    1       32.683 -29.064  14.134  0.00  0.00    -0.003 C 
ENDBRANCH  36  38
ENDBRANCH  35  36
ENDBRANCH  33  35
ENDBRANCH  32  33
ENDBRANCH  31  32
ENDBRANCH  29  31
ENDBRANCH   1  29
BRANCH   3  39
ATOM     39  O   LIG    1       25.600 -28.675   9.422  0.00  0.00    -0.343 OA
BRANCH  39  40
ATOM     40  C   LIG    1       25.606 -28.752   7.983  0.00  0.00    +0.253 C 
ATOM     41  O   LIG    1       25.932 -27.488   7.436  0.00  0.00    -0.346 OA
ATOM     42  C   LIG    1       25.686 -27.265   6.047  0.00  0.00    +0.148 C 
ATOM     43  C   LIG    1       26.827 -27.745   5.148  0.00  0.00    +0.040 C 
ATOM     44  C   LIG    1       24.283 -27.720   5.620  0.00  0.00    +0.163 C 
ATOM     45  C   LIG    1       23.991 -29.180   6.046  0.00  0.00    +0.109 C 
ATOM     46  C   LIG    1       24.203 -29.231   7.564  0.00  0.00    +0.086 C 
BRANCH  45  47
ATOM     47  N   LIG    1       24.754 -30.214   5.334  0.00  0.00    -0.302 N 
ATOM     48  H   LIG    1       25.593 -29.955   4.822  0.00  0.00    +0.149 HD
ATOM     49  C   LIG    1       24.597 -31.579   5.606  0.00  0.00    +0.318 C 
ATOM     50  O   LIG    1       23.794 -31.986   6.448  0.00  0.00    -0.266 OA
BRANCH  49  51
ATOM     51  C   LIG    1       25.502 -32.521   4.769  0.00  0.00    +0.469 C 
ATOM     52  F   LIG    1       26.166 -33.428   5.536  0.00  0.00    -0.162 F 
ATOM     53  F   LIG    1       26.438 -31.857   4.040  0.00  0.00    -0.162 F 
ATOM     54  F   LIG    1       24.766 -33.253   3.879  0.00  0.00    -0.162 F 
ENDBRANCH  49  51
ENDBRANCH  45  47
BRANCH  44  55
ATOM     55  O   LIG    1       24.049 -27.434   4.250  0.00  0.00    -0.387 OA
ATOM     56  H   LIG    1       24.145 -26.471   4.119  0.00  0.00    +0.210 HD
ENDBRANCH  44  55
ENDBRANCH  39  40
ENDBRANCH   3  39
TORSDOF 16
ENDMDL
