MODEL 1
REMARK VINA RESULT:      -8.5      0.000      0.000
REMARK  Name = *****
REMARK                            x       y       z     vdW  Elec       q    Type
REMARK                         _______ _______ _______ _____ _____    ______ ____
ROOT
ATOM      1  C   LIG    1       25.140 -21.053   6.596  0.00  0.00    +0.148 C 
ATOM      2  C   LIG    1       26.190 -20.594   7.622  0.00  0.00    +0.242 C 
ATOM      3  O   LIG    1       25.943 -20.536   8.830  0.00  0.00    -0.274 OA
ATOM      4  N   LIG    1       27.460 -20.329   7.124  0.00  0.00    -0.228 N 
ATOM      5  C   LIG    1       28.526 -20.105   8.083  0.00  0.00    +0.143 C 
ATOM      6  C   LIG    1       27.702 -19.968   5.815  0.00  0.00    +0.315 C 
ATOM      7  O   LIG    1       28.766 -19.491   5.422  0.00  0.00    -0.252 OA
ATOM      8  N   LIG    1       26.659 -20.061   4.947  0.00  0.00    -0.239 N 
ATOM      9  H   LIG    1       26.815 -19.630   4.046  0.00  0.00    +0.159 HD
ATOM     10  C   LIG    1       25.358 -20.303   5.282  0.00  0.00    +0.240 C 
ATOM     11  O   LIG    1       24.461 -19.984   4.506  0.00  0.00    -0.274 OA
ENDROOT
BRANCH   1  12
ATOM     12  C   LIG    1       25.252 -22.588   6.362  0.00  0.00    -0.024 A 
ATOM     13  C   LIG    1       25.837 -23.431   7.329  0.00  0.00    +0.005 A 
ATOM     14  C   LIG    1       25.952 -24.806   7.115  0.00  0.00    +0.000 A 
ATOM     15  C   LIG    1       25.505 -25.369   5.924  0.00  0.00    +0.000 A 
ATOM     16  C   LIG    1       24.955 -24.555   4.941  0.00  0.00    +0.000 A 
ATOM     17  C   LIG    1       24.838 -23.178   5.153  0.00  0.00    +0.005 A 
ENDBRANCH   1  12
BRANCH   1  19
ATOM     18  C   LIG    1       22.868 -22.039   7.400  0.00  0.00    +0.005 C 
ATOM     19  C   LIG    1       23.703 -20.788   7.133  0.00  0.00    +0.027 C 
ENDBRANCH   1  19
TORSDOF 2
ENDMDL
MODEL 2
REMARK VINA RESULT:      -8.4      0.102      1.139
REMARK  Name = *****
REMARK                            x       y       z     vdW  Elec       q    Type
REMARK                         _______ _______ _______ _____ _____    ______ ____
ROOT
ATOM      1  C   LIG    1       25.223 -21.038   6.621  0.00  0.00    +0.148 C 
ATOM      2  C   LIG    1       26.316 -20.580   7.602  0.00  0.00    +0.242 C 
ATOM      3  O   LIG    1       26.123 -20.533   8.820  0.00  0.00    -0.274 OA
ATOM      4  N   LIG    1       27.560 -20.302   7.049  0.00  0.00    -0.228 N 
ATOM      5  C   LIG    1       28.667 -20.079   7.961  0.00  0.00    +0.143 C 
ATOM      6  C   LIG    1       27.740 -19.928   5.734  0.00  0.00    +0.315 C 
ATOM      7  O   LIG    1       28.782 -19.441   5.297  0.00  0.00    -0.252 OA
ATOM      8  N   LIG    1       26.659 -20.022   4.913  0.00  0.00    -0.239 N 
ATOM      9  H   LIG    1       26.771 -19.582   4.009  0.00  0.00    +0.159 HD
ATOM     10  C   LIG    1       25.377 -20.276   5.305  0.00  0.00    +0.240 C 
ATOM     11  O   LIG    1       24.443 -19.956   4.572  0.00  0.00    -0.274 OA
ENDROOT
BRANCH   1  12
ATOM     12  C   LIG    1       25.335 -22.570   6.369  0.00  0.00    -0.024 A 
ATOM     13  C   LIG    1       24.873 -23.146   5.169  0.00  0.00    +0.005 A 
ATOM     14  C   LIG    1       24.958 -24.522   4.947  0.00  0.00    +0.000 A 
ATOM     15  C   LIG    1       25.488 -25.358   5.925  0.00  0.00    +0.000 A 
ATOM     16  C   LIG    1       25.919 -24.818   7.131  0.00  0.00    +0.000 A 
ATOM     17  C   LIG    1       25.836 -23.441   7.356  0.00  0.00    +0.005 A 
ENDBRANCH   1  12
BRANCH   1  19
ATOM     18  C   LIG    1       22.920 -22.024   7.330  0.00  0.00    +0.005 C 
ATOM     19  C   LIG    1       23.810 -20.787   7.225  0.00  0.00    +0.027 C 
ENDBRANCH   1  19
TORSDOF 2
ENDMDL
MODEL 3
REMARK VINA RESULT:      -7.9      1.841      3.302
REMARK  Name = *****
REMARK                            x       y       z     vdW  Elec       q    Type
REMARK                         _______ _______ _______ _____ _____    ______ ____
ROOT
ATOM      1  C   LIG    1       24.964 -21.901   7.143  0.00  0.00    +0.148 C 
ATOM      2  C   LIG    1       25.655 -21.053   6.062  0.00  0.00    +0.242 C 
ATOM      3  O   LIG    1       26.863 -20.806   6.098  0.00  0.00    -0.274 OA
ATOM      4  N   LIG    1       24.859 -20.651   4.996  0.00  0.00    -0.228 N 
ATOM      5  C   LIG    1       25.519 -20.038   3.857  0.00  0.00    +0.143 C 
ATOM      6  C   LIG    1       23.490 -20.516   5.079  0.00  0.00    +0.315 C 
ATOM      7  O   LIG    1       22.807 -19.929   4.241  0.00  0.00    -0.252 OA
ATOM      8  N   LIG    1       22.892 -20.981   6.210  0.00  0.00    -0.239 N 
ATOM      9  H   LIG    1       21.922 -20.715   6.319  0.00  0.00    +0.159 HD
ATOM     10  C   LIG    1       23.534 -21.399   7.339  0.00  0.00    +0.240 C 
ATOM     11  O   LIG    1       22.929 -21.421   8.409  0.00  0.00    -0.274 OA
ENDROOT
BRANCH   1  12
ATOM     12  C   LIG    1       24.953 -23.401   6.724  0.00  0.00    -0.024 A 
ATOM     13  C   LIG    1       23.742 -24.083   6.494  0.00  0.00    +0.005 A 
ATOM     14  C   LIG    1       23.729 -25.433   6.133  0.00  0.00    +0.000 A 
ATOM     15  C   LIG    1       24.922 -26.136   6.012  0.00  0.00    +0.000 A 
ATOM     16  C   LIG    1       26.129 -25.494   6.266  0.00  0.00    +0.000 A 
ATOM     17  C   LIG    1       26.145 -24.144   6.627  0.00  0.00    +0.005 A 
ENDBRANCH   1  12
BRANCH   1  19
ATOM     18  C   LIG    1       26.058 -20.403   8.970  0.00  0.00    +0.005 C 
ATOM     19  C   LIG    1       25.750 -21.819   8.484  0.00  0.00    +0.027 C 
ENDBRANCH   1  19
TORSDOF 2
ENDMDL
MODEL 4
REMARK VINA RESULT:      -7.3      2.292      4.568
REMARK  Name = *****
REMARK                            x       y       z     vdW  Elec       q    Type
REMARK                         _______ _______ _______ _____ _____    ______ ____
ROOT
ATOM      1  C   LIG    1       24.498 -21.052   5.945  0.00  0.00    +0.148 C 
ATOM      2  C   LIG    1       24.507 -22.161   4.879  0.00  0.00    +0.242 C 
ATOM      3  O   LIG    1       24.448 -21.908   3.673  0.00  0.00    -0.274 OA
ATOM      4  N   LIG    1       24.671 -23.459   5.345  0.00  0.00    -0.228 N 
ATOM      5  C   LIG    1       24.901 -24.503   4.363  0.00  0.00    +0.143 C 
ATOM      6  C   LIG    1       24.330 -23.857   6.621  0.00  0.00    +0.315 C 
ATOM      7  O   LIG    1       24.230 -25.033   6.968  0.00  0.00    -0.252 OA
ATOM      8  N   LIG    1       23.992 -22.877   7.503  0.00  0.00    -0.239 N 
ATOM      9  H   LIG    1       23.583 -23.205   8.367  0.00  0.00    +0.159 HD
ATOM     10  C   LIG    1       23.785 -21.563   7.197  0.00  0.00    +0.240 C 
ATOM     11  O   LIG    1       23.119 -20.861   7.955  0.00  0.00    -0.274 OA
ENDROOT
BRANCH   1  12
ATOM     12  C   LIG    1       25.955 -20.629   6.293  0.00  0.00    -0.024 A 
ATOM     13  C   LIG    1       26.436 -20.697   7.616  0.00  0.00    +0.005 A 
ATOM     14  C   LIG    1       27.739 -20.304   7.934  0.00  0.00    +0.000 A 
ATOM     15  C   LIG    1       28.584 -19.816   6.943  0.00  0.00    +0.000 A 
ATOM     16  C   LIG    1       28.122 -19.708   5.636  0.00  0.00    +0.000 A 
ATOM     17  C   LIG    1       26.820 -20.101   5.315  0.00  0.00    +0.005 A 
ENDBRANCH   1  12
BRANCH   1  19
ATOM     18  C   LIG    1       22.332 -19.987   4.970  0.00  0.00    +0.005 C 
ATOM     19  C   LIG    1       23.783 -19.780   5.401  0.00  0.00    +0.027 C 
ENDBRANCH   1  19
TORSDOF 2
ENDMDL
MODEL 5
REMARK VINA RESULT:      -7.2      2.668      4.641
REMARK  Name = *****
REMARK                            x       y       z     vdW  Elec       q    Type
REMARK                         _______ _______ _______ _____ _____    ______ ____
ROOT
ATOM      1  C   LIG    1       24.442 -22.476   6.971  0.00  0.00    +0.148 C 
ATOM      2  C   LIG    1       23.776 -23.794   6.542  0.00  0.00    +0.242 C 
ATOM      3  O   LIG    1       22.551 -23.941   6.553  0.00  0.00    -0.274 OA
ATOM      4  N   LIG    1       24.625 -24.782   6.059  0.00  0.00    -0.228 N 
ATOM      5  C   LIG    1       24.019 -25.950   5.446  0.00  0.00    +0.143 C 
ATOM      6  C   LIG    1       25.960 -24.867   6.395  0.00  0.00    +0.315 C 
ATOM      7  O   LIG    1       26.657 -25.859   6.187  0.00  0.00    -0.252 OA
ATOM      8  N   LIG    1       26.491 -23.819   7.082  0.00  0.00    -0.239 N 
ATOM      9  H   LIG    1       27.413 -23.983   7.463  0.00  0.00    +0.159 HD
ATOM     10  C   LIG    1       25.789 -22.782   7.626  0.00  0.00    +0.240 C 
ATOM     11  O   LIG    1       26.288 -22.122   8.535  0.00  0.00    -0.274 OA
ENDROOT
BRANCH   1  12
ATOM     12  C   LIG    1       24.645 -21.549   5.737  0.00  0.00    -0.024 A 
ATOM     13  C   LIG    1       23.781 -21.617   4.625  0.00  0.00    +0.005 A 
ATOM     14  C   LIG    1       23.970 -20.798   3.510  0.00  0.00    +0.000 A 
ATOM     15  C   LIG    1       25.037 -19.905   3.470  0.00  0.00    +0.000 A 
ATOM     16  C   LIG    1       25.923 -19.843   4.539  0.00  0.00    +0.000 A 
ATOM     17  C   LIG    1       25.736 -20.662   5.657  0.00  0.00    +0.005 A 
ENDBRANCH   1  12
BRANCH   1  19
ATOM     18  C   LIG    1       23.244 -20.248   7.587  0.00  0.00    +0.005 C 
ATOM     19  C   LIG    1       23.527 -21.701   7.964  0.00  0.00    +0.027 C 
ENDBRANCH   1  19
TORSDOF 2
ENDMDL
MODEL 6
REMARK VINA RESULT:      -7.0      2.065      4.189
REMARK  Name = *****
REMARK                            x       y       z     vdW  Elec       q    Type
REMARK                         _______ _______ _______ _____ _____    ______ ____
ROOT
ATOM      1  C   LIG    1       24.868 -21.688   6.007  0.00  0.00    +0.148 C 
ATOM      2  C   LIG    1       26.319 -21.314   6.355  0.00  0.00    +0.242 C 
ATOM      3  O   LIG    1       27.257 -21.553   5.590  0.00  0.00    -0.274 OA
ATOM      4  N   LIG    1       26.505 -20.617   7.542  0.00  0.00    -0.228 N 
ATOM      5  C   LIG    1       27.821 -20.061   7.797  0.00  0.00    +0.143 C 
ATOM      6  C   LIG    1       25.631 -20.682   8.606  0.00  0.00    +0.315 C 
ATOM      7  O   LIG    1       25.899 -20.283   9.739  0.00  0.00    -0.252 OA
ATOM      8  N   LIG    1       24.447 -21.318   8.394  0.00  0.00    -0.239 N 
ATOM      9  H   LIG    1       23.906 -21.503   9.228  0.00  0.00    +0.159 HD
ATOM     10  C   LIG    1       24.120 -22.051   7.289  0.00  0.00    +0.240 C 
ATOM     11  O   LIG    1       23.220 -22.886   7.359  0.00  0.00    -0.274 OA
ENDROOT
BRANCH   1  12
ATOM     12  C   LIG    1       24.163 -20.498   5.293  0.00  0.00    -0.024 A 
ATOM     13  C   LIG    1       22.871 -20.082   5.675  0.00  0.00    +0.005 A 
ATOM     14  C   LIG    1       22.230 -19.024   5.026  0.00  0.00    +0.000 A 
ATOM     15  C   LIG    1       22.855 -18.370   3.969  0.00  0.00    +0.000 A 
ATOM     16  C   LIG    1       24.115 -18.782   3.552  0.00  0.00    +0.000 A 
ATOM     17  C   LIG    1       24.759 -19.841   4.199  0.00  0.00    +0.005 A 
ENDBRANCH   1  12
BRANCH   1  19
ATOM     18  C   LIG    1       25.236 -24.235   5.608  0.00  0.00    +0.005 C 
ATOM     19  C   LIG    1       24.839 -22.885   5.012  0.00  0.00    +0.027 C 
ENDBRANCH   1  19
TORSDOF 2
ENDMDL
MODEL 7
REMARK VINA RESULT:      -6.8      2.598      4.624
REMARK  Name = *****
REMARK                            x       y       z     vdW  Elec       q    Type
REMARK                         _______ _______ _______ _____ _____    ______ ____
ROOT
ATOM      1  C   LIG    1       24.845 -21.232   6.893  0.00  0.00    +0.148 C 
ATOM      2  C   LIG    1       23.810 -22.313   7.252  0.00  0.00    +0.242 C 
ATOM      3  O   LIG    1       22.919 -22.114   8.082  0.00  0.00    -0.274 OA
ATOM      4  N   LIG    1       23.883 -23.497   6.529  0.00  0.00    -0.228 N 
ATOM      5  C   LIG    1       22.799 -24.449   6.685  0.00  0.00    +0.143 C 
ATOM      6  C   LIG    1       25.038 -23.949   5.927  0.00  0.00    +0.315 C 
ATOM      7  O   LIG    1       25.187 -25.095   5.506  0.00  0.00    -0.252 OA
ATOM      8  N   LIG    1       26.095 -23.091   5.897  0.00  0.00    -0.239 N 
ATOM      9  H   LIG    1       26.971 -23.506   5.611  0.00  0.00    +0.159 HD
ATOM     10  C   LIG    1       26.178 -21.902   6.561  0.00  0.00    +0.240 C 
ATOM     11  O   LIG    1       27.281 -21.408   6.787  0.00  0.00    -0.274 OA
ENDROOT
BRANCH   1  12
ATOM     12  C   LIG    1       24.348 -20.395   5.678  0.00  0.00    -0.024 A 
ATOM     13  C   LIG    1       25.227 -20.027   4.640  0.00  0.00    +0.005 A 
ATOM     14  C   LIG    1       24.788 -19.263   3.556  0.00  0.00    +0.000 A 
ATOM     15  C   LIG    1       23.466 -18.833   3.493  0.00  0.00    +0.000 A 
ATOM     16  C   LIG    1       22.588 -19.155   4.521  0.00  0.00    +0.000 A 
ATOM     17  C   LIG    1       23.024 -19.920   5.607  0.00  0.00    +0.005 A 
ENDBRANCH   1  12
BRANCH   1  19
ATOM     18  C   LIG    1       25.955 -20.714   9.191  0.00  0.00    +0.005 C 
ATOM     19  C   LIG    1       25.025 -20.236   8.077  0.00  0.00    +0.027 C 
ENDBRANCH   1  19
TORSDOF 2
ENDMDL
MODEL 8
REMARK VINA RESULT:      -6.7      2.598      4.164
REMARK  Name = *****
REMARK                            x       y       z     vdW  Elec       q    Type
REMARK                         _______ _______ _______ _____ _____    ______ ____
ROOT
ATOM      1  C   LIG    1       24.384 -21.562   6.210  0.00  0.00    +0.148 C 
ATOM      2  C   LIG    1       23.422 -20.422   5.835  0.00  0.00    +0.242 C 
ATOM      3  O   LIG    1       22.598 -19.971   6.636  0.00  0.00    -0.274 OA
ATOM      4  N   LIG    1       23.588 -19.869   4.571  0.00  0.00    -0.228 N 
ATOM      5  C   LIG    1       22.850 -18.657   4.264  0.00  0.00    +0.143 C 
ATOM      6  C   LIG    1       24.152 -20.549   3.513  0.00  0.00    +0.315 C 
ATOM      7  O   LIG    1       24.080 -20.177   2.343  0.00  0.00    -0.252 OA
ATOM      8  N   LIG    1       24.733 -21.748   3.790  0.00  0.00    -0.239 N 
ATOM      9  H   LIG    1       24.980 -22.299   2.979  0.00  0.00    +0.159 HD
ATOM     10  C   LIG    1       24.651 -22.421   4.974  0.00  0.00    +0.240 C 
ATOM     11  O   LIG    1       24.862 -23.632   5.000  0.00  0.00    -0.274 OA
ENDROOT
BRANCH   1  12
ATOM     12  C   LIG    1       25.720 -20.980   6.757  0.00  0.00    -0.024 A 
ATOM     13  C   LIG    1       26.778 -20.645   5.888  0.00  0.00    +0.005 A 
ATOM     14  C   LIG    1       27.983 -20.137   6.378  0.00  0.00    +0.000 A 
ATOM     15  C   LIG    1       28.167 -19.969   7.747  0.00  0.00    +0.000 A 
ATOM     16  C   LIG    1       27.152 -20.324   8.627  0.00  0.00    +0.000 A 
ATOM     17  C   LIG    1       25.944 -20.832   8.140  0.00  0.00    +0.005 A 
ENDBRANCH   1  12
BRANCH   1  19
ATOM     18  C   LIG    1       22.627 -23.346   6.925  0.00  0.00    +0.005 C 
ATOM     19  C   LIG    1       23.777 -22.433   7.349  0.00  0.00    +0.027 C 
ENDBRANCH   1  19
TORSDOF 2
ENDMDL
MODEL 9
REMARK VINA RESULT:      -5.9      7.549      9.751
REMARK  Name = *****
REMARK                            x       y       z     vdW  Elec       q    Type
REMARK                         _______ _______ _______ _____ _____    ______ ____
ROOT
ATOM      1  C   LIG    1       24.773 -30.394   7.999  0.00  0.00    +0.148 C 
ATOM      2  C   LIG    1       24.420 -31.486   6.975  0.00  0.00    +0.242 C 
ATOM      3  O   LIG    1       23.252 -31.755   6.683  0.00  0.00    -0.274 OA
ATOM      4  N   LIG    1       25.492 -32.096   6.335  0.00  0.00    -0.228 N 
ATOM      5  C   LIG    1       25.197 -32.971   5.214  0.00  0.00    +0.143 C 
ATOM      6  C   LIG    1       26.758 -32.167   6.874  0.00  0.00    +0.315 C 
ATOM      7  O   LIG    1       27.643 -32.908   6.449  0.00  0.00    -0.252 OA
ATOM      8  N   LIG    1       26.991 -31.440   8.001  0.00  0.00    -0.239 N 
ATOM      9  H   LIG    1       27.864 -31.645   8.468  0.00  0.00    +0.159 HD
ATOM     10  C   LIG    1       26.045 -30.795   8.745  0.00  0.00    +0.240 C 
ATOM     11  O   LIG    1       26.284 -30.513   9.917  0.00  0.00    -0.274 OA
ENDROOT
BRANCH   1  12
ATOM     12  C   LIG    1       24.981 -29.029   7.279  0.00  0.00    -0.024 A 
ATOM     13  C   LIG    1       25.873 -28.065   7.791  0.00  0.00    +0.005 A 
ATOM     14  C   LIG    1       26.050 -26.834   7.155  0.00  0.00    +0.000 A 
ATOM     15  C   LIG    1       25.328 -26.530   6.006  0.00  0.00    +0.000 A 
ATOM     16  C   LIG    1       24.417 -27.450   5.500  0.00  0.00    +0.000 A 
ATOM     17  C   LIG    1       24.238 -28.683   6.134  0.00  0.00    +0.005 A 
ENDBRANCH   1  12
BRANCH   1  19
ATOM     18  C   LIG    1       23.228 -31.430   9.821  0.00  0.00    +0.005 C 
ATOM     19  C   LIG    1       23.602 -30.193   9.006  0.00  0.00    +0.027 C 
ENDBRANCH   1  19
TORSDOF 2
ENDMDL
