MODEL 1
REMARK VINA RESULT:      -1.2      0.000      0.000
REMARK  Name = *****
REMARK                            x       y       z     vdW  Elec       q    Type
REMARK                         _______ _______ _______ _____ _____    ______ ____
ROOT
ATOM      1  C   LIG    1       25.831 -16.863   3.731  0.00  0.00    +0.046 A 
ATOM      2  C   LIG    1       26.096 -15.460   3.999  0.00  0.00    +0.025 A 
ATOM      3  C   LIG    1       24.952 -14.743   4.289  0.00  0.00    +0.074 A 
ATOM      4  C   LIG    1       25.135 -13.439   4.802  0.00  0.00    +0.032 A 
ATOM      5  C   LIG    1       26.405 -12.851   4.868  0.00  0.00    +0.048 A 
ATOM      6  C   LIG    1       27.577 -13.422   4.364  0.00  0.00    +0.121 A 
ATOM      7  N   LIG    1       23.696 -15.049   4.277  0.00  0.00    -0.246 NA
ATOM      8  C   LIG    1       23.430 -16.364   4.022  0.00  0.00    +0.075 A 
ATOM      9  C   LIG    1       22.081 -16.589   4.047  0.00  0.00    +0.048 A 
ATOM     10  C   LIG    1       21.654 -17.876   3.753  0.00  0.00    +0.043 A 
ATOM     11 CL   LIG    1       19.970 -18.178   3.566  0.00  0.00    -0.084 Cl
ATOM     12  C   LIG    1       22.588 -18.878   3.553  0.00  0.00    +0.021 A 
ATOM     13  C   LIG    1       23.969 -18.616   3.595  0.00  0.00    +0.013 A 
ATOM     14  C   LIG    1       27.373 -14.769   3.918  0.00  0.00    +0.057 A 
ATOM     15  C   LIG    1       24.431 -17.270   3.791  0.00  0.00    +0.022 A 
ENDROOT
BRANCH   1  16
ATOM     16  N   LIG    1       26.825 -17.839   3.764  0.00  0.00    -0.340 N 
ATOM     17  H   LIG    1       26.376 -18.653   3.331  0.00  0.00    +0.146 HD
BRANCH  16  18
ATOM     18  C   LIG    1       27.769 -18.353   4.793  0.00  0.00    +0.067 C 
ATOM     19  C   LIG    1       29.198 -17.796   4.800  0.00  0.00    +0.027 C 
BRANCH  18  20
ATOM     20  C   LIG    1       27.716 -19.857   5.125  0.00  0.00    +0.023 C 
BRANCH  20  21
ATOM     21  C   LIG    1       27.449 -20.329   6.576  0.00  0.00    +0.017 C 
BRANCH  21  22
ATOM     22  C   LIG    1       25.946 -20.503   7.062  0.00  0.00    +0.084 C 
BRANCH  22  23
ATOM     23  N   LIG    1       25.237 -21.571   6.261  0.00  0.00    -0.303 NA
BRANCH  23  25
ATOM     24  C   LIG    1       23.263 -20.149   6.903  0.00  0.00    +0.020 C 
ATOM     25  C   LIG    1       23.906 -21.510   6.889  0.00  0.00    +0.081 C 
ENDBRANCH  23  25
BRANCH  23  26
ATOM     26  C   LIG    1       24.900 -21.568   4.788  0.00  0.00    +0.081 C 
ATOM     27  C   LIG    1       23.633 -21.438   4.027  0.00  0.00    +0.020 C 
ENDBRANCH  23  26
ENDBRANCH  22  23
ENDBRANCH  21  22
ENDBRANCH  20  21
ENDBRANCH  18  20
ENDBRANCH  16  18
ENDBRANCH   1  16
BRANCH   6  28
ATOM     28  O   LIG    1       28.754 -12.801   3.859  0.00  0.00    -0.495 OA
ATOM     29  C   LIG    1       29.422 -11.588   4.401  0.00  0.00    +0.277 C 
ENDBRANCH   6  28
TORSDOF 9
ENDMDL
MODEL 2
REMARK VINA RESULT:       0.1      2.136      6.254
REMARK  Name = *****
REMARK                            x       y       z     vdW  Elec       q    Type
REMARK                         _______ _______ _______ _____ _____    ______ ____
ROOT
ATOM      1  C   LIG    1       24.985 -18.683   4.189  0.00  0.00    +0.046 A 
ATOM      2  C   LIG    1       25.927 -19.461   4.975  0.00  0.00    +0.025 A 
ATOM      3  C   LIG    1       25.361 -20.592   5.528  0.00  0.00    +0.074 A 
ATOM      4  C   LIG    1       26.249 -21.532   6.096  0.00  0.00    +0.032 A 
ATOM      5  C   LIG    1       27.617 -21.259   6.226  0.00  0.00    +0.048 A 
ATOM      6  C   LIG    1       28.221 -20.038   5.915  0.00  0.00    +0.121 A 
ATOM      7  N   LIG    1       24.149 -21.040   5.563  0.00  0.00    -0.246 NA
ATOM      8  C   LIG    1       23.249 -20.317   4.833  0.00  0.00    +0.075 A 
ATOM      9  C   LIG    1       22.005 -20.879   4.921  0.00  0.00    +0.048 A 
ATOM     10  C   LIG    1       20.972 -20.221   4.268  0.00  0.00    +0.043 A 
ATOM     11 CL   LIG    1       19.354 -20.757   4.507  0.00  0.00    -0.084 Cl
ATOM     12  C   LIG    1       21.252 -19.110   3.491  0.00  0.00    +0.021 A 
ATOM     13  C   LIG    1       22.557 -18.598   3.379  0.00  0.00    +0.013 A 
ATOM     14  C   LIG    1       27.312 -19.133   5.276  0.00  0.00    +0.057 A 
ATOM     15  C   LIG    1       23.623 -19.201   4.132  0.00  0.00    +0.022 A 
ENDROOT
BRANCH   1  16
ATOM     16  N   LIG    1       25.386 -17.721   3.264  0.00  0.00    -0.340 N 
ATOM     17  H   LIG    1       25.997 -18.242   2.626  0.00  0.00    +0.146 HD
BRANCH  16  18
ATOM     18  C   LIG    1       25.916 -16.333   3.343  0.00  0.00    +0.067 C 
ATOM     19  C   LIG    1       27.435 -16.147   3.444  0.00  0.00    +0.027 C 
BRANCH  18  20
ATOM     20  C   LIG    1       25.136 -15.316   4.199  0.00  0.00    +0.023 C 
BRANCH  20  21
ATOM     21  C   LIG    1       23.946 -14.533   3.591  0.00  0.00    +0.017 C 
BRANCH  21  22
ATOM     22  C   LIG    1       24.247 -13.315   2.616  0.00  0.00    +0.084 C 
BRANCH  22  23
ATOM     23  N   LIG    1       24.919 -12.180   3.356  0.00  0.00    -0.303 NA
BRANCH  23  25
ATOM     24  C   LIG    1       23.646 -11.447   5.399  0.00  0.00    +0.020 C 
ATOM     25  C   LIG    1       23.730 -11.498   3.897  0.00  0.00    +0.081 C 
ENDBRANCH  23  25
BRANCH  23  26
ATOM     26  C   LIG    1       25.825 -12.256   4.562  0.00  0.00    +0.081 C 
ATOM     27  C   LIG    1       27.078 -12.994   4.857  0.00  0.00    +0.020 C 
ENDBRANCH  23  26
ENDBRANCH  22  23
ENDBRANCH  21  22
ENDBRANCH  20  21
ENDBRANCH  18  20
ENDBRANCH  16  18
ENDBRANCH   1  16
BRANCH   6  28
ATOM     28  O   LIG    1       29.382 -19.424   6.465  0.00  0.00    -0.495 OA
ATOM     29  C   LIG    1       29.475 -18.059   7.047  0.00  0.00    +0.277 C 
ENDBRANCH   6  28
TORSDOF 9
ENDMDL
MODEL 3
REMARK VINA RESULT:       1.6      3.116      5.912
REMARK  Name = *****
REMARK                            x       y       z     vdW  Elec       q    Type
REMARK                         _______ _______ _______ _____ _____    ______ ____
ROOT
ATOM      1  C   LIG    1       25.416 -16.094   3.386  0.00  0.00    +0.046 A 
ATOM      2  C   LIG    1       25.963 -17.397   3.724  0.00  0.00    +0.025 A 
ATOM      3  C   LIG    1       27.258 -17.328   4.200  0.00  0.00    +0.074 A 
ATOM      4  C   LIG    1       27.781 -18.504   4.783  0.00  0.00    +0.032 A 
ATOM      5  C   LIG    1       27.078 -19.715   4.743  0.00  0.00    +0.048 A 
ATOM      6  C   LIG    1       25.874 -19.918   4.063  0.00  0.00    +0.121 A 
ATOM      7  N   LIG    1       28.103 -16.356   4.313  0.00  0.00    -0.246 NA
ATOM      8  C   LIG    1       27.605 -15.125   3.994  0.00  0.00    +0.075 A 
ATOM      9  C   LIG    1       28.566 -14.167   4.161  0.00  0.00    +0.048 A 
ATOM     10  C   LIG    1       28.219 -12.865   3.824  0.00  0.00    +0.043 A 
ATOM     11 CL   LIG    1       29.438 -11.650   3.815  0.00  0.00    -0.084 Cl
ATOM     12  C   LIG    1       26.920 -12.581   3.442  0.00  0.00    +0.021 A 
ATOM     13  C   LIG    1       25.944 -13.589   3.340  0.00  0.00    +0.013 A 
ATOM     14  C   LIG    1       25.334 -18.695   3.545  0.00  0.00    +0.057 A 
ATOM     15  C   LIG    1       26.310 -14.958   3.580  0.00  0.00    +0.022 A 
ENDROOT
BRANCH   1  16
ATOM     16  N   LIG    1       24.050 -15.867   3.229  0.00  0.00    -0.340 N 
ATOM     17  H   LIG    1       24.005 -15.216   2.437  0.00  0.00    +0.146 HD
BRANCH  16  18
ATOM     18  C   LIG    1       22.922 -15.531   4.139  0.00  0.00    +0.067 C 
ATOM     19  C   LIG    1       23.177 -14.508   5.253  0.00  0.00    +0.027 C 
BRANCH  18  20
ATOM     20  C   LIG    1       21.997 -16.679   4.587  0.00  0.00    +0.023 C 
BRANCH  20  21
ATOM     21  C   LIG    1       22.522 -17.780   5.540  0.00  0.00    +0.017 C 
BRANCH  21  22
ATOM     22  C   LIG    1       22.622 -19.273   5.005  0.00  0.00    +0.084 C 
BRANCH  22  23
ATOM     23  N   LIG    1       22.498 -20.266   6.139  0.00  0.00    -0.303 NA
BRANCH  23  25
ATOM     24  C   LIG    1       21.035 -21.287   4.364  0.00  0.00    +0.020 C 
ATOM     25  C   LIG    1       22.136 -21.472   5.374  0.00  0.00    +0.081 C 
ENDBRANCH  23  25
BRANCH  23  26
ATOM     26  C   LIG    1       23.584 -20.779   7.056  0.00  0.00    +0.081 C 
ATOM     27  C   LIG    1       24.910 -21.402   6.825  0.00  0.00    +0.020 C 
ENDBRANCH  23  26
ENDBRANCH  22  23
ENDBRANCH  21  22
ENDBRANCH  20  21
ENDBRANCH  18  20
ENDBRANCH  16  18
ENDBRANCH   1  16
BRANCH   6  28
ATOM     28  O   LIG    1       25.344 -21.099   3.470  0.00  0.00    -0.495 OA
ATOM     29  C   LIG    1       24.097 -21.209   2.668  0.00  0.00    +0.277 C 
ENDBRANCH   6  28
TORSDOF 9
ENDMDL
