MODEL 1
REMARK VINA RESULT:      -3.1      0.000      0.000
REMARK  Name = *****
REMARK                            x       y       z     vdW  Elec       q    Type
REMARK                         _______ _______ _______ _____ _____    ______ ____
ROOT
ATOM      1  N   LIG    1       25.088 -16.819   3.904  0.00  0.00    -0.303 N 
ATOM      2  H   LIG    1       24.792 -16.666   4.859  0.00  0.00    +0.149 HD
ATOM      3  C   LIG    1       25.127 -18.113   3.452  0.00  0.00    +0.220 C 
ATOM      4  O   LIG    1       25.786 -18.440   2.449  0.00  0.00    -0.275 OA
ENDROOT
BRANCH   1   5
ATOM      5  C   LIG    1       25.859 -15.716   3.286  0.00  0.00    +0.164 C 
BRANCH   5   9
ATOM      6  C   LIG    1       29.001 -17.400   4.757  0.00  0.00    +0.128 C 
ATOM      7  N   LIG    1       27.722 -17.132   4.136  0.00  0.00    -0.317 N 
ATOM      8  H   LIG    1       27.115 -17.911   3.914  0.00  0.00    +0.148 HD
ATOM      9  C   LIG    1       27.323 -15.850   3.821  0.00  0.00    +0.234 C 
ATOM     10  O   LIG    1       28.035 -14.886   4.087  0.00  0.00    -0.274 OA
ENDBRANCH   5   9
BRANCH   5  11
ATOM     11  C   LIG    1       25.214 -14.311   3.581  0.00  0.00    -0.011 C 
ATOM     12  C   LIG    1       25.890 -13.675   4.816  0.00  0.00    +0.013 C 
ATOM     13  C   LIG    1       23.696 -14.409   3.825  0.00  0.00    +0.013 C 
ATOM     14  C   LIG    1       25.416 -13.322   2.407  0.00  0.00    +0.013 C 
ENDBRANCH   5  11
ENDBRANCH   1   5
BRANCH   3  15
ATOM     15  C   LIG    1       24.246 -19.134   4.185  0.00  0.00    +0.113 C 
BRANCH  15  16
ATOM     16  C   LIG    1       25.054 -20.448   4.310  0.00  0.00    +0.214 C 
BRANCH  16  17
ATOM     17  C   LIG    1       26.015 -20.452   5.507  0.00  0.00    +0.265 C 
ATOM     18  N   LIG    1       27.345 -20.399   5.125  0.00  0.00    -0.195 N 
ATOM     19  H   LIG    1       27.677 -20.070   4.236  0.00  0.00    +0.182 HD
ATOM     20  O   LIG    1       25.672 -20.573   6.668  0.00  0.00    -0.271 OA
BRANCH  18  21
ATOM     21  O   LIG    1       28.311 -20.511   6.172  0.00  0.00    -0.295 OA
ATOM     22  H   LIG    1       27.913 -21.195   6.755  0.00  0.00    +0.241 HD
ENDBRANCH  18  21
ENDBRANCH  16  17
BRANCH  16  23
ATOM     23  O   LIG    1       24.181 -21.570   4.509  0.00  0.00    -0.382 OA
ATOM     24  H   LIG    1       24.743 -22.355   4.652  0.00  0.00    +0.210 HD
ENDBRANCH  16  23
ENDBRANCH  15  16
BRANCH  15  25
ATOM     25  C   LIG    1       22.897 -19.257   3.402  0.00  0.00    +0.018 C 
BRANCH  25  26
ATOM     26  C   LIG    1       21.821 -18.147   3.564  0.00  0.00    -0.016 C 
ATOM     27  C   LIG    1       21.900 -17.471   4.950  0.00  0.00    +0.007 C 
ATOM     28  C   LIG    1       20.405 -18.688   3.383  0.00  0.00    +0.007 C 
ENDBRANCH  25  26
ENDBRANCH  15  25
ENDBRANCH   3  15
TORSDOF 10
ENDMDL
MODEL 2
REMARK VINA RESULT:      -2.1      1.964      3.854
REMARK  Name = *****
REMARK                            x       y       z     vdW  Elec       q    Type
REMARK                         _______ _______ _______ _____ _____    ______ ____
ROOT
ATOM      1  N   LIG    1       25.079 -17.169   3.992  0.00  0.00    -0.303 N 
ATOM      2  H   LIG    1       24.961 -17.213   4.994  0.00  0.00    +0.149 HD
ATOM      3  C   LIG    1       25.447 -18.320   3.344  0.00  0.00    +0.220 C 
ATOM      4  O   LIG    1       25.946 -18.304   2.204  0.00  0.00    -0.275 OA
ENDROOT
BRANCH   1   5
ATOM      5  C   LIG    1       25.288 -15.814   3.429  0.00  0.00    +0.164 C 
BRANCH   5   9
ATOM      6  C   LIG    1       28.488 -13.666   3.576  0.00  0.00    +0.128 C 
ATOM      7  N   LIG    1       27.123 -14.132   3.455  0.00  0.00    -0.317 N 
ATOM      8  H   LIG    1       26.408 -13.477   3.164  0.00  0.00    +0.148 HD
ATOM      9  C   LIG    1       26.772 -15.433   3.746  0.00  0.00    +0.234 C 
ATOM     10  O   LIG    1       27.619 -16.251   4.092  0.00  0.00    -0.274 OA
ENDBRANCH   5   9
BRANCH   5  11
ATOM     11  C   LIG    1       24.245 -14.779   3.989  0.00  0.00    -0.011 C 
ATOM     12  C   LIG    1       23.016 -15.527   4.552  0.00  0.00    +0.013 C 
ATOM     13  C   LIG    1       23.784 -13.778   2.913  0.00  0.00    +0.013 C 
ATOM     14  C   LIG    1       24.827 -13.943   5.157  0.00  0.00    +0.013 C 
ENDBRANCH   5  11
ENDBRANCH   1   5
BRANCH   3  15
ATOM     15  C   LIG    1       25.134 -19.647   4.050  0.00  0.00    +0.113 C 
BRANCH  15  16
ATOM     16  C   LIG    1       24.102 -19.354   5.165  0.00  0.00    +0.214 C 
BRANCH  16  17
ATOM     17  C   LIG    1       22.661 -19.683   4.753  0.00  0.00    +0.265 C 
ATOM     18  N   LIG    1       22.338 -21.015   4.954  0.00  0.00    -0.195 N 
ATOM     19  H   LIG    1       22.819 -21.637   5.579  0.00  0.00    +0.182 HD
ATOM     20  O   LIG    1       21.897 -18.897   4.225  0.00  0.00    -0.271 OA
BRANCH  18  21
ATOM     21  O   LIG    1       21.052 -21.433   4.492  0.00  0.00    -0.295 OA
ATOM     22  H   LIG    1       20.554 -21.554   5.331  0.00  0.00    +0.241 HD
ENDBRANCH  18  21
ENDBRANCH  16  17
BRANCH  16  23
ATOM     23  O   LIG    1       24.365 -20.151   6.330  0.00  0.00    -0.382 OA
ATOM     24  H   LIG    1       25.225 -19.866   6.690  0.00  0.00    +0.210 HD
ENDBRANCH  16  23
ENDBRANCH  15  16
BRANCH  15  25
ATOM     25  C   LIG    1       26.487 -20.261   4.542  0.00  0.00    +0.018 C 
BRANCH  25  26
ATOM     26  C   LIG    1       27.206 -19.629   5.766  0.00  0.00    -0.016 C 
ATOM     27  C   LIG    1       28.607 -19.098   5.395  0.00  0.00    +0.007 C 
ATOM     28  C   LIG    1       27.366 -20.622   6.915  0.00  0.00    +0.007 C 
ENDBRANCH  25  26
ENDBRANCH  15  25
ENDBRANCH   3  15
TORSDOF 10
ENDMDL
MODEL 3
REMARK VINA RESULT:      -1.8      1.948      3.783
REMARK  Name = *****
REMARK                            x       y       z     vdW  Elec       q    Type
REMARK                         _______ _______ _______ _____ _____    ______ ____
ROOT
ATOM      1  N   LIG    1       24.997 -17.146   3.850  0.00  0.00    -0.303 N 
ATOM      2  H   LIG    1       24.698 -17.056   4.811  0.00  0.00    +0.149 HD
ATOM      3  C   LIG    1       25.055 -18.410   3.321  0.00  0.00    +0.220 C 
ATOM      4  O   LIG    1       25.720 -18.667   2.301  0.00  0.00    -0.275 OA
ENDROOT
BRANCH   1   5
ATOM      5  C   LIG    1       25.753 -15.997   3.301  0.00  0.00    +0.164 C 
BRANCH   5   9
ATOM      6  C   LIG    1       28.876 -17.722   4.767  0.00  0.00    +0.128 C 
ATOM      7  N   LIG    1       27.592 -17.437   4.163  0.00  0.00    -0.317 N 
ATOM      8  H   LIG    1       26.958 -18.205   3.981  0.00  0.00    +0.148 HD
ATOM      9  C   LIG    1       27.224 -16.157   3.811  0.00  0.00    +0.234 C 
ATOM     10  O   LIG    1       27.969 -15.205   4.027  0.00  0.00    -0.274 OA
ENDBRANCH   5   9
BRANCH   5  11
ATOM     11  C   LIG    1       25.101 -14.622   3.700  0.00  0.00    -0.011 C 
ATOM     12  C   LIG    1       25.150 -13.652   2.499  0.00  0.00    +0.013 C 
ATOM     13  C   LIG    1       25.803 -13.974   4.908  0.00  0.00    +0.013 C 
ATOM     14  C   LIG    1       23.607 -14.778   4.081  0.00  0.00    +0.013 C 
ENDBRANCH   5  11
ENDBRANCH   1   5
BRANCH   3  15
ATOM     15  C   LIG    1       24.188 -19.486   3.989  0.00  0.00    +0.113 C 
BRANCH  15  16
ATOM     16  C   LIG    1       23.304 -18.786   5.050  0.00  0.00    +0.214 C 
BRANCH  16  17
ATOM     17  C   LIG    1       22.078 -18.086   4.444  0.00  0.00    +0.265 C 
ATOM     18  N   LIG    1       21.251 -18.958   3.756  0.00  0.00    -0.195 N 
ATOM     19  H   LIG    1       21.229 -19.954   3.883  0.00  0.00    +0.182 HD
ATOM     20  O   LIG    1       21.880 -16.887   4.480  0.00  0.00    -0.271 OA
BRANCH  18  21
ATOM     21  O   LIG    1       20.146 -18.372   3.066  0.00  0.00    -0.295 OA
ATOM     22  H   LIG    1       20.189 -18.809   2.186  0.00  0.00    +0.241 HD
ENDBRANCH  18  21
ENDBRANCH  16  17
BRANCH  16  23
ATOM     23  O   LIG    1       22.784 -19.735   5.992  0.00  0.00    -0.382 OA
ATOM     24  H   LIG    1       22.501 -20.521   5.489  0.00  0.00    +0.210 HD
ENDBRANCH  16  23
ENDBRANCH  15  16
BRANCH  15  25
ATOM     25  C   LIG    1       25.140 -20.595   4.546  0.00  0.00    +0.018 C 
BRANCH  25  26
ATOM     26  C   LIG    1       25.715 -20.449   5.984  0.00  0.00    -0.016 C 
ATOM     27  C   LIG    1       27.258 -20.443   5.985  0.00  0.00    +0.007 C 
ATOM     28  C   LIG    1       25.246 -21.572   6.907  0.00  0.00    +0.007 C 
ENDBRANCH  25  26
ENDBRANCH  15  25
ENDBRANCH   3  15
TORSDOF 10
ENDMDL
MODEL 4
REMARK VINA RESULT:      -1.7      2.281      6.050
REMARK  Name = *****
REMARK                            x       y       z     vdW  Elec       q    Type
REMARK                         _______ _______ _______ _____ _____    ______ ____
ROOT
ATOM      1  N   LIG    1       24.537 -17.949   4.047  0.00  0.00    -0.303 N 
ATOM      2  H   LIG    1       23.818 -17.319   4.375  0.00  0.00    +0.149 HD
ATOM      3  C   LIG    1       25.475 -17.445   3.183  0.00  0.00    +0.220 C 
ATOM      4  O   LIG    1       26.172 -18.185   2.464  0.00  0.00    -0.275 OA
ENDROOT
BRANCH   1   5
ATOM      5  C   LIG    1       24.228 -19.393   4.164  0.00  0.00    +0.164 C 
BRANCH   5   9
ATOM      6  C   LIG    1       20.741 -20.989   4.573  0.00  0.00    +0.128 C 
ATOM      7  N   LIG    1       22.161 -20.757   4.423  0.00  0.00    -0.317 N 
ATOM      8  H   LIG    1       22.773 -21.551   4.285  0.00  0.00    +0.148 HD
ATOM      9  C   LIG    1       22.700 -19.490   4.486  0.00  0.00    +0.234 C 
ATOM     10  O   LIG    1       21.981 -18.507   4.644  0.00  0.00    -0.274 OA
ENDBRANCH   5   9
BRANCH   5  11
ATOM     11  C   LIG    1       25.137 -20.102   5.236  0.00  0.00    -0.011 C 
ATOM     12  C   LIG    1       25.378 -21.572   4.827  0.00  0.00    +0.013 C 
ATOM     13  C   LIG    1       24.515 -20.060   6.644  0.00  0.00    +0.013 C 
ATOM     14  C   LIG    1       26.533 -19.438   5.342  0.00  0.00    +0.013 C 
ENDBRANCH   5  11
ENDBRANCH   1   5
BRANCH   3  15
ATOM     15  C   LIG    1       25.697 -15.927   3.203  0.00  0.00    +0.113 C 
BRANCH  15  16
ATOM     16  C   LIG    1       27.215 -15.676   3.377  0.00  0.00    +0.214 C 
BRANCH  16  17
ATOM     17  C   LIG    1       27.538 -14.255   3.860  0.00  0.00    +0.265 C 
ATOM     18  N   LIG    1       27.957 -13.424   2.835  0.00  0.00    -0.195 N 
ATOM     19  H   LIG    1       27.777 -13.577   1.859  0.00  0.00    +0.182 HD
ATOM     20  O   LIG    1       27.517 -13.899   5.024  0.00  0.00    -0.271 OA
BRANCH  18  21
ATOM     21  O   LIG    1       28.386 -12.115   3.214  0.00  0.00    -0.295 OA
ATOM     22  H   LIG    1       28.102 -11.568   2.447  0.00  0.00    +0.241 HD
ENDBRANCH  18  21
ENDBRANCH  16  17
BRANCH  16  23
ATOM     23  O   LIG    1       27.771 -16.557   4.365  0.00  0.00    -0.382 OA
ATOM     24  H   LIG    1       27.480 -16.237   5.239  0.00  0.00    +0.210 HD
ENDBRANCH  16  23
ENDBRANCH  15  16
BRANCH  15  25
ATOM     25  C   LIG    1       24.792 -15.323   4.327  0.00  0.00    +0.018 C 
BRANCH  25  26
ATOM     26  C   LIG    1       23.940 -14.061   4.019  0.00  0.00    -0.016 C 
ATOM     27  C   LIG    1       24.159 -13.561   2.575  0.00  0.00    +0.007 C 
ATOM     28  C   LIG    1       24.253 -12.908   4.970  0.00  0.00    +0.007 C 
ENDBRANCH  25  26
ENDBRANCH  15  25
ENDBRANCH   3  15
TORSDOF 10
ENDMDL
MODEL 5
REMARK VINA RESULT:      -1.6      2.009      3.779
REMARK  Name = *****
REMARK                            x       y       z     vdW  Elec       q    Type
REMARK                         _______ _______ _______ _____ _____    ______ ____
ROOT
ATOM      1  N   LIG    1       26.374 -16.803   3.972  0.00  0.00    -0.303 N 
ATOM      2  H   LIG    1       27.036 -16.925   4.725  0.00  0.00    +0.149 HD
ATOM      3  C   LIG    1       25.983 -17.922   3.282  0.00  0.00    +0.220 C 
ATOM      4  O   LIG    1       25.465 -17.851   2.153  0.00  0.00    -0.275 OA
ENDROOT
BRANCH   1   5
ATOM      5  C   LIG    1       26.269 -15.430   3.426  0.00  0.00    +0.164 C 
BRANCH   5   9
ATOM      6  C   LIG    1       29.099 -12.810   3.376  0.00  0.00    +0.128 C 
ATOM      7  N   LIG    1       27.869 -13.540   3.160  0.00  0.00    -0.317 N 
ATOM      8  H   LIG    1       27.209 -13.193   2.476  0.00  0.00    +0.148 HD
ATOM      9  C   LIG    1       27.566 -14.679   3.876  0.00  0.00    +0.234 C 
ATOM     10  O   LIG    1       28.352 -15.129   4.705  0.00  0.00    -0.274 OA
ENDBRANCH   5   9
BRANCH   5  11
ATOM     11  C   LIG    1       24.944 -14.715   3.885  0.00  0.00    -0.011 C 
ATOM     12  C   LIG    1       23.891 -15.772   4.284  0.00  0.00    +0.013 C 
ATOM     13  C   LIG    1       24.364 -13.806   2.786  0.00  0.00    +0.013 C 
ATOM     14  C   LIG    1       25.169 -13.823   5.132  0.00  0.00    +0.013 C 
ENDBRANCH   5  11
ENDBRANCH   1   5
BRANCH   3  15
ATOM     15  C   LIG    1       26.130 -19.270   4.000  0.00  0.00    +0.113 C 
BRANCH  15  16
ATOM     16  C   LIG    1       24.720 -19.900   4.110  0.00  0.00    +0.214 C 
BRANCH  16  17
ATOM     17  C   LIG    1       24.574 -20.840   5.315  0.00  0.00    +0.265 C 
ATOM     18  N   LIG    1       23.303 -20.810   5.865  0.00  0.00    -0.195 N 
ATOM     19  H   LIG    1       22.476 -20.497   5.389  0.00  0.00    +0.182 HD
ATOM     20  O   LIG    1       25.483 -21.484   5.803  0.00  0.00    -0.271 OA
BRANCH  18  21
ATOM     21  O   LIG    1       23.111 -21.570   7.060  0.00  0.00    -0.295 OA
ATOM     22  H   LIG    1       23.575 -21.026   7.734  0.00  0.00    +0.241 HD
ENDBRANCH  18  21
ENDBRANCH  16  17
BRANCH  16  23
ATOM     23  O   LIG    1       23.717 -18.888   4.282  0.00  0.00    -0.382 OA
ATOM     24  H   LIG    1       24.177 -18.057   4.506  0.00  0.00    +0.210 HD
ENDBRANCH  16  23
ENDBRANCH  15  16
BRANCH  15  25
ATOM     25  C   LIG    1       26.848 -19.012   5.366  0.00  0.00    +0.018 C 
BRANCH  25  26
ATOM     26  C   LIG    1       28.277 -19.583   5.592  0.00  0.00    -0.016 C 
ATOM     27  C   LIG    1       28.391 -20.324   6.941  0.00  0.00    +0.007 C 
ATOM     28  C   LIG    1       29.344 -18.491   5.561  0.00  0.00    +0.007 C 
ENDBRANCH  25  26
ENDBRANCH  15  25
ENDBRANCH   3  15
TORSDOF 10
ENDMDL
MODEL 6
REMARK VINA RESULT:      -1.3      2.171      6.090
REMARK  Name = *****
REMARK                            x       y       z     vdW  Elec       q    Type
REMARK                         _______ _______ _______ _____ _____    ______ ____
ROOT
ATOM      1  N   LIG    1       27.255 -17.533   4.481  0.00  0.00    -0.303 N 
ATOM      2  H   LIG    1       27.408 -17.004   5.328  0.00  0.00    +0.149 HD
ATOM      3  C   LIG    1       26.476 -16.960   3.508  0.00  0.00    +0.220 C 
ATOM      4  O   LIG    1       25.947 -17.634   2.606  0.00  0.00    -0.275 OA
ENDROOT
BRANCH   1   5
ATOM      5  C   LIG    1       27.491 -18.992   4.582  0.00  0.00    +0.164 C 
BRANCH   5   9
ATOM      6  C   LIG    1       24.315 -20.820   3.379  0.00  0.00    +0.128 C 
ATOM      7  N   LIG    1       25.647 -20.268   3.500  0.00  0.00    -0.317 N 
ATOM      8  H   LIG    1       26.281 -20.348   2.715  0.00  0.00    +0.148 HD
ATOM      9  C   LIG    1       26.078 -19.660   4.659  0.00  0.00    +0.234 C 
ATOM     10  O   LIG    1       25.329 -19.541   5.624  0.00  0.00    -0.274 OA
ENDBRANCH   5   9
BRANCH   5  11
ATOM     11  C   LIG    1       28.420 -19.352   5.799  0.00  0.00    -0.011 C 
ATOM     12  C   LIG    1       27.559 -19.596   7.058  0.00  0.00    +0.013 C 
ATOM     13  C   LIG    1       29.450 -18.246   6.092  0.00  0.00    +0.013 C 
ATOM     14  C   LIG    1       29.221 -20.656   5.552  0.00  0.00    +0.013 C 
ENDBRANCH   5  11
ENDBRANCH   1   5
BRANCH   3  15
ATOM     15  C   LIG    1       26.354 -15.430   3.524  0.00  0.00    +0.113 C 
BRANCH  15  16
ATOM     16  C   LIG    1       27.400 -14.886   4.527  0.00  0.00    +0.214 C 
BRANCH  16  17
ATOM     17  C   LIG    1       28.201 -13.698   3.975  0.00  0.00    +0.265 C 
ATOM     18  N   LIG    1       28.673 -12.861   4.973  0.00  0.00    -0.195 N 
ATOM     19  H   LIG    1       28.790 -13.121   5.936  0.00  0.00    +0.182 HD
ATOM     20  O   LIG    1       28.345 -13.452   2.792  0.00  0.00    -0.271 OA
BRANCH  18  21
ATOM     21  O   LIG    1       29.333 -11.670   4.542  0.00  0.00    -0.295 OA
ATOM     22  H   LIG    1       29.702 -11.935   3.670  0.00  0.00    +0.241 HD
ENDBRANCH  18  21
ENDBRANCH  16  17
BRANCH  16  23
ATOM     23  O   LIG    1       26.765 -14.405   5.721  0.00  0.00    -0.382 OA
ATOM     24  H   LIG    1       26.696 -15.156   6.338  0.00  0.00    +0.210 HD
ENDBRANCH  16  23
ENDBRANCH  15  16
BRANCH  15  25
ATOM     25  C   LIG    1       24.868 -15.068   3.854  0.00  0.00    +0.018 C 
BRANCH  25  26
ATOM     26  C   LIG    1       24.263 -13.753   3.288  0.00  0.00    -0.016 C 
ATOM     27  C   LIG    1       25.076 -13.220   2.088  0.00  0.00    +0.007 C 
ATOM     28  C   LIG    1       24.197 -12.650   4.342  0.00  0.00    +0.007 C 
ENDBRANCH  25  26
ENDBRANCH  15  25
ENDBRANCH   3  15
TORSDOF 10
ENDMDL
MODEL 7
REMARK VINA RESULT:      -1.3      1.985      3.122
REMARK  Name = *****
REMARK                            x       y       z     vdW  Elec       q    Type
REMARK                         _______ _______ _______ _____ _____    ______ ____
ROOT
ATOM      1  N   LIG    1       26.075 -16.184   4.098  0.00  0.00    -0.303 N 
ATOM      2  H   LIG    1       26.597 -15.931   4.925  0.00  0.00    +0.149 HD
ATOM      3  C   LIG    1       26.159 -17.483   3.667  0.00  0.00    +0.220 C 
ATOM      4  O   LIG    1       25.855 -17.812   2.506  0.00  0.00    -0.275 OA
ENDROOT
BRANCH   1   5
ATOM      5  C   LIG    1       25.673 -15.058   3.223  0.00  0.00    +0.164 C 
BRANCH   5   9
ATOM      6  C   LIG    1       28.801 -12.923   3.955  0.00  0.00    +0.128 C 
ATOM      7  N   LIG    1       27.651 -13.795   4.056  0.00  0.00    -0.317 N 
ATOM      8  H   LIG    1       27.349 -14.099   4.973  0.00  0.00    +0.148 HD
ATOM      9  C   LIG    1       26.976 -14.239   2.939  0.00  0.00    +0.234 C 
ATOM     10  O   LIG    1       27.315 -13.880   1.815  0.00  0.00    -0.274 OA
ENDBRANCH   5   9
BRANCH   5  11
ATOM     11  C   LIG    1       24.523 -14.198   3.863  0.00  0.00    -0.011 C 
ATOM     12  C   LIG    1       23.901 -13.276   2.792  0.00  0.00    +0.013 C 
ATOM     13  C   LIG    1       25.024 -13.344   5.043  0.00  0.00    +0.013 C 
ATOM     14  C   LIG    1       23.372 -15.082   4.407  0.00  0.00    +0.013 C 
ENDBRANCH   5  11
ENDBRANCH   1   5
BRANCH   3  15
ATOM     15  C   LIG    1       26.561 -18.538   4.706  0.00  0.00    +0.113 C 
BRANCH  15  16
ATOM     16  C   LIG    1       28.029 -18.261   5.114  0.00  0.00    +0.214 C 
BRANCH  16  17
ATOM     17  C   LIG    1       28.582 -19.293   6.107  0.00  0.00    +0.265 C 
ATOM     18  N   LIG    1       28.037 -20.554   5.927  0.00  0.00    -0.195 N 
ATOM     19  H   LIG    1       27.598 -20.877   5.084  0.00  0.00    +0.182 HD
ATOM     20  O   LIG    1       29.349 -19.035   7.015  0.00  0.00    -0.271 OA
BRANCH  18  21
ATOM     21  O   LIG    1       28.412 -21.549   6.881  0.00  0.00    -0.295 OA
ATOM     22  H   LIG    1       28.732 -22.282   6.309  0.00  0.00    +0.241 HD
ENDBRANCH  18  21
ENDBRANCH  16  17
BRANCH  16  23
ATOM     23  O   LIG    1       28.897 -18.316   3.973  0.00  0.00    -0.382 OA
ATOM     24  H   LIG    1       28.339 -18.236   3.177  0.00  0.00    +0.210 HD
ENDBRANCH  16  23
ENDBRANCH  15  16
BRANCH  15  25
ATOM     25  C   LIG    1       26.301 -19.950   4.085  0.00  0.00    +0.018 C 
BRANCH  25  26
ATOM     26  C   LIG    1       25.033 -20.743   4.509  0.00  0.00    -0.016 C 
ATOM     27  C   LIG    1       23.748 -20.130   3.912  0.00  0.00    +0.007 C 
ATOM     28  C   LIG    1       24.869 -20.799   6.026  0.00  0.00    +0.007 C 
ENDBRANCH  25  26
ENDBRANCH  15  25
ENDBRANCH   3  15
TORSDOF 10
ENDMDL
MODEL 8
REMARK VINA RESULT:      -1.1      1.623      5.488
REMARK  Name = *****
REMARK                            x       y       z     vdW  Elec       q    Type
REMARK                         _______ _______ _______ _____ _____    ______ ____
ROOT
ATOM      1  N   LIG    1       24.545 -17.639   4.474  0.00  0.00    -0.303 N 
ATOM      2  H   LIG    1       23.924 -16.903   4.780  0.00  0.00    +0.149 HD
ATOM      3  C   LIG    1       25.368 -17.373   3.410  0.00  0.00    +0.220 C 
ATOM      4  O   LIG    1       25.901 -18.281   2.747  0.00  0.00    -0.275 OA
ENDROOT
BRANCH   1   5
ATOM      5  C   LIG    1       24.173 -19.010   4.894  0.00  0.00    +0.164 C 
BRANCH   5   9
ATOM      6  C   LIG    1       27.839 -20.121   5.343  0.00  0.00    +0.128 C 
ATOM      7  N   LIG    1       26.545 -19.489   5.482  0.00  0.00    -0.317 N 
ATOM      8  H   LIG    1       26.433 -18.750   6.164  0.00  0.00    +0.148 HD
ATOM      9  C   LIG    1       25.461 -19.884   4.727  0.00  0.00    +0.234 C 
ATOM     10  O   LIG    1       25.569 -20.771   3.886  0.00  0.00    -0.274 OA
ENDBRANCH   5   9
BRANCH   5  11
ATOM     11  C   LIG    1       22.940 -19.557   4.084  0.00  0.00    -0.011 C 
ATOM     12  C   LIG    1       22.268 -20.705   4.868  0.00  0.00    +0.013 C 
ATOM     13  C   LIG    1       23.341 -20.060   2.685  0.00  0.00    +0.013 C 
ATOM     14  C   LIG    1       21.856 -18.470   3.875  0.00  0.00    +0.013 C 
ENDBRANCH   5  11
ENDBRANCH   1   5
BRANCH   3  15
ATOM     15  C   LIG    1       25.681 -15.898   3.123  0.00  0.00    +0.113 C 
BRANCH  15  16
ATOM     16  C   LIG    1       27.196 -15.685   3.354  0.00  0.00    +0.214 C 
BRANCH  16  17
ATOM     17  C   LIG    1       27.521 -14.333   4.008  0.00  0.00    +0.265 C 
ATOM     18  N   LIG    1       28.254 -13.501   3.178  0.00  0.00    -0.195 N 
ATOM     19  H   LIG    1       28.305 -13.582   2.179  0.00  0.00    +0.182 HD
ATOM     20  O   LIG    1       27.247 -14.039   5.156  0.00  0.00    -0.271 OA
BRANCH  18  21
ATOM     21  O   LIG    1       28.695 -12.267   3.748  0.00  0.00    -0.295 OA
ATOM     22  H   LIG    1       29.324 -11.933   3.070  0.00  0.00    +0.241 HD
ENDBRANCH  18  21
ENDBRANCH  16  17
BRANCH  16  23
ATOM     23  O   LIG    1       27.726 -16.682   4.241  0.00  0.00    -0.382 OA
ATOM     24  H   LIG    1       28.553 -17.014   3.845  0.00  0.00    +0.210 HD
ENDBRANCH  16  23
ENDBRANCH  15  16
BRANCH  15  25
ATOM     25  C   LIG    1       24.744 -15.023   4.020  0.00  0.00    +0.018 C 
BRANCH  25  26
ATOM     26  C   LIG    1       24.060 -13.770   3.407  0.00  0.00    -0.016 C 
ATOM     27  C   LIG    1       24.740 -13.331   2.093  0.00  0.00    +0.007 C 
ATOM     28  C   LIG    1       24.072 -12.581   4.366  0.00  0.00    +0.007 C 
ENDBRANCH  25  26
ENDBRANCH  15  25
ENDBRANCH   3  15
TORSDOF 10
ENDMDL
MODEL 9
REMARK VINA RESULT:      -1.0      1.693      2.450
REMARK  Name = *****
REMARK                            x       y       z     vdW  Elec       q    Type
REMARK                         _______ _______ _______ _____ _____    ______ ____
ROOT
ATOM      1  N   LIG    1       25.106 -15.528   3.849  0.00  0.00    -0.303 N 
ATOM      2  H   LIG    1       24.584 -15.406   4.706  0.00  0.00    +0.149 HD
ATOM      3  C   LIG    1       25.699 -16.746   3.636  0.00  0.00    +0.220 C 
ATOM      4  O   LIG    1       26.625 -16.893   2.817  0.00  0.00    -0.275 OA
ENDROOT
BRANCH   1   5
ATOM      5  C   LIG    1       25.541 -14.281   3.179  0.00  0.00    +0.164 C 
BRANCH   5   9
ATOM      6  C   LIG    1       29.083 -12.874   3.773  0.00  0.00    +0.128 C 
ATOM      7  N   LIG    1       27.816 -13.267   3.197  0.00  0.00    -0.317 N 
ATOM      8  H   LIG    1       27.676 -13.151   2.201  0.00  0.00    +0.148 HD
ATOM      9  C   LIG    1       26.792 -13.772   3.970  0.00  0.00    +0.234 C 
ATOM     10  O   LIG    1       26.936 -13.932   5.178  0.00  0.00    -0.274 OA
ENDBRANCH   5   9
BRANCH   5  11
ATOM     11  C   LIG    1       24.381 -13.222   3.099  0.00  0.00    -0.011 C 
ATOM     12  C   LIG    1       23.014 -13.942   3.101  0.00  0.00    +0.013 C 
ATOM     13  C   LIG    1       24.488 -12.335   1.844  0.00  0.00    +0.013 C 
ATOM     14  C   LIG    1       24.380 -12.269   4.321  0.00  0.00    +0.013 C 
ENDBRANCH   5  11
ENDBRANCH   1   5
BRANCH   3  15
ATOM     15  C   LIG    1       25.110 -17.948   4.386  0.00  0.00    +0.113 C 
BRANCH  15  16
ATOM     16  C   LIG    1       25.550 -19.230   3.639  0.00  0.00    +0.214 C 
BRANCH  16  17
ATOM     17  C   LIG    1       25.245 -20.517   4.421  0.00  0.00    +0.265 C 
ATOM     18  N   LIG    1       25.477 -20.384   5.779  0.00  0.00    -0.195 N 
ATOM     19  H   LIG    1       25.518 -19.512   6.275  0.00  0.00    +0.182 HD
ATOM     20  O   LIG    1       24.916 -21.571   3.912  0.00  0.00    -0.271 OA
BRANCH  18  21
ATOM     21  O   LIG    1       25.326 -21.567   6.567  0.00  0.00    -0.295 OA
ATOM     22  H   LIG    1       24.659 -22.078   6.056  0.00  0.00    +0.241 HD
ENDBRANCH  18  21
ENDBRANCH  16  17
BRANCH  16  23
ATOM     23  O   LIG    1       24.856 -19.361   2.390  0.00  0.00    -0.382 OA
ATOM     24  H   LIG    1       24.566 -18.469   2.122  0.00  0.00    +0.210 HD
ENDBRANCH  16  23
ENDBRANCH  15  16
BRANCH  15  25
ATOM     25  C   LIG    1       23.563 -17.740   4.491  0.00  0.00    +0.018 C 
BRANCH  25  26
ATOM     26  C   LIG    1       22.611 -18.871   4.011  0.00  0.00    -0.016 C 
ATOM     27  C   LIG    1       21.419 -18.312   3.205  0.00  0.00    +0.007 C 
ATOM     28  C   LIG    1       22.054 -19.687   5.175  0.00  0.00    +0.007 C 
ENDBRANCH  25  26
ENDBRANCH  15  25
ENDBRANCH   3  15
TORSDOF 10
ENDMDL
