MODEL 1
REMARK VINA RESULT:      -8.1      0.000      0.000
REMARK  Name = *****
REMARK                            x       y       z     vdW  Elec       q    Type
REMARK                         _______ _______ _______ _____ _____    ______ ____
ROOT
ATOM      1  C   LIG    1       24.526 -30.283   6.265  0.00  0.00    +0.128 A 
ATOM      2  N   LIG    1       25.378 -29.807   7.264  0.00  0.00    -0.329 N 
ATOM      3  C   LIG    1       26.232 -30.682   8.018  0.00  0.00    +0.150 C 
ATOM      4  C   LIG    1       25.602 -28.446   7.065  0.00  0.00    +0.069 A 
ATOM      5  C   LIG    1       25.207 -28.263   5.748  0.00  0.00    +0.090 A 
ATOM      6  C   LIG    1       25.095 -26.925   5.252  0.00  0.00    +0.043 A 
ATOM      7  C   LIG    1       25.232 -25.786   6.026  0.00  0.00    +0.039 A 
ATOM      8  C   LIG    1       25.989 -26.028   7.177  0.00  0.00    +0.015 A 
ATOM      9  C   LIG    1       26.186 -27.357   7.709  0.00  0.00    +0.029 A 
ATOM     10  N   LIG    1       24.969 -29.541   5.235  0.00  0.00    -0.231 NA
ENDROOT
BRANCH   7  11
ATOM     11  C   LIG    1       24.954 -24.430   5.368  0.00  0.00    +0.252 C 
ATOM     12  N   LIG    1       24.760 -23.210   6.089  0.00  0.00    -0.252 N 
ATOM     13  O   LIG    1       24.774 -24.495   4.147  0.00  0.00    -0.270 OA
BRANCH  12  14
ATOM     14  C   LIG    1       24.264 -22.046   5.397  0.00  0.00    +0.128 A 
ATOM     15  N   LIG    1       22.986 -21.670   5.686  0.00  0.00    -0.240 NA
ATOM     16  C   LIG    1       22.525 -20.496   5.215  0.00  0.00    +0.113 A 
ATOM     17  C   LIG    1       23.302 -19.619   4.491  0.00  0.00    +0.020 A 
ATOM     18  C   LIG    1       24.625 -19.977   4.244  0.00  0.00    +0.005 A 
ATOM     19  C   LIG    1       25.118 -21.204   4.702  0.00  0.00    +0.044 A 
ENDBRANCH  12  14
BRANCH  12  20
ATOM     20  C   LIG    1       25.031 -22.775   7.486  0.00  0.00    +0.126 C 
BRANCH  20  21
ATOM     21  C   LIG    1       26.377 -22.360   7.933  0.00  0.00    +0.140 C 
BRANCH  21  22
ATOM     22  C   LIG    1       26.326 -20.942   8.391  0.00  0.00    +0.309 C 
ATOM     23  O   LIG    1       25.878 -20.476   9.432  0.00  0.00    -0.251 OA
BRANCH  22  24
ATOM     24  O   LIG    1       26.954 -20.203   7.469  0.00  0.00    -0.465 OA
BRANCH  24  25
ATOM     25  C   LIG    1       28.272 -20.569   7.176  0.00  0.00    +0.228 C 
ATOM     26  C   LIG    1       28.320 -19.837   5.979  0.00  0.00    +0.048 C 
ENDBRANCH  24  25
ENDBRANCH  22  24
ENDBRANCH  21  22
ENDBRANCH  20  21
ENDBRANCH  12  20
ENDBRANCH   7  11
BRANCH   1  27
ATOM     27  C   LIG    1       23.563 -31.638   6.389  0.00  0.00    +0.176 C 
BRANCH  27  28
ATOM     28  N   LIG    1       23.248 -32.622   7.636  0.00  0.00    -0.337 N 
ATOM     29  H   LIG    1       22.366 -33.110   7.406  0.00  0.00    +0.146 HD
BRANCH  28  33
ATOM     30  C   LIG    1       24.677 -31.261  11.491  0.00  0.00    +0.064 A 
ATOM     31  C   LIG    1       24.837 -32.632  11.122  0.00  0.00    +0.017 A 
ATOM     32  C   LIG    1       24.094 -33.223  10.021  0.00  0.00    +0.024 A 
ATOM     33  C   LIG    1       23.283 -32.402   9.130  0.00  0.00    +0.028 A 
ATOM     34  C   LIG    1       23.084 -31.025   9.578  0.00  0.00    +0.024 A 
ATOM     35  C   LIG    1       23.801 -30.483  10.712  0.00  0.00    +0.017 A 
BRANCH  30  37
ATOM     36  N   LIG    1       26.528 -29.869  11.976  0.00  0.00    +0.065 NA
ATOM     37  C   LIG    1       25.565 -30.608  12.551  0.00  0.00    +0.314 C 
BRANCH  37  38
ATOM     38  N   LIG    1       25.310 -30.769  13.863  0.00  0.00    -0.248 N 
ATOM     39  H   LIG    1       24.338 -30.741  14.175  0.00  0.00    +0.288 HD
ATOM     40  H   LIG    1       25.851 -30.115  14.485  0.00  0.00    +0.288 HD
ENDBRANCH  37  38
BRANCH  36  41
ATOM     41  C   LIG    1       27.471 -29.283  12.767  0.00  0.00    +0.542 C 
ATOM     42  O   LIG    1       28.630 -29.737  12.839  0.00  0.00    -0.198 OA
BRANCH  41  43
ATOM     43  O   LIG    1       27.052 -28.201  13.450  0.00  0.00    -0.429 OA
BRANCH  43  44
ATOM     44  C   LIG    1       26.457 -27.139  12.713  0.00  0.00    +0.236 C 
BRANCH  44  45
ATOM     45  C   LIG    1       25.418 -26.507  13.609  0.00  0.00    +0.041 C 
BRANCH  45  46
ATOM     46  C   LIG    1       24.163 -27.355  13.671  0.00  0.00    +0.003 C 
BRANCH  46  47
ATOM     47  C   LIG    1       22.913 -26.590  13.249  0.00  0.00    -0.000 C 
BRANCH  47  49
ATOM     48  C   LIG    1       20.402 -26.738  13.053  0.00  0.00    +0.004 C 
ATOM     49  C   LIG    1       21.713 -27.500  12.973  0.00  0.00    -0.003 C 
ENDBRANCH  47  49
ENDBRANCH  46  47
ENDBRANCH  45  46
ENDBRANCH  44  45
ENDBRANCH  43  44
ENDBRANCH  41  43
ENDBRANCH  36  41
ENDBRANCH  30  37
ENDBRANCH  28  33
ENDBRANCH  27  28
ENDBRANCH   1  27
TORSDOF 19
ENDMDL
MODEL 2
REMARK VINA RESULT:      -8.0      2.236      3.199
REMARK  Name = *****
REMARK                            x       y       z     vdW  Elec       q    Type
REMARK                         _______ _______ _______ _____ _____    ______ ____
ROOT
ATOM      1  C   LIG    1       24.522 -30.280   6.117  0.00  0.00    +0.128 A 
ATOM      2  N   LIG    1       25.338 -29.811   7.149  0.00  0.00    -0.329 N 
ATOM      3  C   LIG    1       26.178 -30.689   7.915  0.00  0.00    +0.150 C 
ATOM      4  C   LIG    1       25.553 -28.445   6.978  0.00  0.00    +0.069 A 
ATOM      5  C   LIG    1       25.196 -28.245   5.653  0.00  0.00    +0.090 A 
ATOM      6  C   LIG    1       25.084 -26.900   5.175  0.00  0.00    +0.043 A 
ATOM      7  C   LIG    1       25.186 -25.773   5.971  0.00  0.00    +0.039 A 
ATOM      8  C   LIG    1       25.910 -26.026   7.140  0.00  0.00    +0.015 A 
ATOM      9  C   LIG    1       26.105 -27.361   7.658  0.00  0.00    +0.029 A 
ATOM     10  N   LIG    1       24.987 -29.517   5.113  0.00  0.00    -0.231 NA
ENDROOT
BRANCH   7  11
ATOM     11  C   LIG    1       24.913 -24.409   5.326  0.00  0.00    +0.252 C 
ATOM     12  N   LIG    1       24.698 -23.200   6.060  0.00  0.00    -0.252 N 
ATOM     13  O   LIG    1       24.759 -24.458   4.100  0.00  0.00    -0.270 OA
BRANCH  12  14
ATOM     14  C   LIG    1       24.209 -22.030   5.374  0.00  0.00    +0.128 A 
ATOM     15  N   LIG    1       22.938 -21.639   5.675  0.00  0.00    -0.240 NA
ATOM     16  C   LIG    1       22.486 -20.460   5.209  0.00  0.00    +0.113 A 
ATOM     17  C   LIG    1       23.267 -19.590   4.480  0.00  0.00    +0.020 A 
ATOM     18  C   LIG    1       24.584 -19.962   4.222  0.00  0.00    +0.005 A 
ATOM     19  C   LIG    1       25.067 -21.196   4.673  0.00  0.00    +0.044 A 
ENDBRANCH  12  14
BRANCH  12  20
ATOM     20  C   LIG    1       24.937 -22.783   7.468  0.00  0.00    +0.126 C 
BRANCH  20  21
ATOM     21  C   LIG    1       26.284 -22.432   7.965  0.00  0.00    +0.140 C 
BRANCH  21  22
ATOM     22  C   LIG    1       26.295 -21.001   8.382  0.00  0.00    +0.309 C 
ATOM     23  O   LIG    1       25.946 -20.497   9.443  0.00  0.00    -0.251 OA
BRANCH  22  24
ATOM     24  O   LIG    1       26.852 -20.300   7.388  0.00  0.00    -0.465 OA
BRANCH  24  25
ATOM     25  C   LIG    1       28.247 -20.191   7.414  0.00  0.00    +0.228 C 
ATOM     26  C   LIG    1       28.346 -19.806   6.068  0.00  0.00    +0.048 C 
ENDBRANCH  24  25
ENDBRANCH  22  24
ENDBRANCH  21  22
ENDBRANCH  20  21
ENDBRANCH  12  20
ENDBRANCH   7  11
BRANCH   1  27
ATOM     27  C   LIG    1       23.569 -31.647   6.190  0.00  0.00    +0.176 C 
BRANCH  27  28
ATOM     28  N   LIG    1       23.254 -32.673   7.403  0.00  0.00    -0.337 N 
ATOM     29  H   LIG    1       22.575 -33.358   7.034  0.00  0.00    +0.146 HD
BRANCH  28  33
ATOM     30  C   LIG    1       21.110 -31.321  10.915  0.00  0.00    +0.064 A 
ATOM     31  C   LIG    1       22.261 -30.602  10.469  0.00  0.00    +0.017 A 
ATOM     32  C   LIG    1       23.210 -31.176   9.530  0.00  0.00    +0.024 A 
ATOM     33  C   LIG    1       22.939 -32.444   8.862  0.00  0.00    +0.028 A 
ATOM     34  C   LIG    1       21.797 -33.184   9.395  0.00  0.00    +0.024 A 
ATOM     35  C   LIG    1       20.900 -32.601  10.370  0.00  0.00    +0.017 A 
BRANCH  30  37
ATOM     36  N   LIG    1       20.605 -29.912  12.748  0.00  0.00    +0.065 NA
ATOM     37  C   LIG    1       20.040 -30.661  11.786  0.00  0.00    +0.314 C 
BRANCH  37  38
ATOM     38  N   LIG    1       18.731 -30.827  11.520  0.00  0.00    -0.248 N 
ATOM     39  H   LIG    1       18.435 -30.860  10.543  0.00  0.00    +0.288 HD
ATOM     40  H   LIG    1       18.107 -30.134  12.006  0.00  0.00    +0.288 HD
ENDBRANCH  37  38
BRANCH  36  41
ATOM     41  C   LIG    1       19.804 -29.318  13.677  0.00  0.00    +0.542 C 
ATOM     42  O   LIG    1       18.831 -29.919  14.173  0.00  0.00    -0.198 OA
BRANCH  41  43
ATOM     43  O   LIG    1       20.142 -28.056  14.001  0.00  0.00    -0.429 OA
BRANCH  43  44
ATOM     44  C   LIG    1       20.620 -27.208  12.962  0.00  0.00    +0.236 C 
BRANCH  44  45
ATOM     45  C   LIG    1       21.870 -26.538  13.478  0.00  0.00    +0.041 C 
BRANCH  45  46
ATOM     46  C   LIG    1       23.101 -27.370  13.173  0.00  0.00    +0.003 C 
BRANCH  46  47
ATOM     47  C   LIG    1       24.311 -26.959  14.004  0.00  0.00    -0.000 C 
BRANCH  47  49
ATOM     48  C   LIG    1       26.231 -25.544  13.180  0.00  0.00    +0.004 C 
ATOM     49  C   LIG    1       24.803 -25.543  13.696  0.00  0.00    -0.003 C 
ENDBRANCH  47  49
ENDBRANCH  46  47
ENDBRANCH  45  46
ENDBRANCH  44  45
ENDBRANCH  43  44
ENDBRANCH  41  43
ENDBRANCH  36  41
ENDBRANCH  30  37
ENDBRANCH  28  33
ENDBRANCH  27  28
ENDBRANCH   1  27
TORSDOF 19
ENDMDL
MODEL 3
REMARK VINA RESULT:      -7.8      3.122     10.339
REMARK  Name = *****
REMARK                            x       y       z     vdW  Elec       q    Type
REMARK                         _______ _______ _______ _____ _____    ______ ____
ROOT
ATOM      1  C   LIG    1       24.746 -26.663   6.430  0.00  0.00    +0.128 A 
ATOM      2  N   LIG    1       24.412 -28.002   6.218  0.00  0.00    -0.329 N 
ATOM      3  C   LIG    1       23.978 -28.486   4.938  0.00  0.00    +0.150 C 
ATOM      4  C   LIG    1       24.998 -28.783   7.212  0.00  0.00    +0.069 A 
ATOM      5  C   LIG    1       25.971 -27.938   7.727  0.00  0.00    +0.090 A 
ATOM      6  C   LIG    1       26.644 -28.330   8.929  0.00  0.00    +0.043 A 
ATOM      7  C   LIG    1       26.312 -29.437   9.690  0.00  0.00    +0.039 A 
ATOM      8  C   LIG    1       25.639 -30.404   8.935  0.00  0.00    +0.015 A 
ATOM      9  C   LIG    1       24.977 -30.092   7.690  0.00  0.00    +0.029 A 
ATOM     10  N   LIG    1       26.001 -26.825   6.884  0.00  0.00    -0.231 NA
ENDROOT
BRANCH   7  11
ATOM     11  C   LIG    1       27.048 -29.645  11.018  0.00  0.00    +0.252 C 
ATOM     12  N   LIG    1       26.425 -29.573  12.304  0.00  0.00    -0.252 N 
ATOM     13  O   LIG    1       28.274 -29.751  10.899  0.00  0.00    -0.270 OA
BRANCH  12  14
ATOM     14  C   LIG    1       27.244 -29.539  13.490  0.00  0.00    +0.128 A 
ATOM     15  N   LIG    1       27.561 -30.745  14.040  0.00  0.00    -0.240 NA
ATOM     16  C   LIG    1       28.465 -30.795  15.037  0.00  0.00    +0.113 A 
ATOM     17  C   LIG    1       29.135 -29.684  15.500  0.00  0.00    +0.020 A 
ATOM     18  C   LIG    1       28.854 -28.460  14.899  0.00  0.00    +0.005 A 
ATOM     19  C   LIG    1       27.899 -28.380  13.879  0.00  0.00    +0.044 A 
ENDBRANCH  12  14
BRANCH  12  20
ATOM     20  C   LIG    1       25.014 -29.596  12.777  0.00  0.00    +0.126 C 
BRANCH  20  21
ATOM     21  C   LIG    1       23.956 -28.788  12.136  0.00  0.00    +0.140 C 
BRANCH  21  22
ATOM     22  C   LIG    1       23.565 -27.678  13.050  0.00  0.00    +0.309 C 
ATOM     23  O   LIG    1       22.458 -27.195  13.258  0.00  0.00    -0.251 OA
BRANCH  22  24
ATOM     24  O   LIG    1       24.663 -27.305  13.718  0.00  0.00    -0.465 OA
BRANCH  24  25
ATOM     25  C   LIG    1       24.552 -26.144  14.492  0.00  0.00    +0.228 C 
ATOM     26  C   LIG    1       25.430 -25.399  13.690  0.00  0.00    +0.048 C 
ENDBRANCH  24  25
ENDBRANCH  22  24
ENDBRANCH  21  22
ENDBRANCH  20  21
ENDBRANCH  12  20
ENDBRANCH   7  11
BRANCH   1  27
ATOM     27  C   LIG    1       23.874 -25.355   5.875  0.00  0.00    +0.176 C 
BRANCH  27  28
ATOM     28  N   LIG    1       23.510 -23.935   6.565  0.00  0.00    -0.337 N 
ATOM     29  H   LIG    1       22.763 -23.515   5.988  0.00  0.00    +0.146 HD
BRANCH  28  33
ATOM     30  C   LIG    1       26.635 -20.937   6.648  0.00  0.00    +0.064 A 
ATOM     31  C   LIG    1       26.817 -22.168   7.349  0.00  0.00    +0.017 A 
ATOM     32  C   LIG    1       25.706 -23.056   7.647  0.00  0.00    +0.024 A 
ATOM     33  C   LIG    1       24.378 -22.817   7.092  0.00  0.00    +0.028 A 
ATOM     34  C   LIG    1       24.211 -21.517   6.445  0.00  0.00    +0.024 A 
ATOM     35  C   LIG    1       25.332 -20.634   6.210  0.00  0.00    +0.017 A 
BRANCH  30  37
ATOM     36  N   LIG    1       28.734 -19.990   7.192  0.00  0.00    +0.065 NA
ATOM     37  C   LIG    1       27.823 -20.080   6.209  0.00  0.00    +0.314 C 
BRANCH  37  38
ATOM     38  N   LIG    1       27.884 -19.566   4.966  0.00  0.00    -0.248 N 
ATOM     39  H   LIG    1       28.160 -20.181   4.199  0.00  0.00    +0.288 HD
ATOM     40  H   LIG    1       28.476 -18.700   4.893  0.00  0.00    +0.288 HD
ENDBRANCH  37  38
BRANCH  36  41
ATOM     41  C   LIG    1       29.823 -19.191   7.011  0.00  0.00    +0.542 C 
ATOM     42  O   LIG    1       29.735 -18.102   6.411  0.00  0.00    -0.198 OA
BRANCH  41  43
ATOM     43  O   LIG    1       30.974 -19.668   7.520  0.00  0.00    -0.429 OA
BRANCH  43  44
ATOM     44  C   LIG    1       31.315 -19.302   8.852  0.00  0.00    +0.236 C 
BRANCH  44  45
ATOM     45  C   LIG    1       31.845 -17.889   8.801  0.00  0.00    +0.041 C 
BRANCH  45  46
ATOM     46  C   LIG    1       31.290 -17.057   9.940  0.00  0.00    +0.003 C 
BRANCH  46  47
ATOM     47  C   LIG    1       32.383 -16.434  10.803  0.00  0.00    -0.000 C 
BRANCH  47  49
ATOM     48  C   LIG    1       32.100 -15.801  13.229  0.00  0.00    +0.004 C 
ATOM     49  C   LIG    1       32.366 -16.932  12.250  0.00  0.00    -0.003 C 
ENDBRANCH  47  49
ENDBRANCH  46  47
ENDBRANCH  45  46
ENDBRANCH  44  45
ENDBRANCH  43  44
ENDBRANCH  41  43
ENDBRANCH  36  41
ENDBRANCH  30  37
ENDBRANCH  28  33
ENDBRANCH  27  28
ENDBRANCH   1  27
TORSDOF 19
ENDMDL
MODEL 4
REMARK VINA RESULT:      -7.7      1.484      2.462
REMARK  Name = *****
REMARK                            x       y       z     vdW  Elec       q    Type
REMARK                         _______ _______ _______ _____ _____    ______ ____
ROOT
ATOM      1  C   LIG    1       24.360 -30.099   6.738  0.00  0.00    +0.128 A 
ATOM      2  N   LIG    1       25.351 -29.608   7.590  0.00  0.00    -0.329 N 
ATOM      3  C   LIG    1       26.262 -30.478   8.279  0.00  0.00    +0.150 C 
ATOM      4  C   LIG    1       25.598 -28.272   7.283  0.00  0.00    +0.069 A 
ATOM      5  C   LIG    1       25.042 -28.143   6.018  0.00  0.00    +0.090 A 
ATOM      6  C   LIG    1       24.916 -26.830   5.462  0.00  0.00    +0.043 A 
ATOM      7  C   LIG    1       25.195 -25.659   6.143  0.00  0.00    +0.039 A 
ATOM      8  C   LIG    1       26.086 -25.871   7.200  0.00  0.00    +0.015 A 
ATOM      9  C   LIG    1       26.301 -27.177   7.782  0.00  0.00    +0.029 A 
ATOM     10  N   LIG    1       24.692 -29.435   5.617  0.00  0.00    -0.231 NA
ENDROOT
BRANCH   7  11
ATOM     11  C   LIG    1       24.885 -24.329   5.446  0.00  0.00    +0.252 C 
ATOM     12  N   LIG    1       24.595 -23.108   6.134  0.00  0.00    -0.252 N 
ATOM     13  O   LIG    1       24.772 -24.423   4.219  0.00  0.00    -0.270 OA
BRANCH  12  14
ATOM     14  C   LIG    1       24.078 -21.982   5.396  0.00  0.00    +0.128 A 
ATOM     15  N   LIG    1       22.891 -21.470   5.827  0.00  0.00    -0.240 NA
ATOM     16  C   LIG    1       22.443 -20.315   5.299  0.00  0.00    +0.113 A 
ATOM     17  C   LIG    1       23.157 -19.586   4.374  0.00  0.00    +0.020 A 
ATOM     18  C   LIG    1       24.397 -20.079   3.976  0.00  0.00    +0.005 A 
ATOM     19  C   LIG    1       24.869 -21.291   4.491  0.00  0.00    +0.044 A 
ENDBRANCH  12  14
BRANCH  12  20
ATOM     20  C   LIG    1       24.772 -22.638   7.534  0.00  0.00    +0.126 C 
BRANCH  20  21
ATOM     21  C   LIG    1       26.104 -22.342   8.102  0.00  0.00    +0.140 C 
BRANCH  21  22
ATOM     22  C   LIG    1       26.184 -20.891   8.436  0.00  0.00    +0.309 C 
ATOM     23  O   LIG    1       25.963 -20.325   9.500  0.00  0.00    -0.251 OA
BRANCH  22  24
ATOM     24  O   LIG    1       26.637 -20.256   7.350  0.00  0.00    -0.465 OA
BRANCH  24  25
ATOM     25  C   LIG    1       28.016 -20.332   7.118  0.00  0.00    +0.228 C 
ATOM     26  C   LIG    1       27.921 -19.914   5.782  0.00  0.00    +0.048 C 
ENDBRANCH  24  25
ENDBRANCH  22  24
ENDBRANCH  21  22
ENDBRANCH  20  21
ENDBRANCH  12  20
ENDBRANCH   7  11
BRANCH   1  27
ATOM     27  C   LIG    1       23.370 -31.401   7.064  0.00  0.00    +0.176 C 
BRANCH  27  28
ATOM     28  N   LIG    1       23.313 -32.418   8.324  0.00  0.00    -0.337 N 
ATOM     29  H   LIG    1       22.758 -33.233   8.014  0.00  0.00    +0.146 HD
BRANCH  28  33
ATOM     30  C   LIG    1       22.996 -30.334  12.108  0.00  0.00    +0.064 A 
ATOM     31  C   LIG    1       24.097 -31.215  11.875  0.00  0.00    +0.017 A 
ATOM     32  C   LIG    1       24.089 -32.188  10.795  0.00  0.00    +0.024 A 
ATOM     33  C   LIG    1       23.032 -32.193   9.790  0.00  0.00    +0.028 A 
ATOM     34  C   LIG    1       21.890 -31.334  10.099  0.00  0.00    +0.024 A 
ATOM     35  C   LIG    1       21.911 -30.413  11.215  0.00  0.00    +0.017 A 
BRANCH  30  37
ATOM     36  N   LIG    1       22.395 -28.133  12.730  0.00  0.00    +0.065 NA
ATOM     37  C   LIG    1       23.069 -29.217  13.149  0.00  0.00    +0.314 C 
BRANCH  37  38
ATOM     38  N   LIG    1       23.705 -29.402  14.320  0.00  0.00    -0.248 N 
ATOM     39  H   LIG    1       24.680 -29.107  14.395  0.00  0.00    +0.288 HD
ATOM     40  H   LIG    1       23.655 -30.390  14.679  0.00  0.00    +0.288 HD
ENDBRANCH  37  38
BRANCH  36  41
ATOM     41  C   LIG    1       22.425 -27.003  13.492  0.00  0.00    +0.542 C 
ATOM     42  O   LIG    1       21.586 -26.805  14.392  0.00  0.00    -0.198 OA
BRANCH  41  43
ATOM     43  O   LIG    1       23.413 -26.138  13.194  0.00  0.00    -0.429 OA
BRANCH  43  44
ATOM     44  C   LIG    1       24.493 -26.018  14.112  0.00  0.00    +0.236 C 
BRANCH  44  45
ATOM     45  C   LIG    1       25.541 -25.154  13.453  0.00  0.00    +0.041 C 
BRANCH  45  46
ATOM     46  C   LIG    1       26.738 -25.979  13.023  0.00  0.00    +0.003 C 
BRANCH  46  47
ATOM     47  C   LIG    1       26.419 -27.465  12.908  0.00  0.00    -0.000 C 
BRANCH  47  49
ATOM     48  C   LIG    1       27.654 -28.966  11.299  0.00  0.00    +0.004 C 
ATOM     49  C   LIG    1       26.502 -27.992  11.473  0.00  0.00    -0.003 C 
ENDBRANCH  47  49
ENDBRANCH  46  47
ENDBRANCH  45  46
ENDBRANCH  44  45
ENDBRANCH  43  44
ENDBRANCH  41  43
ENDBRANCH  36  41
ENDBRANCH  30  37
ENDBRANCH  28  33
ENDBRANCH  27  28
ENDBRANCH   1  27
TORSDOF 19
ENDMDL
MODEL 5
REMARK VINA RESULT:      -7.6      3.332     10.141
REMARK  Name = *****
REMARK                            x       y       z     vdW  Elec       q    Type
REMARK                         _______ _______ _______ _____ _____    ______ ____
ROOT
ATOM      1  C   LIG    1       25.203 -26.332   6.488  0.00  0.00    +0.128 A 
ATOM      2  N   LIG    1       24.658 -27.581   6.180  0.00  0.00    -0.329 N 
ATOM      3  C   LIG    1       24.308 -27.950   4.837  0.00  0.00    +0.150 C 
ATOM      4  C   LIG    1       24.962 -28.477   7.203  0.00  0.00    +0.069 A 
ATOM      5  C   LIG    1       26.000 -27.840   7.866  0.00  0.00    +0.090 A 
ATOM      6  C   LIG    1       26.434 -28.375   9.122  0.00  0.00    +0.043 A 
ATOM      7  C   LIG    1       25.812 -29.415   9.789  0.00  0.00    +0.039 A 
ATOM      8  C   LIG    1       25.074 -30.224   8.918  0.00  0.00    +0.015 A 
ATOM      9  C   LIG    1       24.642 -29.769   7.617  0.00  0.00    +0.029 A 
ATOM     10  N   LIG    1       26.339 -26.735   7.082  0.00  0.00    -0.231 NA
ENDROOT
BRANCH   7  11
ATOM     11  C   LIG    1       26.325 -29.783  11.186  0.00  0.00    +0.252 C 
ATOM     12  N   LIG    1       26.675 -28.828  12.192  0.00  0.00    -0.252 N 
ATOM     13  O   LIG    1       26.543 -30.991  11.336  0.00  0.00    -0.270 OA
BRANCH  12  14
ATOM     14  C   LIG    1       27.375 -29.267  13.375  0.00  0.00    +0.128 A 
ATOM     15  N   LIG    1       26.625 -29.903  14.319  0.00  0.00    -0.240 NA
ATOM     16  C   LIG    1       27.242 -30.493  15.360  0.00  0.00    +0.113 A 
ATOM     17  C   LIG    1       28.612 -30.536  15.494  0.00  0.00    +0.020 A 
ATOM     18  C   LIG    1       29.381 -29.937  14.500  0.00  0.00    +0.005 A 
ATOM     19  C   LIG    1       28.760 -29.294  13.423  0.00  0.00    +0.044 A 
ENDBRANCH  12  14
BRANCH  12  20
ATOM     20  C   LIG    1       26.418 -27.375  12.380  0.00  0.00    +0.126 C 
BRANCH  20  21
ATOM     21  C   LIG    1       25.993 -26.813  13.679  0.00  0.00    +0.140 C 
BRANCH  21  22
ATOM     22  C   LIG    1       27.032 -25.860  14.164  0.00  0.00    +0.309 C 
ATOM     23  O   LIG    1       28.126 -26.090  14.666  0.00  0.00    -0.251 OA
BRANCH  22  24
ATOM     24  O   LIG    1       26.601 -24.624  13.885  0.00  0.00    -0.465 OA
BRANCH  24  25
ATOM     25  C   LIG    1       25.319 -24.299  14.343  0.00  0.00    +0.228 C 
ATOM     26  C   LIG    1       25.759 -23.219  15.125  0.00  0.00    +0.048 C 
ENDBRANCH  24  25
ENDBRANCH  22  24
ENDBRANCH  21  22
ENDBRANCH  20  21
ENDBRANCH  12  20
ENDBRANCH   7  11
BRANCH   1  27
ATOM     27  C   LIG    1       24.661 -24.874   5.889  0.00  0.00    +0.176 C 
BRANCH  27  28
ATOM     28  N   LIG    1       24.113 -23.543   6.634  0.00  0.00    -0.337 N 
ATOM     29  H   LIG    1       23.245 -23.273   6.143  0.00  0.00    +0.146 HD
BRANCH  28  33
ATOM     30  C   LIG    1       27.336 -20.750   7.394  0.00  0.00    +0.064 A 
ATOM     31  C   LIG    1       26.783 -21.505   8.475  0.00  0.00    +0.017 A 
ATOM     32  C   LIG    1       25.505 -22.187   8.363  0.00  0.00    +0.024 A 
ATOM     33  C   LIG    1       24.808 -22.280   7.085  0.00  0.00    +0.028 A 
ATOM     34  C   LIG    1       25.360 -21.440   6.024  0.00  0.00    +0.024 A 
ATOM     35  C   LIG    1       26.611 -20.731   6.188  0.00  0.00    +0.017 A 
BRANCH  30  37
ATOM     36  N   LIG    1       29.470 -20.773   8.414  0.00  0.00    +0.065 NA
ATOM     37  C   LIG    1       28.744 -20.159   7.466  0.00  0.00    +0.314 C 
BRANCH  37  38
ATOM     38  N   LIG    1       29.130 -19.187   6.618  0.00  0.00    -0.248 N 
ATOM     39  H   LIG    1       30.129 -18.999   6.518  0.00  0.00    +0.288 HD
ATOM     40  H   LIG    1       28.660 -18.262   6.789  0.00  0.00    +0.288 HD
ENDBRANCH  37  38
BRANCH  36  41
ATOM     41  C   LIG    1       30.726 -20.316   8.682  0.00  0.00    +0.542 C 
ATOM     42  O   LIG    1       31.735 -20.993   8.402  0.00  0.00    -0.198 OA
BRANCH  41  43
ATOM     43  O   LIG    1       30.782 -19.105   9.265  0.00  0.00    -0.429 OA
BRANCH  43  44
ATOM     44  C   LIG    1       31.788 -18.200   8.823  0.00  0.00    +0.236 C 
BRANCH  44  45
ATOM     45  C   LIG    1       31.446 -16.844   9.394  0.00  0.00    +0.041 C 
BRANCH  45  46
ATOM     46  C   LIG    1       30.530 -16.973  10.596  0.00  0.00    +0.003 C 
BRANCH  46  47
ATOM     47  C   LIG    1       31.288 -17.265  11.886  0.00  0.00    -0.000 C 
BRANCH  47  49
ATOM     48  C   LIG    1       32.487 -15.757  13.515  0.00  0.00    +0.004 C 
ATOM     49  C   LIG    1       32.482 -16.333  12.110  0.00  0.00    -0.003 C 
ENDBRANCH  47  49
ENDBRANCH  46  47
ENDBRANCH  45  46
ENDBRANCH  44  45
ENDBRANCH  43  44
ENDBRANCH  41  43
ENDBRANCH  36  41
ENDBRANCH  30  37
ENDBRANCH  28  33
ENDBRANCH  27  28
ENDBRANCH   1  27
TORSDOF 19
ENDMDL
MODEL 6
REMARK VINA RESULT:      -7.5      2.744      3.776
REMARK  Name = *****
REMARK                            x       y       z     vdW  Elec       q    Type
REMARK                         _______ _______ _______ _____ _____    ______ ____
ROOT
ATOM      1  C   LIG    1       24.547 -30.235   6.312  0.00  0.00    +0.128 A 
ATOM      2  N   LIG    1       25.378 -29.736   7.317  0.00  0.00    -0.329 N 
ATOM      3  C   LIG    1       26.229 -30.591   8.095  0.00  0.00    +0.150 C 
ATOM      4  C   LIG    1       25.589 -28.376   7.104  0.00  0.00    +0.069 A 
ATOM      5  C   LIG    1       25.212 -28.214   5.779  0.00  0.00    +0.090 A 
ATOM      6  C   LIG    1       25.093 -26.884   5.264  0.00  0.00    +0.043 A 
ATOM      7  C   LIG    1       25.205 -25.734   6.025  0.00  0.00    +0.039 A 
ATOM      8  C   LIG    1       25.947 -25.953   7.191  0.00  0.00    +0.015 A 
ATOM      9  C   LIG    1       26.150 -27.272   7.743  0.00  0.00    +0.029 A 
ATOM     10  N   LIG    1       24.997 -29.501   5.279  0.00  0.00    -0.231 NA
ENDROOT
BRANCH   7  11
ATOM     11  C   LIG    1       24.922 -24.389   5.345  0.00  0.00    +0.252 C 
ATOM     12  N   LIG    1       24.712 -23.160   6.048  0.00  0.00    -0.252 N 
ATOM     13  O   LIG    1       24.754 -24.473   4.124  0.00  0.00    -0.270 OA
BRANCH  12  14
ATOM     14  C   LIG    1       24.213 -22.011   5.335  0.00  0.00    +0.128 A 
ATOM     15  N   LIG    1       22.947 -21.611   5.643  0.00  0.00    -0.240 NA
ATOM     16  C   LIG    1       22.487 -20.446   5.150  0.00  0.00    +0.113 A 
ATOM     17  C   LIG    1       23.257 -19.599   4.383  0.00  0.00    +0.020 A 
ATOM     18  C   LIG    1       24.570 -19.979   4.116  0.00  0.00    +0.005 A 
ATOM     19  C   LIG    1       25.060 -21.199   4.596  0.00  0.00    +0.044 A 
ENDBRANCH  12  14
BRANCH  12  20
ATOM     20  C   LIG    1       24.967 -22.704   7.441  0.00  0.00    +0.126 C 
BRANCH  20  21
ATOM     21  C   LIG    1       26.322 -22.360   7.920  0.00  0.00    +0.140 C 
BRANCH  21  22
ATOM     22  C   LIG    1       26.345 -20.930   8.342  0.00  0.00    +0.309 C 
ATOM     23  O   LIG    1       25.963 -20.422   9.388  0.00  0.00    -0.251 OA
BRANCH  22  24
ATOM     24  O   LIG    1       26.957 -20.239   7.374  0.00  0.00    -0.465 OA
BRANCH  24  25
ATOM     25  C   LIG    1       28.124 -20.809   6.850  0.00  0.00    +0.228 C 
ATOM     26  C   LIG    1       28.526 -19.636   6.192  0.00  0.00    +0.048 C 
ENDBRANCH  24  25
ENDBRANCH  22  24
ENDBRANCH  21  22
ENDBRANCH  20  21
ENDBRANCH  12  20
ENDBRANCH   7  11
BRANCH   1  27
ATOM     27  C   LIG    1       23.597 -31.599   6.438  0.00  0.00    +0.176 C 
BRANCH  27  28
ATOM     28  N   LIG    1       23.223 -32.535   7.706  0.00  0.00    -0.337 N 
ATOM     29  H   LIG    1       22.403 -33.095   7.422  0.00  0.00    +0.146 HD
BRANCH  28  33
ATOM     30  C   LIG    1       21.335 -31.819  11.538  0.00  0.00    +0.064 A 
ATOM     31  C   LIG    1       21.838 -30.717  10.780  0.00  0.00    +0.017 A 
ATOM     32  C   LIG    1       22.767 -30.901   9.678  0.00  0.00    +0.024 A 
ATOM     33  C   LIG    1       23.094 -32.233   9.180  0.00  0.00    +0.028 A 
ATOM     34  C   LIG    1       22.624 -33.332  10.021  0.00  0.00    +0.024 A 
ATOM     35  C   LIG    1       21.740 -33.107  11.144  0.00  0.00    +0.017 A 
BRANCH  30  37
ATOM     36  N   LIG    1       19.154 -31.067  12.063  0.00  0.00    +0.065 NA
ATOM     37  C   LIG    1       20.248 -31.634  12.598  0.00  0.00    +0.314 C 
BRANCH  37  38
ATOM     38  N   LIG    1       20.435 -32.057  13.861  0.00  0.00    -0.248 N 
ATOM     39  H   LIG    1       20.564 -33.057  14.025  0.00  0.00    +0.288 HD
ATOM     40  H   LIG    1       19.695 -31.730  14.533  0.00  0.00    +0.288 HD
ENDBRANCH  37  38
BRANCH  36  41
ATOM     41  C   LIG    1       18.113 -30.744  12.880  0.00  0.00    +0.542 C 
ATOM     42  O   LIG    1       16.979 -31.233  12.710  0.00  0.00    -0.198 OA
BRANCH  41  43
ATOM     43  O   LIG    1       18.405 -29.868  13.860  0.00  0.00    -0.429 OA
BRANCH  43  44
ATOM     44  C   LIG    1       17.371 -28.998  14.306  0.00  0.00    +0.236 C 
BRANCH  44  45
ATOM     45  C   LIG    1       18.027 -27.910  15.120  0.00  0.00    +0.041 C 
BRANCH  45  46
ATOM     46  C   LIG    1       18.744 -26.916  14.227  0.00  0.00    +0.003 C 
BRANCH  46  47
ATOM     47  C   LIG    1       20.252 -26.901  14.453  0.00  0.00    -0.000 C 
BRANCH  47  49
ATOM     48  C   LIG    1       22.421 -26.553  13.213  0.00  0.00    +0.004 C 
ATOM     49  C   LIG    1       21.056 -27.216  13.190  0.00  0.00    -0.003 C 
ENDBRANCH  47  49
ENDBRANCH  46  47
ENDBRANCH  45  46
ENDBRANCH  44  45
ENDBRANCH  43  44
ENDBRANCH  41  43
ENDBRANCH  36  41
ENDBRANCH  30  37
ENDBRANCH  28  33
ENDBRANCH  27  28
ENDBRANCH   1  27
TORSDOF 19
ENDMDL
MODEL 7
REMARK VINA RESULT:      -7.5      3.249      4.294
REMARK  Name = *****
REMARK                            x       y       z     vdW  Elec       q    Type
REMARK                         _______ _______ _______ _____ _____    ______ ____
ROOT
ATOM      1  C   LIG    1       24.089 -29.624   8.358  0.00  0.00    +0.128 A 
ATOM      2  N   LIG    1       25.473 -29.501   8.218  0.00  0.00    -0.329 N 
ATOM      3  C   LIG    1       26.358 -30.619   8.388  0.00  0.00    +0.150 C 
ATOM      4  C   LIG    1       25.758 -28.362   7.469  0.00  0.00    +0.069 A 
ATOM      5  C   LIG    1       24.542 -28.084   6.863  0.00  0.00    +0.090 A 
ATOM      6  C   LIG    1       24.395 -26.838   6.173  0.00  0.00    +0.043 A 
ATOM      7  C   LIG    1       25.340 -25.827   6.168  0.00  0.00    +0.039 A 
ATOM      8  C   LIG    1       26.624 -26.314   6.436  0.00  0.00    +0.015 A 
ATOM      9  C   LIG    1       26.850 -27.584   7.086  0.00  0.00    +0.029 A 
ATOM     10  N   LIG    1       23.711 -29.170   7.150  0.00  0.00    -0.231 NA
ENDROOT
BRANCH   7  11
ATOM     11  C   LIG    1       24.974 -24.503   5.487  0.00  0.00    +0.252 C 
ATOM     12  N   LIG    1       24.780 -23.268   6.182  0.00  0.00    -0.252 N 
ATOM     13  O   LIG    1       24.724 -24.614   4.282  0.00  0.00    -0.270 OA
BRANCH  12  14
ATOM     14  C   LIG    1       24.202 -22.144   5.487  0.00  0.00    +0.128 A 
ATOM     15  N   LIG    1       22.910 -21.841   5.798  0.00  0.00    -0.240 NA
ATOM     16  C   LIG    1       22.370 -20.703   5.323  0.00  0.00    +0.113 A 
ATOM     17  C   LIG    1       23.079 -19.791   4.573  0.00  0.00    +0.020 A 
ATOM     18  C   LIG    1       24.416 -20.072   4.303  0.00  0.00    +0.005 A 
ATOM     19  C   LIG    1       24.991 -21.262   4.764  0.00  0.00    +0.044 A 
ENDBRANCH  12  14
BRANCH  12  20
ATOM     20  C   LIG    1       25.118 -22.779   7.547  0.00  0.00    +0.126 C 
BRANCH  20  21
ATOM     21  C   LIG    1       26.476 -22.318   7.902  0.00  0.00    +0.140 C 
BRANCH  21  22
ATOM     22  C   LIG    1       26.410 -20.898   8.353  0.00  0.00    +0.309 C 
ATOM     23  O   LIG    1       25.958 -20.432   9.392  0.00  0.00    -0.251 OA
BRANCH  22  24
ATOM     24  O   LIG    1       27.026 -20.156   7.426  0.00  0.00    -0.465 OA
BRANCH  24  25
ATOM     25  C   LIG    1       28.203 -20.690   6.888  0.00  0.00    +0.228 C 
ATOM     26  C   LIG    1       28.302 -19.725   5.874  0.00  0.00    +0.048 C 
ENDBRANCH  24  25
ENDBRANCH  22  24
ENDBRANCH  21  22
ENDBRANCH  20  21
ENDBRANCH  12  20
ENDBRANCH   7  11
BRANCH   1  27
ATOM     27  C   LIG    1       23.316 -30.457   9.578  0.00  0.00    +0.176 C 
BRANCH  27  28
ATOM     28  N   LIG    1       22.308 -31.725   9.542  0.00  0.00    -0.337 N 
ATOM     29  H   LIG    1       21.938 -31.774   8.578  0.00  0.00    +0.146 HD
BRANCH  28  33
ATOM     30  C   LIG    1       19.424 -31.548  12.768  0.00  0.00    +0.064 A 
ATOM     31  C   LIG    1       20.655 -32.249  12.957  0.00  0.00    +0.017 A 
ATOM     32  C   LIG    1       21.499 -32.636  11.839  0.00  0.00    +0.024 A 
ATOM     33  C   LIG    1       21.218 -32.175  10.485  0.00  0.00    +0.028 A 
ATOM     34  C   LIG    1       19.919 -31.527  10.316  0.00  0.00    +0.024 A 
ATOM     35  C   LIG    1       19.078 -31.202  11.449  0.00  0.00    +0.017 A 
BRANCH  30  37
ATOM     36  N   LIG    1       17.879 -29.953  13.584  0.00  0.00    +0.065 NA
ATOM     37  C   LIG    1       18.615 -31.015  13.951  0.00  0.00    +0.314 C 
BRANCH  37  38
ATOM     38  N   LIG    1       18.660 -31.623  15.150  0.00  0.00    -0.248 N 
ATOM     39  H   LIG    1       17.995 -31.331  15.869  0.00  0.00    +0.288 HD
ATOM     40  H   LIG    1       19.614 -31.617  15.595  0.00  0.00    +0.288 HD
ENDBRANCH  37  38
BRANCH  36  41
ATOM     41  C   LIG    1       17.159 -29.290  14.532  0.00  0.00    +0.542 C 
ATOM     42  O   LIG    1       16.097 -29.758  14.985  0.00  0.00    -0.198 OA
BRANCH  41  43
ATOM     43  O   LIG    1       17.679 -28.112  14.925  0.00  0.00    -0.429 OA
BRANCH  43  44
ATOM     44  C   LIG    1       17.090 -26.921  14.416  0.00  0.00    +0.236 C 
BRANCH  44  45
ATOM     45  C   LIG    1       18.214 -26.050  13.912  0.00  0.00    +0.041 C 
BRANCH  45  46
ATOM     46  C   LIG    1       19.560 -26.709  14.142  0.00  0.00    +0.003 C 
BRANCH  46  47
ATOM     47  C   LIG    1       20.413 -26.766  12.879  0.00  0.00    -0.000 C 
BRANCH  47  49
ATOM     48  C   LIG    1       22.847 -26.394  13.432  0.00  0.00    +0.004 C 
ATOM     49  C   LIG    1       21.778 -27.421  13.102  0.00  0.00    -0.003 C 
ENDBRANCH  47  49
ENDBRANCH  46  47
ENDBRANCH  45  46
ENDBRANCH  44  45
ENDBRANCH  43  44
ENDBRANCH  41  43
ENDBRANCH  36  41
ENDBRANCH  30  37
ENDBRANCH  28  33
ENDBRANCH  27  28
ENDBRANCH   1  27
TORSDOF 19
ENDMDL
MODEL 8
REMARK VINA RESULT:      -7.3      3.060      4.326
REMARK  Name = *****
REMARK                            x       y       z     vdW  Elec       q    Type
REMARK                         _______ _______ _______ _____ _____    ______ ____
ROOT
ATOM      1  C   LIG    1       24.156 -30.756   7.712  0.00  0.00    +0.128 A 
ATOM      2  N   LIG    1       25.380 -30.273   8.178  0.00  0.00    -0.329 N 
ATOM      3  C   LIG    1       26.444 -31.152   8.578  0.00  0.00    +0.150 C 
ATOM      4  C   LIG    1       25.547 -28.958   7.749  0.00  0.00    +0.069 A 
ATOM      5  C   LIG    1       24.617 -28.853   6.725  0.00  0.00    +0.090 A 
ATOM      6  C   LIG    1       24.351 -27.556   6.180  0.00  0.00    +0.043 A 
ATOM      7  C   LIG    1       24.863 -26.373   6.682  0.00  0.00    +0.039 A 
ATOM      8  C   LIG    1       26.041 -26.582   7.407  0.00  0.00    +0.015 A 
ATOM      9  C   LIG    1       26.400 -27.873   7.947  0.00  0.00    +0.029 A 
ATOM     10  N   LIG    1       24.126 -30.143   6.516  0.00  0.00    -0.231 NA
ENDROOT
BRANCH   7  11
ATOM     11  C   LIG    1       24.377 -25.057   6.063  0.00  0.00    +0.252 C 
ATOM     12  N   LIG    1       24.968 -23.780   6.320  0.00  0.00    -0.252 N 
ATOM     13  O   LIG    1       23.331 -25.168   5.414  0.00  0.00    -0.270 OA
BRANCH  12  14
ATOM     14  C   LIG    1       24.289 -22.583   5.886  0.00  0.00    +0.128 A 
ATOM     15  N   LIG    1       23.440 -22.011   6.785  0.00  0.00    -0.240 NA
ATOM     16  C   LIG    1       22.914 -20.801   6.514  0.00  0.00    +0.113 A 
ATOM     17  C   LIG    1       23.236 -20.078   5.387  0.00  0.00    +0.020 A 
ATOM     18  C   LIG    1       24.149 -20.636   4.496  0.00  0.00    +0.005 A 
ATOM     19  C   LIG    1       24.687 -21.905   4.744  0.00  0.00    +0.044 A 
ENDBRANCH  12  14
BRANCH  12  20
ATOM     20  C   LIG    1       26.256 -23.332   6.913  0.00  0.00    +0.126 C 
BRANCH  20  21
ATOM     21  C   LIG    1       26.324 -22.658   8.227  0.00  0.00    +0.140 C 
BRANCH  21  22
ATOM     22  C   LIG    1       26.843 -21.272   8.041  0.00  0.00    +0.309 C 
ATOM     23  O   LIG    1       26.268 -20.277   7.618  0.00  0.00    -0.251 OA
BRANCH  22  24
ATOM     24  O   LIG    1       28.097 -21.250   8.506  0.00  0.00    -0.465 OA
BRANCH  24  25
ATOM     25  C   LIG    1       29.106 -21.054   7.556  0.00  0.00    +0.228 C 
ATOM     26  C   LIG    1       30.138 -21.466   8.413  0.00  0.00    +0.048 C 
ENDBRANCH  24  25
ENDBRANCH  22  24
ENDBRANCH  21  22
ENDBRANCH  20  21
ENDBRANCH  12  20
ENDBRANCH   7  11
BRANCH   1  27
ATOM     27  C   LIG    1       23.293 -32.008   8.396  0.00  0.00    +0.176 C 
BRANCH  27  28
ATOM     28  N   LIG    1       22.281 -32.051   9.661  0.00  0.00    -0.337 N 
ATOM     29  H   LIG    1       21.327 -31.975   9.272  0.00  0.00    +0.146 HD
BRANCH  28  33
ATOM     30  C   LIG    1       21.589 -28.942  12.596  0.00  0.00    +0.064 A 
ATOM     31  C   LIG    1       22.889 -29.098  12.024  0.00  0.00    +0.017 A 
ATOM     32  C   LIG    1       23.276 -30.304  11.310  0.00  0.00    +0.024 A 
ATOM     33  C   LIG    1       22.300 -31.340  10.993  0.00  0.00    +0.028 A 
ATOM     34  C   LIG    1       21.006 -31.185  11.654  0.00  0.00    +0.024 A 
ATOM     35  C   LIG    1       20.672 -29.991  12.402  0.00  0.00    +0.017 A 
BRANCH  30  37
ATOM     36  N   LIG    1       19.947 -27.757  13.819  0.00  0.00    +0.065 NA
ATOM     37  C   LIG    1       21.139 -27.619  13.216  0.00  0.00    +0.314 C 
BRANCH  37  38
ATOM     38  N   LIG    1       21.922 -26.526  13.157  0.00  0.00    -0.248 N 
ATOM     39  H   LIG    1       21.745 -25.841  12.420  0.00  0.00    +0.288 HD
ATOM     40  H   LIG    1       22.951 -26.740  13.135  0.00  0.00    +0.288 HD
ENDBRANCH  37  38
BRANCH  36  41
ATOM     41  C   LIG    1       19.346 -26.656  14.351  0.00  0.00    +0.542 C 
ATOM     42  O   LIG    1       19.849 -26.043  15.313  0.00  0.00    -0.198 OA
BRANCH  41  43
ATOM     43  O   LIG    1       18.187 -26.298  13.767  0.00  0.00    -0.429 OA
BRANCH  43  44
ATOM     44  C   LIG    1       17.013 -26.282  14.572  0.00  0.00    +0.236 C 
BRANCH  44  45
ATOM     45  C   LIG    1       16.777 -27.698  15.040  0.00  0.00    +0.041 C 
BRANCH  45  46
ATOM     46  C   LIG    1       15.822 -28.427  14.114  0.00  0.00    +0.003 C 
BRANCH  46  47
ATOM     47  C   LIG    1       15.969 -29.942  14.190  0.00  0.00    -0.000 C 
BRANCH  47  49
ATOM     48  C   LIG    1       16.630 -31.216  12.114  0.00  0.00    +0.004 C 
ATOM     49  C   LIG    1       17.128 -30.479  13.346  0.00  0.00    -0.003 C 
ENDBRANCH  47  49
ENDBRANCH  46  47
ENDBRANCH  45  46
ENDBRANCH  44  45
ENDBRANCH  43  44
ENDBRANCH  41  43
ENDBRANCH  36  41
ENDBRANCH  30  37
ENDBRANCH  28  33
ENDBRANCH  27  28
ENDBRANCH   1  27
TORSDOF 19
ENDMDL
MODEL 9
REMARK VINA RESULT:      -7.2      2.512      9.195
REMARK  Name = *****
REMARK                            x       y       z     vdW  Elec       q    Type
REMARK                         _______ _______ _______ _____ _____    ______ ____
ROOT
ATOM      1  C   LIG    1       25.169 -30.948   8.461  0.00  0.00    +0.128 A 
ATOM      2  N   LIG    1       25.168 -31.990   9.391  0.00  0.00    -0.329 N 
ATOM      3  C   LIG    1       26.260 -32.917   9.497  0.00  0.00    +0.150 C 
ATOM      4  C   LIG    1       24.269 -31.692  10.412  0.00  0.00    +0.069 A 
ATOM      5  C   LIG    1       24.078 -30.326  10.259  0.00  0.00    +0.090 A 
ATOM      6  C   LIG    1       23.036 -29.697  11.013  0.00  0.00    +0.043 A 
ATOM      7  C   LIG    1       22.117 -30.372  11.797  0.00  0.00    +0.039 A 
ATOM      8  C   LIG    1       22.598 -31.621  12.204  0.00  0.00    +0.015 A 
ATOM      9  C   LIG    1       23.678 -32.295  11.521  0.00  0.00    +0.029 A 
ATOM     10  N   LIG    1       25.007 -29.912   9.302  0.00  0.00    -0.231 NA
ENDROOT
BRANCH   7  11
ATOM     11  C   LIG    1       20.984 -29.562  12.437  0.00  0.00    +0.252 C 
ATOM     12  N   LIG    1       21.175 -28.581  13.462  0.00  0.00    -0.252 N 
ATOM     13  O   LIG    1       19.854 -29.920  12.087  0.00  0.00    -0.270 OA
BRANCH  12  14
ATOM     14  C   LIG    1       20.031 -28.056  14.165  0.00  0.00    +0.128 A 
ATOM     15  N   LIG    1       19.561 -26.850  13.738  0.00  0.00    -0.240 NA
ATOM     16  C   LIG    1       18.394 -26.389  14.227  0.00  0.00    +0.113 A 
ATOM     17  C   LIG    1       17.614 -27.105  15.108  0.00  0.00    +0.020 A 
ATOM     18  C   LIG    1       18.065 -28.363  15.500  0.00  0.00    +0.005 A 
ATOM     19  C   LIG    1       19.288 -28.850  15.024  0.00  0.00    +0.044 A 
ENDBRANCH  12  14
BRANCH  12  20
ATOM     20  C   LIG    1       22.356 -27.846  13.988  0.00  0.00    +0.126 C 
BRANCH  20  21
ATOM     21  C   LIG    1       22.967 -26.715  13.259  0.00  0.00    +0.140 C 
BRANCH  21  22
ATOM     22  C   LIG    1       24.442 -26.727  13.481  0.00  0.00    +0.309 C 
ATOM     23  O   LIG    1       25.238 -25.796  13.465  0.00  0.00    -0.251 OA
BRANCH  22  24
ATOM     24  O   LIG    1       24.787 -27.980  13.798  0.00  0.00    -0.465 OA
BRANCH  24  25
ATOM     25  C   LIG    1       26.068 -28.386  13.406  0.00  0.00    +0.228 C 
ATOM     26  C   LIG    1       25.795 -29.754  13.560  0.00  0.00    +0.048 C 
ENDBRANCH  24  25
ENDBRANCH  22  24
ENDBRANCH  21  22
ENDBRANCH  20  21
ENDBRANCH  12  20
ENDBRANCH   7  11
BRANCH   1  27
ATOM     27  C   LIG    1       25.626 -31.085   6.863  0.00  0.00    +0.176 C 
BRANCH  27  28
ATOM     28  N   LIG    1       25.900 -29.966   5.725  0.00  0.00    -0.337 N 
ATOM     29  H   LIG    1       26.917 -29.784   5.736  0.00  0.00    +0.146 HD
BRANCH  28  33
ATOM     30  C   LIG    1       25.096 -25.711   5.624  0.00  0.00    +0.064 A 
ATOM     31  C   LIG    1       24.339 -26.554   6.495  0.00  0.00    +0.017 A 
ATOM     32  C   LIG    1       24.314 -27.998   6.337  0.00  0.00    +0.024 A 
ATOM     33  C   LIG    1       25.198 -28.671   5.392  0.00  0.00    +0.028 A 
ATOM     34  C   LIG    1       25.901 -27.780   4.471  0.00  0.00    +0.024 A 
ATOM     35  C   LIG    1       25.862 -26.342   4.626  0.00  0.00    +0.017 A 
BRANCH  30  37
ATOM     36  N   LIG    1       25.901 -23.986   7.028  0.00  0.00    +0.065 NA
ATOM     37  C   LIG    1       25.238 -24.211   5.882  0.00  0.00    +0.314 C 
BRANCH  37  38
ATOM     38  N   LIG    1       24.770 -23.309   4.999  0.00  0.00    -0.248 N 
ATOM     39  H   LIG    1       25.444 -22.752   4.471  0.00  0.00    +0.288 HD
ATOM     40  H   LIG    1       24.070 -22.639   5.406  0.00  0.00    +0.288 HD
ENDBRANCH  37  38
BRANCH  36  41
ATOM     41  C   LIG    1       26.044 -22.703   7.467  0.00  0.00    +0.542 C 
ATOM     42  O   LIG    1       25.078 -22.064   7.925  0.00  0.00    -0.198 OA
BRANCH  41  43
ATOM     43  O   LIG    1       27.287 -22.198   7.361  0.00  0.00    -0.429 OA
BRANCH  43  44
ATOM     44  C   LIG    1       27.455 -20.798   7.556  0.00  0.00    +0.236 C 
BRANCH  44  45
ATOM     45  C   LIG    1       28.366 -20.303   6.459  0.00  0.00    +0.041 C 
BRANCH  45  46
ATOM     46  C   LIG    1       29.358 -19.287   6.990  0.00  0.00    +0.003 C 
BRANCH  46  47
ATOM     47  C   LIG    1       30.599 -19.933   7.595  0.00  0.00    -0.000 C 
BRANCH  47  49
ATOM     48  C   LIG    1       30.394 -17.873   9.038  0.00  0.00    +0.004 C 
ATOM     49  C   LIG    1       31.150 -19.169   8.802  0.00  0.00    -0.003 C 
ENDBRANCH  47  49
ENDBRANCH  46  47
ENDBRANCH  45  46
ENDBRANCH  44  45
ENDBRANCH  43  44
ENDBRANCH  41  43
ENDBRANCH  36  41
ENDBRANCH  30  37
ENDBRANCH  28  33
ENDBRANCH  27  28
ENDBRANCH   1  27
TORSDOF 19
ENDMDL
