MODEL 1
REMARK VINA RESULT:      -6.4      0.000      0.000
REMARK  Name = *****
REMARK                            x       y       z     vdW  Elec       q    Type
REMARK                         _______ _______ _______ _____ _____    ______ ____
ROOT
ATOM      1  O   LIG    1       26.162 -18.082   3.285  0.00  0.00    -0.489 OA
ENDROOT
BRANCH   1   2
ATOM      2  C   LIG    1       25.367 -18.968   3.982  0.00  0.00    +0.128 A 
ATOM      3  C   LIG    1       25.985 -19.772   4.986  0.00  0.00    +0.024 A 
ATOM      4  C   LIG    1       25.195 -20.689   5.716  0.00  0.00    -0.014 A 
ATOM      5  C   LIG    1       25.761 -21.467   6.745  0.00  0.00    +0.008 A 
ATOM      6  C   LIG    1       27.115 -21.354   7.053  0.00  0.00    +0.001 A 
ATOM      7  C   LIG    1       27.915 -20.477   6.333  0.00  0.00    +0.001 A 
ATOM      8  C   LIG    1       23.829 -20.834   5.423  0.00  0.00    +0.009 A 
ATOM      9  C   LIG    1       23.243 -20.064   4.424  0.00  0.00    +0.004 A 
ATOM     10  C   LIG    1       27.360 -19.692   5.310  0.00  0.00    +0.012 A 
ATOM     11  C   LIG    1       24.000 -19.135   3.716  0.00  0.00    +0.046 A 
ENDBRANCH   1   2
BRANCH   1  12
ATOM     12  C   LIG    1       25.698 -16.724   3.222  0.00  0.00    +0.261 C 
BRANCH  12  13
ATOM     13  C   LIG    1       26.762 -15.752   3.754  0.00  0.00    +0.166 C 
BRANCH  13  14
ATOM     14  O   LIG    1       27.973 -16.474   4.020  0.00  0.00    -0.387 OA
ATOM     15  H   LIG    1       28.695 -15.829   3.878  0.00  0.00    +0.210 HD
ENDBRANCH  13  14
BRANCH  13  16
ATOM     16  C   LIG    1       27.038 -14.605   2.759  0.00  0.00    +0.115 C 
BRANCH  16  17
ATOM     17  N   LIG    1       25.832 -14.079   2.078  0.00  0.00    -0.311 NA
ATOM     18  H   LIG    1       25.202 -14.866   1.912  0.00  0.00    +0.122 HD
BRANCH  17  20
ATOM     19  C   LIG    1       24.577 -11.970   1.884  0.00  0.00    +0.024 C 
ATOM     20  C   LIG    1       25.115 -13.042   2.836  0.00  0.00    +0.048 C 
ATOM     21  C   LIG    1       23.958 -13.599   3.666  0.00  0.00    +0.024 C 
ENDBRANCH  17  20
ENDBRANCH  16  17
ENDBRANCH  13  16
ENDBRANCH  12  13
ENDBRANCH   1  12
TORSDOF 7
ENDMDL
MODEL 2
REMARK VINA RESULT:      -5.8      1.444      3.049
REMARK  Name = *****
REMARK                            x       y       z     vdW  Elec       q    Type
REMARK                         _______ _______ _______ _____ _____    ______ ____
ROOT
ATOM      1  O   LIG    1       25.779 -17.364   3.147  0.00  0.00    -0.489 OA
ENDROOT
BRANCH   1   2
ATOM      2  C   LIG    1       25.710 -18.506   3.917  0.00  0.00    +0.128 A 
ATOM      3  C   LIG    1       24.418 -19.017   4.238  0.00  0.00    +0.024 A 
ATOM      4  C   LIG    1       24.316 -20.186   5.027  0.00  0.00    -0.014 A 
ATOM      5  C   LIG    1       23.059 -20.745   5.327  0.00  0.00    +0.008 A 
ATOM      6  C   LIG    1       21.890 -20.147   4.861  0.00  0.00    +0.001 A 
ATOM      7  C   LIG    1       21.965 -18.984   4.105  0.00  0.00    +0.001 A 
ATOM      8  C   LIG    1       25.474 -20.807   5.520  0.00  0.00    +0.009 A 
ATOM      9  C   LIG    1       26.729 -20.285   5.223  0.00  0.00    +0.004 A 
ATOM     10  C   LIG    1       23.212 -18.422   3.794  0.00  0.00    +0.012 A 
ATOM     11  C   LIG    1       26.848 -19.152   4.424  0.00  0.00    +0.046 A 
ENDBRANCH   1   2
BRANCH   1  12
ATOM     12  C   LIG    1       26.954 -16.554   3.313  0.00  0.00    +0.261 C 
BRANCH  12  13
ATOM     13  C   LIG    1       26.592 -15.061   3.355  0.00  0.00    +0.166 C 
BRANCH  13  14
ATOM     14  O   LIG    1       26.871 -14.470   2.076  0.00  0.00    -0.387 OA
ATOM     15  H   LIG    1       26.890 -15.216   1.445  0.00  0.00    +0.210 HD
ENDBRANCH  13  14
BRANCH  13  16
ATOM     16  C   LIG    1       25.111 -14.841   3.726  0.00  0.00    +0.115 C 
BRANCH  16  17
ATOM     17  N   LIG    1       24.859 -13.648   4.568  0.00  0.00    -0.311 NA
ATOM     18  H   LIG    1       25.757 -13.184   4.724  0.00  0.00    +0.122 HD
BRANCH  17  20
ATOM     19  C   LIG    1       23.800 -11.448   4.878  0.00  0.00    +0.024 C 
ATOM     20  C   LIG    1       23.917 -12.683   3.981  0.00  0.00    +0.048 C 
ATOM     21  C   LIG    1       24.312 -12.241   2.572  0.00  0.00    +0.024 C 
ENDBRANCH  17  20
ENDBRANCH  16  17
ENDBRANCH  13  16
ENDBRANCH  12  13
ENDBRANCH   1  12
TORSDOF 7
ENDMDL
MODEL 3
REMARK VINA RESULT:      -5.6      1.081      2.711
REMARK  Name = *****
REMARK                            x       y       z     vdW  Elec       q    Type
REMARK                         _______ _______ _______ _____ _____    ______ ____
ROOT
ATOM      1  O   LIG    1       26.167 -18.817   3.611  0.00  0.00    -0.489 OA
ENDROOT
BRANCH   1   2
ATOM      2  C   LIG    1       26.144 -19.626   4.728  0.00  0.00    +0.128 A 
ATOM      3  C   LIG    1       24.887 -20.159   5.140  0.00  0.00    +0.024 A 
ATOM      4  C   LIG    1       24.832 -20.991   6.281  0.00  0.00    -0.014 A 
ATOM      5  C   LIG    1       23.616 -21.571   6.692  0.00  0.00    +0.008 A 
ATOM      6  C   LIG    1       22.441 -21.324   5.985  0.00  0.00    +0.001 A 
ATOM      7  C   LIG    1       22.467 -20.490   4.875  0.00  0.00    +0.001 A 
ATOM      8  C   LIG    1       25.997 -21.252   7.021  0.00  0.00    +0.009 A 
ATOM      9  C   LIG    1       27.213 -20.705   6.626  0.00  0.00    +0.004 A 
ATOM     10  C   LIG    1       23.674 -19.912   4.453  0.00  0.00    +0.012 A 
ATOM     11  C   LIG    1       27.290 -19.908   5.488  0.00  0.00    +0.046 A 
ENDBRANCH   1   2
BRANCH   1  12
ATOM     12  C   LIG    1       26.887 -17.580   3.736  0.00  0.00    +0.261 C 
BRANCH  12  13
ATOM     13  C   LIG    1       26.096 -16.416   3.119  0.00  0.00    +0.166 C 
BRANCH  13  14
ATOM     14  O   LIG    1       24.797 -16.351   3.727  0.00  0.00    -0.387 OA
ATOM     15  H   LIG    1       24.319 -15.651   3.239  0.00  0.00    +0.210 HD
ENDBRANCH  13  14
BRANCH  13  16
ATOM     16  C   LIG    1       26.829 -15.070   3.295  0.00  0.00    +0.115 C 
BRANCH  16  17
ATOM     17  N   LIG    1       26.556 -14.078   2.228  0.00  0.00    -0.311 NA
ATOM     18  H   LIG    1       26.093 -14.569   1.460  0.00  0.00    +0.122 HD
BRANCH  17  20
ATOM     19  C   LIG    1       24.435 -12.900   1.812  0.00  0.00    +0.024 C 
ATOM     20  C   LIG    1       25.714 -12.950   2.654  0.00  0.00    +0.048 C 
ATOM     21  C   LIG    1       25.334 -13.011   4.134  0.00  0.00    +0.024 C 
ENDBRANCH  17  20
ENDBRANCH  16  17
ENDBRANCH  13  16
ENDBRANCH  12  13
ENDBRANCH   1  12
TORSDOF 7
ENDMDL
MODEL 4
REMARK VINA RESULT:      -5.6      1.471      3.033
REMARK  Name = *****
REMARK                            x       y       z     vdW  Elec       q    Type
REMARK                         _______ _______ _______ _____ _____    ______ ____
ROOT
ATOM      1  O   LIG    1       27.047 -16.550   3.358  0.00  0.00    -0.489 OA
ENDROOT
BRANCH   1   2
ATOM      2  C   LIG    1       27.221 -17.708   4.087  0.00  0.00    +0.128 A 
ATOM      3  C   LIG    1       26.136 -18.632   4.142  0.00  0.00    +0.024 A 
ATOM      4  C   LIG    1       26.285 -19.827   4.882  0.00  0.00    -0.014 A 
ATOM      5  C   LIG    1       25.252 -20.783   4.922  0.00  0.00    +0.008 A 
ATOM      6  C   LIG    1       24.057 -20.560   4.242  0.00  0.00    +0.001 A 
ATOM      7  C   LIG    1       23.878 -19.382   3.529  0.00  0.00    +0.001 A 
ATOM      8  C   LIG    1       27.474 -20.077   5.586  0.00  0.00    +0.009 A 
ATOM      9  C   LIG    1       28.517 -19.156   5.548  0.00  0.00    +0.004 A 
ATOM     10  C   LIG    1       24.904 -18.426   3.476  0.00  0.00    +0.012 A 
ATOM     11  C   LIG    1       28.397 -17.989   4.800  0.00  0.00    +0.046 A 
ENDBRANCH   1   2
BRANCH   1  12
ATOM     12  C   LIG    1       27.458 -15.329   3.995  0.00  0.00    +0.261 C 
BRANCH  12  13
ATOM     13  C   LIG    1       27.327 -14.136   3.036  0.00  0.00    +0.166 C 
BRANCH  13  14
ATOM     14  O   LIG    1       26.585 -14.539   1.875  0.00  0.00    -0.387 OA
ATOM     15  H   LIG    1       25.678 -14.204   2.018  0.00  0.00    +0.210 HD
ENDBRANCH  13  14
BRANCH  13  16
ATOM     16  C   LIG    1       26.636 -12.933   3.712  0.00  0.00    +0.115 C 
BRANCH  16  17
ATOM     17  N   LIG    1       25.703 -13.294   4.805  0.00  0.00    -0.311 NA
ATOM     18  H   LIG    1       25.851 -12.632   5.569  0.00  0.00    +0.122 HD
BRANCH  17  20
ATOM     19  C   LIG    1       24.089 -12.405   3.173  0.00  0.00    +0.024 C 
ATOM     20  C   LIG    1       24.284 -13.273   4.419  0.00  0.00    +0.048 C 
ATOM     21  C   LIG    1       23.715 -14.666   4.150  0.00  0.00    +0.024 C 
ENDBRANCH  17  20
ENDBRANCH  16  17
ENDBRANCH  13  16
ENDBRANCH  12  13
ENDBRANCH   1  12
TORSDOF 7
ENDMDL
MODEL 5
REMARK VINA RESULT:      -5.5      1.545      1.983
REMARK  Name = *****
REMARK                            x       y       z     vdW  Elec       q    Type
REMARK                         _______ _______ _______ _____ _____    ______ ____
ROOT
ATOM      1  O   LIG    1       25.672 -18.260   3.099  0.00  0.00    -0.489 OA
ENDROOT
BRANCH   1   2
ATOM      2  C   LIG    1       24.806 -18.933   3.936  0.00  0.00    +0.128 A 
ATOM      3  C   LIG    1       25.369 -19.756   4.956  0.00  0.00    +0.024 A 
ATOM      4  C   LIG    1       24.506 -20.458   5.828  0.00  0.00    -0.014 A 
ATOM      5  C   LIG    1       25.025 -21.245   6.875  0.00  0.00    +0.008 A 
ATOM      6  C   LIG    1       26.401 -21.354   7.061  0.00  0.00    +0.001 A 
ATOM      7  C   LIG    1       27.268 -20.693   6.202  0.00  0.00    +0.001 A 
ATOM      8  C   LIG    1       23.115 -20.376   5.661  0.00  0.00    +0.009 A 
ATOM      9  C   LIG    1       22.577 -19.592   4.646  0.00  0.00    +0.004 A 
ATOM     10  C   LIG    1       26.762 -19.901   5.160  0.00  0.00    +0.012 A 
ATOM     11  C   LIG    1       23.411 -18.871   3.797  0.00  0.00    +0.046 A 
ENDBRANCH   1   2
BRANCH   1  12
ATOM     12  C   LIG    1       26.218 -17.030   3.603  0.00  0.00    +0.261 C 
BRANCH  12  13
ATOM     13  C   LIG    1       25.409 -15.823   3.105  0.00  0.00    +0.166 C 
BRANCH  13  14
ATOM     14  O   LIG    1       24.348 -15.547   4.031  0.00  0.00    -0.387 OA
ATOM     15  H   LIG    1       24.435 -16.223   4.732  0.00  0.00    +0.210 HD
ENDBRANCH  13  14
BRANCH  13  16
ATOM     16  C   LIG    1       26.297 -14.572   2.932  0.00  0.00    +0.115 C 
BRANCH  16  17
ATOM     17  N   LIG    1       27.676 -14.720   3.454  0.00  0.00    -0.311 NA
ATOM     18  H   LIG    1       28.321 -14.476   2.699  0.00  0.00    +0.122 HD
BRANCH  17  20
ATOM     19  C   LIG    1       28.790 -12.659   4.208  0.00  0.00    +0.024 C 
ATOM     20  C   LIG    1       27.970 -13.883   4.627  0.00  0.00    +0.048 C 
ATOM     21  C   LIG    1       26.712 -13.413   5.359  0.00  0.00    +0.024 C 
ENDBRANCH  17  20
ENDBRANCH  16  17
ENDBRANCH  13  16
ENDBRANCH  12  13
ENDBRANCH   1  12
TORSDOF 7
ENDMDL
MODEL 6
REMARK VINA RESULT:      -5.5      1.624      3.239
REMARK  Name = *****
REMARK                            x       y       z     vdW  Elec       q    Type
REMARK                         _______ _______ _______ _____ _____    ______ ____
ROOT
ATOM      1  O   LIG    1       25.830 -17.703   2.988  0.00  0.00    -0.489 OA
ENDROOT
BRANCH   1   2
ATOM      2  C   LIG    1       25.833 -18.713   3.928  0.00  0.00    +0.128 A 
ATOM      3  C   LIG    1       24.576 -19.247   4.338  0.00  0.00    +0.024 A 
ATOM      4  C   LIG    1       24.547 -20.281   5.300  0.00  0.00    -0.014 A 
ATOM      5  C   LIG    1       23.328 -20.864   5.696  0.00  0.00    +0.008 A 
ATOM      6  C   LIG    1       22.124 -20.421   5.152  0.00  0.00    +0.001 A 
ATOM      7  C   LIG    1       22.125 -19.389   4.223  0.00  0.00    +0.001 A 
ATOM      8  C   LIG    1       25.742 -20.744   5.874  0.00  0.00    +0.009 A 
ATOM      9  C   LIG    1       26.962 -20.197   5.487  0.00  0.00    +0.004 A 
ATOM     10  C   LIG    1       23.335 -18.806   3.817  0.00  0.00    +0.012 A 
ATOM     11  C   LIG    1       27.009 -19.199   4.520  0.00  0.00    +0.046 A 
ENDBRANCH   1   2
BRANCH   1  12
ATOM     12  C   LIG    1       26.302 -16.420   3.430  0.00  0.00    +0.261 C 
BRANCH  12  13
ATOM     13  C   LIG    1       25.299 -15.312   3.073  0.00  0.00    +0.166 C 
BRANCH  13  14
ATOM     14  O   LIG    1       24.302 -15.224   4.102  0.00  0.00    -0.387 OA
ATOM     15  H   LIG    1       24.396 -16.045   4.624  0.00  0.00    +0.210 HD
ENDBRANCH  13  14
BRANCH  13  16
ATOM     16  C   LIG    1       25.996 -13.946   2.896  0.00  0.00    +0.115 C 
BRANCH  16  17
ATOM     17  N   LIG    1       27.476 -14.011   2.866  0.00  0.00    -0.311 NA
ATOM     18  H   LIG    1       27.800 -13.365   2.142  0.00  0.00    +0.122 HD
BRANCH  17  20
ATOM     19  C   LIG    1       29.058 -12.469   3.951  0.00  0.00    +0.024 C 
ATOM     20  C   LIG    1       28.122 -13.665   4.141  0.00  0.00    +0.048 C 
ATOM     21  C   LIG    1       27.121 -13.344   5.252  0.00  0.00    +0.024 C 
ENDBRANCH  17  20
ENDBRANCH  16  17
ENDBRANCH  13  16
ENDBRANCH  12  13
ENDBRANCH   1  12
TORSDOF 7
ENDMDL
MODEL 7
REMARK VINA RESULT:      -5.4      2.420      6.321
REMARK  Name = *****
REMARK                            x       y       z     vdW  Elec       q    Type
REMARK                         _______ _______ _______ _____ _____    ______ ____
ROOT
ATOM      1  O   LIG    1       25.734 -17.845   3.307  0.00  0.00    -0.489 OA
ENDROOT
BRANCH   1   2
ATOM      2  C   LIG    1       25.018 -16.717   3.647  0.00  0.00    +0.128 A 
ATOM      3  C   LIG    1       25.701 -15.465   3.642  0.00  0.00    +0.024 A 
ATOM      4  C   LIG    1       24.993 -14.292   3.987  0.00  0.00    -0.014 A 
ATOM      5  C   LIG    1       25.623 -13.033   3.950  0.00  0.00    +0.008 A 
ATOM      6  C   LIG    1       26.963 -12.924   3.584  0.00  0.00    +0.001 A 
ATOM      7  C   LIG    1       27.686 -14.066   3.265  0.00  0.00    +0.001 A 
ATOM      8  C   LIG    1       23.644 -14.369   4.370  0.00  0.00    +0.009 A 
ATOM      9  C   LIG    1       22.994 -15.598   4.397  0.00  0.00    +0.004 A 
ATOM     10  C   LIG    1       27.066 -15.325   3.291  0.00  0.00    +0.012 A 
ATOM     11  C   LIG    1       23.669 -16.759   4.032  0.00  0.00    +0.046 A 
ENDBRANCH   1   2
BRANCH   1  12
ATOM     12  C   LIG    1       25.081 -19.106   3.530  0.00  0.00    +0.261 C 
BRANCH  12  13
ATOM     13  C   LIG    1       26.028 -20.103   4.215  0.00  0.00    +0.166 C 
BRANCH  13  14
ATOM     14  O   LIG    1       27.137 -19.391   4.783  0.00  0.00    -0.387 OA
ATOM     15  H   LIG    1       27.694 -20.074   5.206  0.00  0.00    +0.210 HD
ENDBRANCH  13  14
BRANCH  13  16
ATOM     16  C   LIG    1       25.307 -20.916   5.310  0.00  0.00    +0.115 C 
BRANCH  16  17
ATOM     17  N   LIG    1       24.055 -21.571   4.865  0.00  0.00    -0.311 NA
ATOM     18  H   LIG    1       24.191 -22.582   4.939  0.00  0.00    +0.122 HD
BRANCH  17  20
ATOM     19  C   LIG    1       23.269 -20.786   7.062  0.00  0.00    +0.024 C 
ATOM     20  C   LIG    1       22.865 -21.189   5.641  0.00  0.00    +0.048 C 
ATOM     21  C   LIG    1       22.076 -20.045   5.003  0.00  0.00    +0.024 C 
ENDBRANCH  17  20
ENDBRANCH  16  17
ENDBRANCH  13  16
ENDBRANCH  12  13
ENDBRANCH   1  12
TORSDOF 7
ENDMDL
MODEL 8
REMARK VINA RESULT:      -5.1      1.387      1.897
REMARK  Name = *****
REMARK                            x       y       z     vdW  Elec       q    Type
REMARK                         _______ _______ _______ _____ _____    ______ ____
ROOT
ATOM      1  O   LIG    1       24.531 -18.801   3.242  0.00  0.00    -0.489 OA
ENDROOT
BRANCH   1   2
ATOM      2  C   LIG    1       24.131 -19.638   4.262  0.00  0.00    +0.128 A 
ATOM      3  C   LIG    1       25.137 -20.178   5.117  0.00  0.00    +0.024 A 
ATOM      4  C   LIG    1       24.757 -21.040   6.171  0.00  0.00    -0.014 A 
ATOM      5  C   LIG    1       25.718 -21.555   7.062  0.00  0.00    +0.008 A 
ATOM      6  C   LIG    1       27.065 -21.234   6.911  0.00  0.00    +0.001 A 
ATOM      7  C   LIG    1       27.465 -20.409   5.868  0.00  0.00    +0.001 A 
ATOM      8  C   LIG    1       23.408 -21.390   6.344  0.00  0.00    +0.009 A 
ATOM      9  C   LIG    1       22.438 -20.880   5.488  0.00  0.00    +0.004 A 
ATOM     10  C   LIG    1       26.515 -19.884   4.979  0.00  0.00    +0.012 A 
ATOM     11  C   LIG    1       22.792 -20.007   4.463  0.00  0.00    +0.046 A 
ENDBRANCH   1   2
BRANCH   1  12
ATOM     12  C   LIG    1       24.226 -17.406   3.406  0.00  0.00    +0.261 C 
BRANCH  12  13
ATOM     13  C   LIG    1       25.493 -16.600   3.729  0.00  0.00    +0.166 C 
BRANCH  13  14
ATOM     14  O   LIG    1       26.607 -17.161   3.019  0.00  0.00    -0.387 OA
ATOM     15  H   LIG    1       26.699 -16.618   2.211  0.00  0.00    +0.210 HD
ENDBRANCH  13  14
BRANCH  13  16
ATOM     16  C   LIG    1       25.331 -15.109   3.363  0.00  0.00    +0.115 C 
BRANCH  16  17
ATOM     17  N   LIG    1       26.545 -14.481   2.793  0.00  0.00    -0.311 NA
ATOM     18  H   LIG    1       26.313 -14.156   1.852  0.00  0.00    +0.122 HD
BRANCH  17  20
ATOM     19  C   LIG    1       26.422 -13.332   4.967  0.00  0.00    +0.024 C 
ATOM     20  C   LIG    1       27.064 -13.350   3.576  0.00  0.00    +0.048 C 
ATOM     21  C   LIG    1       28.585 -13.375   3.730  0.00  0.00    +0.024 C 
ENDBRANCH  17  20
ENDBRANCH  16  17
ENDBRANCH  13  16
ENDBRANCH  12  13
ENDBRANCH   1  12
TORSDOF 7
ENDMDL
MODEL 9
REMARK VINA RESULT:      -5.0      2.228      6.880
REMARK  Name = *****
REMARK                            x       y       z     vdW  Elec       q    Type
REMARK                         _______ _______ _______ _____ _____    ______ ____
ROOT
ATOM      1  O   LIG    1       25.212 -17.051   3.291  0.00  0.00    -0.489 OA
ENDROOT
BRANCH   1   2
ATOM      2  C   LIG    1       25.962 -15.950   3.647  0.00  0.00    +0.128 A 
ATOM      3  C   LIG    1       25.271 -14.738   3.941  0.00  0.00    +0.024 A 
ATOM      4  C   LIG    1       26.013 -13.592   4.307  0.00  0.00    -0.014 A 
ATOM      5  C   LIG    1       25.363 -12.391   4.648  0.00  0.00    +0.008 A 
ATOM      6  C   LIG    1       23.973 -12.307   4.617  0.00  0.00    +0.001 A 
ATOM      7  C   LIG    1       23.223 -13.412   4.236  0.00  0.00    +0.001 A 
ATOM      8  C   LIG    1       27.416 -13.642   4.339  0.00  0.00    +0.009 A 
ATOM      9  C   LIG    1       28.082 -14.822   4.024  0.00  0.00    +0.004 A 
ATOM     10  C   LIG    1       23.861 -14.616   3.901  0.00  0.00    +0.012 A 
ATOM     11  C   LIG    1       27.365 -15.966   3.690  0.00  0.00    +0.046 A 
ENDBRANCH   1   2
BRANCH   1  12
ATOM     12  C   LIG    1       25.889 -18.318   3.315  0.00  0.00    +0.261 C 
BRANCH  12  13
ATOM     13  C   LIG    1       25.061 -19.372   4.066  0.00  0.00    +0.166 C 
BRANCH  13  14
ATOM     14  O   LIG    1       24.460 -20.267   3.118  0.00  0.00    -0.387 OA
ATOM     15  H   LIG    1       25.114 -20.981   2.985  0.00  0.00    +0.210 HD
ENDBRANCH  13  14
BRANCH  13  16
ATOM     16  C   LIG    1       25.923 -20.168   5.069  0.00  0.00    +0.115 C 
BRANCH  16  17
ATOM     17  N   LIG    1       27.382 -20.086   4.826  0.00  0.00    -0.311 NA
ATOM     18  H   LIG    1       27.531 -19.434   4.051  0.00  0.00    +0.122 HD
BRANCH  17  20
ATOM     19  C   LIG    1       28.827 -20.833   6.673  0.00  0.00    +0.024 C 
ATOM     20  C   LIG    1       28.163 -19.635   5.988  0.00  0.00    +0.048 C 
ATOM     21  C   LIG    1       29.238 -18.609   5.626  0.00  0.00    +0.024 C 
ENDBRANCH  17  20
ENDBRANCH  16  17
ENDBRANCH  13  16
ENDBRANCH  12  13
ENDBRANCH   1  12
TORSDOF 7
ENDMDL
