MODEL 1
REMARK VINA RESULT:      -4.8      0.000      0.000
REMARK  Name = *****
REMARK                            x       y       z     vdW  Elec       q    Type
REMARK                         _______ _______ _______ _____ _____    ______ ____
ROOT
ATOM      1  C   LIG    1       25.993 -17.491   3.365  0.00  0.00    +0.161 C 
ENDROOT
BRANCH   1   2
ATOM      2  C   LIG    1       25.549 -16.035   3.431  0.00  0.00    -0.014 A 
ATOM      3  C   LIG    1       26.343 -14.992   2.934  0.00  0.00    +0.055 A 
ATOM      4  C   LIG    1       25.899 -13.680   3.007  0.00  0.00    +0.159 A 
ATOM      5  C   LIG    1       24.660 -13.375   3.568  0.00  0.00    +0.158 A 
ATOM      6  C   LIG    1       23.845 -14.390   4.047  0.00  0.00    +0.049 A 
ATOM      7  C   LIG    1       24.286 -15.716   3.967  0.00  0.00    +0.010 A 
BRANCH   4   8
ATOM      8  O   LIG    1       26.691 -12.683   2.518  0.00  0.00    -0.503 OA
ATOM      9  H   LIG    1       26.110 -12.190   1.906  0.00  0.00    +0.292 HD
ENDBRANCH   4   8
BRANCH   5  10
ATOM     10  O   LIG    1       24.298 -12.060   3.613  0.00  0.00    -0.503 OA
ATOM     11  H   LIG    1       24.720 -11.662   4.395  0.00  0.00    +0.292 HD
ENDBRANCH   5  10
ENDBRANCH   1   2
BRANCH   1  12
ATOM     12  O   LIG    1       27.387 -17.563   3.668  0.00  0.00    -0.386 OA
ATOM     13  H   LIG    1       27.805 -18.012   2.914  0.00  0.00    +0.210 HD
ENDBRANCH   1  12
BRANCH   1  14
ATOM     14  C   LIG    1       25.174 -18.585   4.163  0.00  0.00    +0.087 C 
BRANCH  14  16
ATOM     15  C   LIG    1       26.068 -20.440   5.745  0.00  0.00    +0.005 C 
ATOM     16  C   LIG    1       26.085 -19.834   4.347  0.00  0.00    +0.018 C 
ENDBRANCH  14  16
BRANCH  14  17
ATOM     17  N   LIG    1       23.854 -19.036   3.651  0.00  0.00    -0.308 NA
ATOM     18  H   LIG    1       23.974 -19.931   3.179  0.00  0.00    +0.122 HD
BRANCH  17  19
ATOM     19  C   LIG    1       22.736 -19.153   4.593  0.00  0.00    +0.048 C 
ATOM     20  C   LIG    1       22.330 -20.590   4.920  0.00  0.00    +0.024 C 
ATOM     21  C   LIG    1       21.527 -18.417   3.997  0.00  0.00    +0.024 C 
ENDBRANCH  17  19
ENDBRANCH  14  17
ENDBRANCH   1  14
TORSDOF 8
ENDMDL
MODEL 2
REMARK VINA RESULT:      -4.5      2.473      6.101
REMARK  Name = *****
REMARK                            x       y       z     vdW  Elec       q    Type
REMARK                         _______ _______ _______ _____ _____    ______ ____
ROOT
ATOM      1  C   LIG    1       23.058 -15.721   4.296  0.00  0.00    +0.161 C 
ENDROOT
BRANCH   1   2
ATOM      2  C   LIG    1       23.243 -17.232   4.236  0.00  0.00    -0.014 A 
ATOM      3  C   LIG    1       24.423 -17.819   3.759  0.00  0.00    +0.055 A 
ATOM      4  C   LIG    1       24.554 -19.200   3.727  0.00  0.00    +0.159 A 
ATOM      5  C   LIG    1       23.522 -20.025   4.171  0.00  0.00    +0.158 A 
ATOM      6  C   LIG    1       22.352 -19.470   4.667  0.00  0.00    +0.049 A 
ATOM      7  C   LIG    1       22.221 -18.078   4.710  0.00  0.00    +0.010 A 
BRANCH   4   8
ATOM      8  O   LIG    1       25.712 -19.746   3.258  0.00  0.00    -0.503 OA
ATOM      9  H   LIG    1       25.442 -20.240   2.459  0.00  0.00    +0.292 HD
ENDBRANCH   4   8
BRANCH   5  10
ATOM     10  O   LIG    1       23.722 -21.373   4.099  0.00  0.00    -0.503 OA
ATOM     11  H   LIG    1       22.991 -21.809   4.572  0.00  0.00    +0.292 HD
ENDBRANCH   5  10
ENDBRANCH   1   2
BRANCH   1  12
ATOM     12  O   LIG    1       22.334 -15.392   5.483  0.00  0.00    -0.386 OA
ATOM     13  H   LIG    1       22.403 -14.427   5.583  0.00  0.00    +0.210 HD
ENDBRANCH   1  12
BRANCH   1  14
ATOM     14  C   LIG    1       24.317 -14.780   4.112  0.00  0.00    +0.087 C 
BRANCH  14  16
ATOM     15  C   LIG    1       23.938 -12.212   4.147  0.00  0.00    +0.005 C 
ATOM     16  C   LIG    1       23.861 -13.505   3.344  0.00  0.00    +0.018 C 
ENDBRANCH  14  16
BRANCH  14  17
ATOM     17  N   LIG    1       25.542 -15.310   3.459  0.00  0.00    -0.308 NA
ATOM     18  H   LIG    1       25.423 -15.260   2.448  0.00  0.00    +0.122 HD
BRANCH  17  19
ATOM     19  C   LIG    1       26.838 -14.714   3.804  0.00  0.00    +0.048 C 
ATOM     20  C   LIG    1       26.849 -13.942   5.123  0.00  0.00    +0.024 C 
ATOM     21  C   LIG    1       27.248 -13.766   2.667  0.00  0.00    +0.024 C 
ENDBRANCH  17  19
ENDBRANCH  14  17
ENDBRANCH   1  14
TORSDOF 8
ENDMDL
MODEL 3
REMARK VINA RESULT:      -4.2      1.612      2.076
REMARK  Name = *****
REMARK                            x       y       z     vdW  Elec       q    Type
REMARK                         _______ _______ _______ _____ _____    ______ ____
ROOT
ATOM      1  C   LIG    1       24.834 -19.140   3.598  0.00  0.00    +0.161 C 
ENDROOT
BRANCH   1   2
ATOM      2  C   LIG    1       24.879 -17.618   3.669  0.00  0.00    -0.014 A 
ATOM      3  C   LIG    1       26.021 -16.891   3.308  0.00  0.00    +0.055 A 
ATOM      4  C   LIG    1       26.019 -15.505   3.381  0.00  0.00    +0.159 A 
ATOM      5  C   LIG    1       24.886 -14.814   3.808  0.00  0.00    +0.158 A 
ATOM      6  C   LIG    1       23.736 -15.509   4.150  0.00  0.00    +0.049 A 
ATOM      7  C   LIG    1       23.732 -16.906   4.069  0.00  0.00    +0.010 A 
BRANCH   4   8
ATOM      8  O   LIG    1       27.143 -14.820   3.025  0.00  0.00    -0.503 OA
ATOM      9  H   LIG    1       27.373 -14.300   3.819  0.00  0.00    +0.292 HD
ENDBRANCH   4   8
BRANCH   5  10
ATOM     10  O   LIG    1       24.965 -13.453   3.862  0.00  0.00    -0.503 OA
ATOM     11  H   LIG    1       24.592 -13.099   3.035  0.00  0.00    +0.292 HD
ENDBRANCH   5  10
ENDBRANCH   1   2
BRANCH   1  12
ATOM     12  O   LIG    1       25.724 -19.581   2.571  0.00  0.00    -0.386 OA
ATOM     13  H   LIG    1       25.169 -20.017   1.902  0.00  0.00    +0.210 HD
ENDBRANCH   1  12
BRANCH   1  14
ATOM     14  C   LIG    1       25.025 -19.982   4.924  0.00  0.00    +0.087 C 
BRANCH  14  16
ATOM     15  C   LIG    1       26.899 -20.476   6.652  0.00  0.00    +0.005 C 
ATOM     16  C   LIG    1       26.550 -20.072   5.225  0.00  0.00    +0.018 C 
ENDBRANCH  14  16
BRANCH  14  17
ATOM     17  N   LIG    1       24.444 -21.346   5.020  0.00  0.00    -0.308 NA
ATOM     18  H   LIG    1       25.106 -21.951   5.505  0.00  0.00    +0.122 HD
BRANCH  17  19
ATOM     19  C   LIG    1       23.125 -21.508   5.641  0.00  0.00    +0.048 C 
ATOM     20  C   LIG    1       21.981 -20.836   4.883  0.00  0.00    +0.024 C 
ATOM     21  C   LIG    1       23.190 -20.928   7.062  0.00  0.00    +0.024 C 
ENDBRANCH  17  19
ENDBRANCH  14  17
ENDBRANCH   1  14
TORSDOF 8
ENDMDL
MODEL 4
REMARK VINA RESULT:      -4.1      2.714      6.353
REMARK  Name = *****
REMARK                            x       y       z     vdW  Elec       q    Type
REMARK                         _______ _______ _______ _____ _____    ______ ____
ROOT
ATOM      1  C   LIG    1       23.389 -15.940   4.038  0.00  0.00    +0.161 C 
ENDROOT
BRANCH   1   2
ATOM      2  C   LIG    1       23.608 -17.448   4.060  0.00  0.00    -0.014 A 
ATOM      3  C   LIG    1       22.617 -18.337   4.497  0.00  0.00    +0.055 A 
ATOM      4  C   LIG    1       22.854 -19.704   4.495  0.00  0.00    +0.159 A 
ATOM      5  C   LIG    1       24.074 -20.217   4.057  0.00  0.00    +0.158 A 
ATOM      6  C   LIG    1       25.064 -19.360   3.599  0.00  0.00    +0.049 A 
ATOM      7  C   LIG    1       24.825 -17.982   3.591  0.00  0.00    +0.010 A 
BRANCH   4   8
ATOM      8  O   LIG    1       21.874 -20.549   4.926  0.00  0.00    -0.503 OA
ATOM      9  H   LIG    1       22.351 -21.244   5.420  0.00  0.00    +0.292 HD
ENDBRANCH   4   8
BRANCH   5  10
ATOM     10  O   LIG    1       24.235 -21.572   4.094  0.00  0.00    -0.503 OA
ATOM     11  H   LIG    1       24.900 -21.811   3.424  0.00  0.00    +0.292 HD
ENDBRANCH   5  10
ENDBRANCH   1   2
BRANCH   1  12
ATOM     12  O   LIG    1       22.457 -15.594   5.064  0.00  0.00    -0.386 OA
ATOM     13  H   LIG    1       22.377 -16.378   5.633  0.00  0.00    +0.210 HD
ENDBRANCH   1  12
BRANCH   1  14
ATOM     14  C   LIG    1       24.645 -14.977   4.053  0.00  0.00    +0.087 C 
BRANCH  14  16
ATOM     15  C   LIG    1       23.908 -12.560   3.458  0.00  0.00    +0.005 C 
ATOM     16  C   LIG    1       24.177 -13.580   4.557  0.00  0.00    +0.018 C 
ENDBRANCH  14  16
BRANCH  14  17
ATOM     17  N   LIG    1       25.442 -14.788   2.813  0.00  0.00    -0.308 NA
ATOM     18  H   LIG    1       25.130 -13.936   2.350  0.00  0.00    +0.122 HD
BRANCH  17  19
ATOM     19  C   LIG    1       26.905 -14.751   2.917  0.00  0.00    +0.048 C 
ATOM     20  C   LIG    1       27.470 -15.432   4.163  0.00  0.00    +0.024 C 
ATOM     21  C   LIG    1       27.350 -13.281   2.906  0.00  0.00    +0.024 C 
ENDBRANCH  17  19
ENDBRANCH  14  17
ENDBRANCH   1  14
TORSDOF 8
ENDMDL
MODEL 5
REMARK VINA RESULT:      -4.1      1.042      1.371
REMARK  Name = *****
REMARK                            x       y       z     vdW  Elec       q    Type
REMARK                         _______ _______ _______ _____ _____    ______ ____
ROOT
ATOM      1  C   LIG    1       26.886 -17.571   3.583  0.00  0.00    +0.161 C 
ENDROOT
BRANCH   1   2
ATOM      2  C   LIG    1       26.230 -16.197   3.531  0.00  0.00    -0.014 A 
ATOM      3  C   LIG    1       26.933 -15.050   3.139  0.00  0.00    +0.055 A 
ATOM      4  C   LIG    1       26.296 -13.819   3.098  0.00  0.00    +0.159 A 
ATOM      5  C   LIG    1       24.950 -13.700   3.439  0.00  0.00    +0.158 A 
ATOM      6  C   LIG    1       24.225 -14.822   3.810  0.00  0.00    +0.049 A 
ATOM      7  C   LIG    1       24.862 -16.067   3.844  0.00  0.00    +0.010 A 
BRANCH   4   8
ATOM      8  O   LIG    1       27.003 -12.718   2.714  0.00  0.00    -0.503 OA
ATOM      9  H   LIG    1       27.452 -12.992   1.890  0.00  0.00    +0.292 HD
ENDBRANCH   4   8
BRANCH   5  10
ATOM     10  O   LIG    1       24.396 -12.453   3.384  0.00  0.00    -0.503 OA
ATOM     11  H   LIG    1       24.473 -12.054   4.269  0.00  0.00    +0.292 HD
ENDBRANCH   5  10
ENDBRANCH   1   2
BRANCH   1  12
ATOM     12  O   LIG    1       28.144 -17.456   4.252  0.00  0.00    -0.386 OA
ATOM     13  H   LIG    1       28.708 -18.160   3.891  0.00  0.00    +0.210 HD
ENDBRANCH   1  12
BRANCH   1  14
ATOM     14  C   LIG    1       26.057 -18.803   4.128  0.00  0.00    +0.087 C 
BRANCH  14  16
ATOM     15  C   LIG    1       26.307 -20.340   6.206  0.00  0.00    +0.005 C 
ATOM     16  C   LIG    1       26.996 -19.658   5.030  0.00  0.00    +0.018 C 
ENDBRANCH  14  16
BRANCH  14  17
ATOM     17  N   LIG    1       25.370 -19.709   3.170  0.00  0.00    -0.308 NA
ATOM     18  H   LIG    1       25.916 -20.565   3.080  0.00  0.00    +0.122 HD
BRANCH  17  19
ATOM     19  C   LIG    1       23.973 -20.074   3.426  0.00  0.00    +0.048 C 
ATOM     20  C   LIG    1       23.294 -19.255   4.524  0.00  0.00    +0.024 C 
ATOM     21  C   LIG    1       23.929 -21.560   3.814  0.00  0.00    +0.024 C 
ENDBRANCH  17  19
ENDBRANCH  14  17
ENDBRANCH   1  14
TORSDOF 8
ENDMDL
MODEL 6
REMARK VINA RESULT:      -4.0      2.630      5.814
REMARK  Name = *****
REMARK                            x       y       z     vdW  Elec       q    Type
REMARK                         _______ _______ _______ _____ _____    ______ ____
ROOT
ATOM      1  C   LIG    1       27.057 -14.615   3.196  0.00  0.00    +0.161 C 
ENDROOT
BRANCH   1   2
ATOM      2  C   LIG    1       26.891 -16.096   3.516  0.00  0.00    -0.014 A 
ATOM      3  C   LIG    1       27.864 -16.819   4.218  0.00  0.00    +0.055 A 
ATOM      4  C   LIG    1       27.671 -18.165   4.495  0.00  0.00    +0.159 A 
ATOM      5  C   LIG    1       26.510 -18.818   4.086  0.00  0.00    +0.158 A 
ATOM      6  C   LIG    1       25.521 -18.120   3.409  0.00  0.00    +0.049 A 
ATOM      7  C   LIG    1       25.708 -16.761   3.136  0.00  0.00    +0.010 A 
BRANCH   4   8
ATOM      8  O   LIG    1       28.634 -18.847   5.179  0.00  0.00    -0.503 OA
ATOM      9  H   LIG    1       28.187 -19.661   5.481  0.00  0.00    +0.292 HD
ENDBRANCH   4   8
BRANCH   5  10
ATOM     10  O   LIG    1       26.397 -20.145   4.387  0.00  0.00    -0.503 OA
ATOM     11  H   LIG    1       25.561 -20.271   4.869  0.00  0.00    +0.292 HD
ENDBRANCH   5  10
ENDBRANCH   1   2
BRANCH   1  12
ATOM     12  O   LIG    1       26.769 -14.407   1.812  0.00  0.00    -0.386 OA
ATOM     13  H   LIG    1       25.861 -14.724   1.674  0.00  0.00    +0.210 HD
ENDBRANCH   1  12
BRANCH   1  14
ATOM     14  C   LIG    1       26.327 -13.542   4.102  0.00  0.00    +0.087 C 
BRANCH  14  16
ATOM     15  C   LIG    1       28.436 -12.582   5.272  0.00  0.00    +0.005 C 
ATOM     16  C   LIG    1       27.146 -13.380   5.416  0.00  0.00    +0.018 C 
ENDBRANCH  14  16
BRANCH  14  17
ATOM     17  N   LIG    1       24.896 -13.731   4.458  0.00  0.00    -0.308 NA
ATOM     18  H   LIG    1       24.817 -13.792   5.473  0.00  0.00    +0.122 HD
BRANCH  17  19
ATOM     19  C   LIG    1       23.915 -12.754   3.973  0.00  0.00    +0.048 C 
ATOM     20  C   LIG    1       24.228 -12.173   2.595  0.00  0.00    +0.024 C 
ATOM     21  C   LIG    1       23.836 -11.608   4.992  0.00  0.00    +0.024 C 
ENDBRANCH  17  19
ENDBRANCH  14  17
ENDBRANCH   1  14
TORSDOF 8
ENDMDL
MODEL 7
REMARK VINA RESULT:      -3.9      2.647      6.026
REMARK  Name = *****
REMARK                            x       y       z     vdW  Elec       q    Type
REMARK                         _______ _______ _______ _____ _____    ______ ____
ROOT
ATOM      1  C   LIG    1       22.884 -15.475   4.342  0.00  0.00    +0.161 C 
ENDROOT
BRANCH   1   2
ATOM      2  C   LIG    1       23.168 -16.968   4.232  0.00  0.00    -0.014 A 
ATOM      3  C   LIG    1       24.395 -17.460   3.767  0.00  0.00    +0.055 A 
ATOM      4  C   LIG    1       24.615 -18.828   3.689  0.00  0.00    +0.159 A 
ATOM      5  C   LIG    1       23.627 -19.733   4.074  0.00  0.00    +0.158 A 
ATOM      6  C   LIG    1       22.412 -19.272   4.558  0.00  0.00    +0.049 A 
ATOM      7  C   LIG    1       22.190 -17.894   4.647  0.00  0.00    +0.010 A 
BRANCH   4   8
ATOM      8  O   LIG    1       25.817 -19.282   3.232  0.00  0.00    -0.503 OA
ATOM      9  H   LIG    1       25.957 -18.800   2.394  0.00  0.00    +0.292 HD
ENDBRANCH   4   8
BRANCH   5  10
ATOM     10  O   LIG    1       23.915 -21.062   3.958  0.00  0.00    -0.503 OA
ATOM     11  H   LIG    1       24.411 -21.189   3.130  0.00  0.00    +0.292 HD
ENDBRANCH   5  10
ENDBRANCH   1   2
BRANCH   1  12
ATOM     12  O   LIG    1       22.453 -15.184   5.673  0.00  0.00    -0.386 OA
ATOM     13  H   LIG    1       23.260 -15.097   6.206  0.00  0.00    +0.210 HD
ENDBRANCH   1  12
BRANCH   1  14
ATOM     14  C   LIG    1       23.980 -14.442   3.855  0.00  0.00    +0.087 C 
BRANCH  14  16
ATOM     15  C   LIG    1       26.091 -13.719   5.181  0.00  0.00    +0.005 C 
ATOM     16  C   LIG    1       24.569 -13.733   5.109  0.00  0.00    +0.018 C 
ENDBRANCH  14  16
BRANCH  14  17
ATOM     17  N   LIG    1       23.620 -13.406   2.852  0.00  0.00    -0.308 NA
ATOM     18  H   LIG    1       23.318 -12.566   3.344  0.00  0.00    +0.122 HD
BRANCH  17  19
ATOM     19  C   LIG    1       24.617 -13.023   1.847  0.00  0.00    +0.048 C 
ATOM     20  C   LIG    1       26.014 -13.594   2.089  0.00  0.00    +0.024 C 
ATOM     21  C   LIG    1       24.704 -11.489   1.818  0.00  0.00    +0.024 C 
ENDBRANCH  17  19
ENDBRANCH  14  17
ENDBRANCH   1  14
TORSDOF 8
ENDMDL
MODEL 8
REMARK VINA RESULT:      -3.8      2.583      5.768
REMARK  Name = *****
REMARK                            x       y       z     vdW  Elec       q    Type
REMARK                         _______ _______ _______ _____ _____    ______ ____
ROOT
ATOM      1  C   LIG    1       25.719 -17.006   3.638  0.00  0.00    +0.161 C 
ENDROOT
BRANCH   1   2
ATOM      2  C   LIG    1       24.575 -17.981   3.887  0.00  0.00    -0.014 A 
ATOM      3  C   LIG    1       24.760 -19.369   3.854  0.00  0.00    +0.055 A 
ATOM      4  C   LIG    1       23.692 -20.223   4.093  0.00  0.00    +0.159 A 
ATOM      5  C   LIG    1       22.423 -19.718   4.373  0.00  0.00    +0.158 A 
ATOM      6  C   LIG    1       22.218 -18.348   4.433  0.00  0.00    +0.049 A 
ATOM      7  C   LIG    1       23.294 -17.484   4.202  0.00  0.00    +0.010 A 
BRANCH   4   8
ATOM      8  O   LIG    1       23.898 -21.570   4.055  0.00  0.00    -0.503 OA
ATOM      9  H   LIG    1       23.001 -21.952   3.986  0.00  0.00    +0.292 HD
ENDBRANCH   4   8
BRANCH   5  10
ATOM     10  O   LIG    1       21.422 -20.621   4.587  0.00  0.00    -0.503 OA
ATOM     11  H   LIG    1       20.961 -20.365   5.406  0.00  0.00    +0.292 HD
ENDBRANCH   5  10
ENDBRANCH   1   2
BRANCH   1  12
ATOM     12  O   LIG    1       26.633 -17.595   2.710  0.00  0.00    -0.386 OA
ATOM     13  H   LIG    1       26.414 -18.541   2.678  0.00  0.00    +0.210 HD
ENDBRANCH   1  12
BRANCH   1  14
ATOM     14  C   LIG    1       25.388 -15.509   3.247  0.00  0.00    +0.087 C 
BRANCH  14  16
ATOM     15  C   LIG    1       27.576 -14.351   4.028  0.00  0.00    +0.005 C 
ATOM     16  C   LIG    1       26.720 -14.805   2.852  0.00  0.00    +0.018 C 
ENDBRANCH  14  16
BRANCH  14  17
ATOM     17  N   LIG    1       24.663 -14.640   4.210  0.00  0.00    -0.308 NA
ATOM     18  H   LIG    1       25.323 -14.308   4.912  0.00  0.00    +0.122 HD
BRANCH  17  19
ATOM     19  C   LIG    1       23.915 -13.489   3.694  0.00  0.00    +0.048 C 
ATOM     20  C   LIG    1       24.324 -13.045   2.290  0.00  0.00    +0.024 C 
ATOM     21  C   LIG    1       24.111 -12.315   4.665  0.00  0.00    +0.024 C 
ENDBRANCH  17  19
ENDBRANCH  14  17
ENDBRANCH   1  14
TORSDOF 8
ENDMDL
MODEL 9
REMARK VINA RESULT:      -3.8      0.632      1.582
REMARK  Name = *****
REMARK                            x       y       z     vdW  Elec       q    Type
REMARK                         _______ _______ _______ _____ _____    ______ ____
ROOT
ATOM      1  C   LIG    1       26.172 -17.506   3.370  0.00  0.00    +0.161 C 
ENDROOT
BRANCH   1   2
ATOM      2  C   LIG    1       25.766 -16.038   3.346  0.00  0.00    -0.014 A 
ATOM      3  C   LIG    1       24.614 -15.573   3.995  0.00  0.00    +0.055 A 
ATOM      4  C   LIG    1       24.284 -14.227   3.954  0.00  0.00    +0.159 A 
ATOM      5  C   LIG    1       25.090 -13.314   3.274  0.00  0.00    +0.158 A 
ATOM      6  C   LIG    1       26.246 -13.744   2.642  0.00  0.00    +0.049 A 
ATOM      7  C   LIG    1       26.587 -15.100   2.689  0.00  0.00    +0.010 A 
BRANCH   4   8
ATOM      8  O   LIG    1       23.157 -13.800   4.593  0.00  0.00    -0.503 OA
ATOM      9  H   LIG    1       23.454 -13.596   5.501  0.00  0.00    +0.292 HD
ENDBRANCH   4   8
BRANCH   5  10
ATOM     10  O   LIG    1       24.693 -12.008   3.271  0.00  0.00    -0.503 OA
ATOM     11  H   LIG    1       25.235 -11.530   3.923  0.00  0.00    +0.292 HD
ENDBRANCH   5  10
ENDBRANCH   1   2
BRANCH   1  12
ATOM     12  O   LIG    1       27.541 -17.600   3.769  0.00  0.00    -0.386 OA
ATOM     13  H   LIG    1       27.630 -17.046   4.563  0.00  0.00    +0.210 HD
ENDBRANCH   1  12
BRANCH   1  14
ATOM     14  C   LIG    1       25.273 -18.544   4.157  0.00  0.00    +0.087 C 
BRANCH  14  16
ATOM     15  C   LIG    1       26.097 -20.411   5.762  0.00  0.00    +0.005 C 
ATOM     16  C   LIG    1       26.094 -19.853   4.343  0.00  0.00    +0.018 C 
ENDBRANCH  14  16
BRANCH  14  17
ATOM     17  N   LIG    1       23.929 -18.900   3.630  0.00  0.00    -0.308 NA
ATOM     18  H   LIG    1       24.008 -19.762   3.090  0.00  0.00    +0.122 HD
BRANCH  17  19
ATOM     19  C   LIG    1       22.818 -19.044   4.576  0.00  0.00    +0.048 C 
ATOM     20  C   LIG    1       22.430 -20.491   4.883  0.00  0.00    +0.024 C 
ATOM     21  C   LIG    1       21.598 -18.312   3.998  0.00  0.00    +0.024 C 
ENDBRANCH  17  19
ENDBRANCH  14  17
ENDBRANCH   1  14
TORSDOF 8
ENDMDL
