MODEL 1
REMARK VINA RESULT:      -8.1      0.000      0.000
REMARK  Name = *****
REMARK                            x       y       z     vdW  Elec       q    Type
REMARK                         _______ _______ _______ _____ _____    ______ ____
ROOT
ATOM      1  N   LIG    1       27.482 -21.103   7.320  0.00  0.00    -0.307 N 
ATOM      2  C   LIG    1       28.804 -20.967   7.665  0.00  0.00    +0.170 A 
ATOM      3  N   LIG    1       29.450 -21.560   8.700  0.00  0.00    -0.196 NA
ATOM      4  C   LIG    1       30.715 -21.242   8.772  0.00  0.00    +0.195 C 
ATOM      5  N   LIG    1       31.353 -20.402   7.880  0.00  0.00    -0.293 N 
ATOM      6  H   LIG    1       32.322 -20.164   8.012  0.00  0.00    +0.172 HD
ATOM      7  C   LIG    1       30.731 -19.763   6.821  0.00  0.00    +0.280 C 
ATOM      8  O   LIG    1       31.342 -19.006   6.069  0.00  0.00    -0.265 OA
ATOM      9  C   LIG    1       29.328 -20.099   6.730  0.00  0.00    +0.172 A 
ATOM     10  N   LIG    1       28.384 -19.693   5.830  0.00  0.00    -0.229 NA
ATOM     11  C   LIG    1       27.288 -20.320   6.204  0.00  0.00    +0.202 A 
ENDROOT
BRANCH   1  14
ATOM     12  C   LIG    1       26.201 -24.087   6.550  0.00  0.00    +0.010 C 
ATOM     13  C   LIG    1       25.762 -22.893   6.980  0.00  0.00    -0.046 C 
ATOM     14  C   LIG    1       26.508 -21.989   7.958  0.00  0.00    +0.118 C 
ATOM     15  C   LIG    1       25.343 -21.249   8.621  0.00  0.00    +0.061 C 
ATOM     16  C   LIG    1       24.371 -21.009   7.474  0.00  0.00    +0.126 C 
ATOM     17  C   LIG    1       24.388 -22.323   6.675  0.00  0.00    +0.070 C 
BRANCH  16  18
ATOM     18  O   LIG    1       23.071 -20.691   7.946  0.00  0.00    -0.391 OA
ATOM     19  H   LIG    1       22.598 -20.199   7.250  0.00  0.00    +0.210 HD
ENDBRANCH  16  18
BRANCH  17  20
ATOM     20  C   LIG    1       24.070 -22.073   5.195  0.00  0.00    +0.166 C 
BRANCH  20  21
ATOM     21  O   LIG    1       22.784 -21.476   5.046  0.00  0.00    -0.394 OA
ATOM     22  H   LIG    1       22.235 -21.740   5.810  0.00  0.00    +0.209 HD
ENDBRANCH  20  21
ENDBRANCH  17  20
ENDBRANCH   1  14
BRANCH   4  23
ATOM     23  N   LIG    1       31.496 -21.744   9.762  0.00  0.00    -0.329 N 
ATOM     24  H   LIG    1       31.508 -21.234  10.635  0.00  0.00    +0.145 HD
ATOM     25  H   LIG    1       32.426 -21.991   9.439  0.00  0.00    +0.145 HD
ENDBRANCH   4  23
TORSDOF 5
ENDMDL
MODEL 2
REMARK VINA RESULT:      -7.4      2.025      3.218
REMARK  Name = *****
REMARK                            x       y       z     vdW  Elec       q    Type
REMARK                         _______ _______ _______ _____ _____    ______ ____
ROOT
ATOM      1  N   LIG    1       26.479 -20.871   7.072  0.00  0.00    -0.307 N 
ATOM      2  C   LIG    1       27.723 -20.318   6.884  0.00  0.00    +0.170 A 
ATOM      3  N   LIG    1       28.095 -19.440   5.920  0.00  0.00    -0.196 NA
ATOM      4  C   LIG    1       29.351 -19.085   5.999  0.00  0.00    +0.195 C 
ATOM      5  N   LIG    1       30.221 -19.534   6.974  0.00  0.00    -0.293 N 
ATOM      6  H   LIG    1       31.187 -19.254   6.959  0.00  0.00    +0.172 HD
ATOM      7  C   LIG    1       29.887 -20.440   7.966  0.00  0.00    +0.280 C 
ATOM      8  O   LIG    1       30.709 -20.825   8.797  0.00  0.00    -0.265 OA
ATOM      9  C   LIG    1       28.504 -20.849   7.889  0.00  0.00    +0.172 A 
ATOM     10  N   LIG    1       27.795 -21.707   8.682  0.00  0.00    -0.229 NA
ATOM     11  C   LIG    1       26.581 -21.692   8.172  0.00  0.00    +0.202 A 
ENDROOT
BRANCH   1  14
ATOM     12  C   LIG    1       23.233 -20.711   7.828  0.00  0.00    +0.010 C 
ATOM     13  C   LIG    1       24.008 -21.221   6.857  0.00  0.00    -0.046 C 
ATOM     14  C   LIG    1       25.270 -20.559   6.311  0.00  0.00    +0.118 C 
ATOM     15  C   LIG    1       25.288 -21.099   4.877  0.00  0.00    +0.061 C 
ATOM     16  C   LIG    1       24.818 -22.539   5.031  0.00  0.00    +0.126 C 
ATOM     17  C   LIG    1       23.668 -22.462   6.050  0.00  0.00    +0.070 C 
BRANCH  16  18
ATOM     18  O   LIG    1       24.394 -23.087   3.793  0.00  0.00    -0.391 OA
ATOM     19  H   LIG    1       24.603 -24.039   3.784  0.00  0.00    +0.210 HD
ENDBRANCH  16  18
BRANCH  17  20
ATOM     20  C   LIG    1       23.541 -23.771   6.838  0.00  0.00    +0.166 C 
BRANCH  20  21
ATOM     21  O   LIG    1       23.368 -24.879   5.959  0.00  0.00    -0.394 OA
ATOM     22  H   LIG    1       23.028 -25.631   6.481  0.00  0.00    +0.209 HD
ENDBRANCH  20  21
ENDBRANCH  17  20
ENDBRANCH   1  14
BRANCH   4  23
ATOM     23  N   LIG    1       29.880 -18.221   5.097  0.00  0.00    -0.329 N 
ATOM     24  H   LIG    1       29.327 -18.030   4.271  0.00  0.00    +0.145 HD
ATOM     25  H   LIG    1       30.850 -18.427   4.881  0.00  0.00    +0.145 HD
ENDBRANCH   4  23
TORSDOF 5
ENDMDL
MODEL 3
REMARK VINA RESULT:      -7.2      2.067      6.207
REMARK  Name = *****
REMARK                            x       y       z     vdW  Elec       q    Type
REMARK                         _______ _______ _______ _____ _____    ______ ____
ROOT
ATOM      1  N   LIG    1       27.289 -21.064   7.365  0.00  0.00    -0.307 N 
ATOM      2  C   LIG    1       26.187 -21.743   6.904  0.00  0.00    +0.170 A 
ATOM      3  N   LIG    1       26.127 -22.593   5.849  0.00  0.00    -0.196 NA
ATOM      4  C   LIG    1       24.936 -23.095   5.655  0.00  0.00    +0.195 C 
ATOM      5  N   LIG    1       23.841 -22.815   6.448  0.00  0.00    -0.293 N 
ATOM      6  H   LIG    1       22.941 -23.203   6.225  0.00  0.00    +0.172 HD
ATOM      7  C   LIG    1       23.854 -21.944   7.524  0.00  0.00    +0.280 C 
ATOM      8  O   LIG    1       22.842 -21.712   8.185  0.00  0.00    -0.265 OA
ATOM      9  C   LIG    1       25.162 -21.373   7.749  0.00  0.00    +0.172 A 
ATOM     10  N   LIG    1       25.586 -20.494   8.705  0.00  0.00    -0.229 NA
ATOM     11  C   LIG    1       26.868 -20.335   8.454  0.00  0.00    +0.202 A 
ENDROOT
BRANCH   1  14
ATOM     12  C   LIG    1       30.276 -21.481   8.793  0.00  0.00    +0.010 C 
ATOM     13  C   LIG    1       29.725 -20.716   7.838  0.00  0.00    -0.046 C 
ATOM     14  C   LIG    1       28.654 -21.183   6.855  0.00  0.00    +0.118 C 
ATOM     15  C   LIG    1       28.944 -20.278   5.654  0.00  0.00    +0.061 C 
ATOM     16  C   LIG    1       29.300 -18.941   6.290  0.00  0.00    +0.126 C 
ATOM     17  C   LIG    1       30.185 -19.310   7.492  0.00  0.00    +0.070 C 
BRANCH  16  18
ATOM     18  O   LIG    1       29.974 -18.089   5.377  0.00  0.00    -0.391 OA
ATOM     19  H   LIG    1       29.659 -17.176   5.510  0.00  0.00    +0.210 HD
ENDBRANCH  16  18
BRANCH  17  20
ATOM     20  C   LIG    1       30.066 -18.263   8.606  0.00  0.00    +0.166 C 
BRANCH  20  21
ATOM     21  O   LIG    1       31.204 -17.405   8.621  0.00  0.00    -0.394 OA
ATOM     22  H   LIG    1       30.898 -16.496   8.802  0.00  0.00    +0.209 HD
ENDBRANCH  20  21
ENDBRANCH  17  20
ENDBRANCH   1  14
BRANCH   4  23
ATOM     23  N   LIG    1       24.710 -23.953   4.628  0.00  0.00    -0.329 N 
ATOM     24  H   LIG    1       25.068 -24.893   4.734  0.00  0.00    +0.145 HD
ATOM     25  H   LIG    1       24.931 -23.548   3.724  0.00  0.00    +0.145 HD
ENDBRANCH   4  23
TORSDOF 5
ENDMDL
MODEL 4
REMARK VINA RESULT:      -6.9      2.160      3.232
REMARK  Name = *****
REMARK                            x       y       z     vdW  Elec       q    Type
REMARK                         _______ _______ _______ _____ _____    ______ ____
ROOT
ATOM      1  N   LIG    1       26.489 -21.324   6.612  0.00  0.00    -0.307 N 
ATOM      2  C   LIG    1       27.522 -20.419   6.581  0.00  0.00    +0.170 A 
ATOM      3  N   LIG    1       28.104 -19.873   5.485  0.00  0.00    -0.196 NA
ATOM      4  C   LIG    1       29.065 -19.035   5.771  0.00  0.00    +0.195 C 
ATOM      5  N   LIG    1       29.449 -18.710   7.058  0.00  0.00    -0.293 N 
ATOM      6  H   LIG    1       30.223 -18.087   7.214  0.00  0.00    +0.172 HD
ATOM      7  C   LIG    1       28.894 -19.254   8.203  0.00  0.00    +0.280 C 
ATOM      8  O   LIG    1       29.290 -18.947   9.327  0.00  0.00    -0.265 OA
ATOM      9  C   LIG    1       27.834 -20.189   7.905  0.00  0.00    +0.172 A 
ATOM     10  N   LIG    1       27.039 -20.916   8.746  0.00  0.00    -0.229 NA
ATOM     11  C   LIG    1       26.236 -21.580   7.941  0.00  0.00    +0.202 A 
ENDROOT
BRANCH   1  14
ATOM     12  C   LIG    1       25.181 -19.901   3.891  0.00  0.00    +0.010 C 
ATOM     13  C   LIG    1       24.815 -20.793   4.825  0.00  0.00    -0.046 C 
ATOM     14  C   LIG    1       25.743 -21.825   5.459  0.00  0.00    +0.118 C 
ATOM     15  C   LIG    1       24.751 -22.940   5.804  0.00  0.00    +0.061 C 
ATOM     16  C   LIG    1       23.514 -22.186   6.273  0.00  0.00    +0.126 C 
ATOM     17  C   LIG    1       23.385 -21.010   5.291  0.00  0.00    +0.070 C 
BRANCH  16  18
ATOM     18  O   LIG    1       22.361 -23.013   6.265  0.00  0.00    -0.391 OA
ATOM     19  H   LIG    1       21.958 -22.997   7.152  0.00  0.00    +0.210 HD
ENDBRANCH  16  18
BRANCH  17  20
ATOM     20  C   LIG    1       22.697 -19.810   5.954  0.00  0.00    +0.166 C 
BRANCH  20  21
ATOM     21  O   LIG    1       22.193 -18.907   4.973  0.00  0.00    -0.394 OA
ATOM     22  H   LIG    1       22.632 -19.106   4.123  0.00  0.00    +0.209 HD
ENDBRANCH  20  21
ENDBRANCH  17  20
ENDBRANCH   1  14
BRANCH   4  23
ATOM     23  N   LIG    1       29.756 -18.414   4.782  0.00  0.00    -0.329 N 
ATOM     24  H   LIG    1       30.466 -18.960   4.312  0.00  0.00    +0.145 HD
ATOM     25  H   LIG    1       30.082 -17.492   5.052  0.00  0.00    +0.145 HD
ENDBRANCH   4  23
TORSDOF 5
ENDMDL
MODEL 5
REMARK VINA RESULT:      -6.8      3.969      6.033
REMARK  Name = *****
REMARK                            x       y       z     vdW  Elec       q    Type
REMARK                         _______ _______ _______ _____ _____    ______ ____
ROOT
ATOM      1  N   LIG    1       25.148 -24.970   6.589  0.00  0.00    -0.307 N 
ATOM      2  C   LIG    1       25.426 -23.680   6.973  0.00  0.00    +0.170 A 
ATOM      3  N   LIG    1       26.645 -23.146   7.236  0.00  0.00    -0.196 NA
ATOM      4  C   LIG    1       26.595 -21.884   7.574  0.00  0.00    +0.195 C 
ATOM      5  N   LIG    1       25.428 -21.148   7.643  0.00  0.00    -0.293 N 
ATOM      6  H   LIG    1       25.451 -20.190   7.947  0.00  0.00    +0.172 HD
ATOM      7  C   LIG    1       24.164 -21.656   7.398  0.00  0.00    +0.280 C 
ATOM      8  O   LIG    1       23.154 -20.961   7.495  0.00  0.00    -0.265 OA
ATOM      9  C   LIG    1       24.199 -23.053   7.029  0.00  0.00    +0.172 A 
ATOM     10  N   LIG    1       23.180 -23.902   6.700  0.00  0.00    -0.229 NA
ATOM     11  C   LIG    1       23.782 -25.042   6.432  0.00  0.00    +0.202 A 
ENDROOT
BRANCH   1  14
ATOM     12  C   LIG    1       25.965 -26.709   3.860  0.00  0.00    +0.010 C 
ATOM     13  C   LIG    1       25.725 -26.945   5.160  0.00  0.00    -0.046 C 
ATOM     14  C   LIG    1       26.126 -26.018   6.305  0.00  0.00    +0.118 C 
ATOM     15  C   LIG    1       26.303 -27.023   7.447  0.00  0.00    +0.061 C 
ATOM     16  C   LIG    1       25.173 -28.019   7.226  0.00  0.00    +0.126 C 
ATOM     17  C   LIG    1       25.147 -28.240   5.705  0.00  0.00    +0.070 C 
BRANCH  16  18
ATOM     18  O   LIG    1       25.395 -29.229   7.934  0.00  0.00    -0.391 OA
ATOM     19  H   LIG    1       24.572 -29.752   7.926  0.00  0.00    +0.210 HD
ENDBRANCH  16  18
BRANCH  17  20
ATOM     20  C   LIG    1       23.739 -28.610   5.225  0.00  0.00    +0.166 C 
BRANCH  20  21
ATOM     21  O   LIG    1       23.339 -29.874   5.748  0.00  0.00    -0.394 OA
ATOM     22  H   LIG    1       24.056 -30.514   5.576  0.00  0.00    +0.209 HD
ENDBRANCH  20  21
ENDBRANCH  17  20
ENDBRANCH   1  14
BRANCH   4  23
ATOM     23  N   LIG    1       27.731 -21.209   7.882  0.00  0.00    -0.329 N 
ATOM     24  H   LIG    1       28.583 -21.528   7.440  0.00  0.00    +0.145 HD
ATOM     25  H   LIG    1       27.838 -21.059   8.880  0.00  0.00    +0.145 HD
ENDBRANCH   4  23
TORSDOF 5
ENDMDL
MODEL 6
REMARK VINA RESULT:      -6.6      3.931      5.956
REMARK  Name = *****
REMARK                            x       y       z     vdW  Elec       q    Type
REMARK                         _______ _______ _______ _____ _____    ______ ____
ROOT
ATOM      1  N   LIG    1       25.333 -24.188   6.388  0.00  0.00    -0.307 N 
ATOM      2  C   LIG    1       25.581 -25.524   6.587  0.00  0.00    +0.170 A 
ATOM      3  N   LIG    1       25.980 -26.125   7.736  0.00  0.00    -0.196 NA
ATOM      4  C   LIG    1       26.130 -27.418   7.620  0.00  0.00    +0.195 C 
ATOM      5  N   LIG    1       25.890 -28.122   6.456  0.00  0.00    -0.293 N 
ATOM      6  H   LIG    1       26.061 -29.113   6.419  0.00  0.00    +0.172 HD
ATOM      7  C   LIG    1       25.497 -27.549   5.259  0.00  0.00    +0.280 C 
ATOM      8  O   LIG    1       25.319 -28.221   4.244  0.00  0.00    -0.265 OA
ATOM      9  C   LIG    1       25.333 -26.117   5.367  0.00  0.00    +0.172 A 
ATOM     10  N   LIG    1       24.948 -25.203   4.428  0.00  0.00    -0.229 NA
ATOM     11  C   LIG    1       24.948 -24.056   5.073  0.00  0.00    +0.202 A 
ENDROOT
BRANCH   1  14
ATOM     12  C   LIG    1       23.195 -21.820   7.371  0.00  0.00    +0.010 C 
ATOM     13  C   LIG    1       24.502 -21.928   7.082  0.00  0.00    -0.046 C 
ATOM     14  C   LIG    1       25.371 -23.140   7.408  0.00  0.00    +0.118 C 
ATOM     15  C   LIG    1       26.745 -22.482   7.564  0.00  0.00    +0.061 C 
ATOM     16  C   LIG    1       26.760 -21.420   6.473  0.00  0.00    +0.126 C 
ATOM     17  C   LIG    1       25.353 -20.803   6.518  0.00  0.00    +0.070 C 
BRANCH  16  18
ATOM     18  O   LIG    1       27.772 -20.451   6.699  0.00  0.00    -0.391 OA
ATOM     19  H   LIG    1       28.167 -20.609   7.576  0.00  0.00    +0.210 HD
ENDBRANCH  16  18
BRANCH  17  20
ATOM     20  C   LIG    1       24.942 -20.265   5.143  0.00  0.00    +0.166 C 
BRANCH  20  21
ATOM     21  O   LIG    1       26.048 -20.271   4.243  0.00  0.00    -0.394 OA
ATOM     22  H   LIG    1       26.866 -20.163   4.767  0.00  0.00    +0.209 HD
ENDBRANCH  20  21
ENDBRANCH  17  20
ENDBRANCH   1  14
BRANCH   4  23
ATOM     23  N   LIG    1       26.538 -28.162   8.679  0.00  0.00    -0.329 N 
ATOM     24  H   LIG    1       27.333 -27.813   9.199  0.00  0.00    +0.145 HD
ATOM     25  H   LIG    1       26.617 -29.149   8.456  0.00  0.00    +0.145 HD
ENDBRANCH   4  23
TORSDOF 5
ENDMDL
MODEL 7
REMARK VINA RESULT:      -6.6      1.314      1.525
REMARK  Name = *****
REMARK                            x       y       z     vdW  Elec       q    Type
REMARK                         _______ _______ _______ _____ _____    ______ ____
ROOT
ATOM      1  N   LIG    1       26.601 -20.843   6.900  0.00  0.00    -0.307 N 
ATOM      2  C   LIG    1       27.926 -20.804   7.257  0.00  0.00    +0.170 A 
ATOM      3  N   LIG    1       28.519 -21.451   8.292  0.00  0.00    -0.196 NA
ATOM      4  C   LIG    1       29.803 -21.224   8.378  0.00  0.00    +0.195 C 
ATOM      5  N   LIG    1       30.507 -20.423   7.501  0.00  0.00    -0.293 N 
ATOM      6  H   LIG    1       31.488 -20.255   7.643  0.00  0.00    +0.172 HD
ATOM      7  C   LIG    1       29.941 -19.733   6.442  0.00  0.00    +0.280 C 
ATOM      8  O   LIG    1       30.611 -19.013   5.703  0.00  0.00    -0.265 OA
ATOM      9  C   LIG    1       28.519 -19.967   6.336  0.00  0.00    +0.172 A 
ATOM     10  N   LIG    1       27.614 -19.488   5.431  0.00  0.00    -0.229 NA
ATOM     11  C   LIG    1       26.474 -20.039   5.790  0.00  0.00    +0.202 A 
ENDROOT
BRANCH   1  14
ATOM     12  C   LIG    1       26.195 -24.124   7.360  0.00  0.00    +0.010 C 
ATOM     13  C   LIG    1       25.465 -23.076   6.947  0.00  0.00    -0.046 C 
ATOM     14  C   LIG    1       25.561 -21.664   7.520  0.00  0.00    +0.118 C 
ATOM     15  C   LIG    1       24.140 -21.149   7.272  0.00  0.00    +0.061 C 
ATOM     16  C   LIG    1       23.781 -21.726   5.910  0.00  0.00    +0.126 C 
ATOM     17  C   LIG    1       24.325 -23.164   5.947  0.00  0.00    +0.070 C 
BRANCH  16  18
ATOM     18  O   LIG    1       22.382 -21.693   5.678  0.00  0.00    -0.391 OA
ATOM     19  H   LIG    1       22.154 -22.393   5.040  0.00  0.00    +0.210 HD
ENDBRANCH  16  18
BRANCH  17  20
ATOM     20  C   LIG    1       24.692 -23.651   4.540  0.00  0.00    +0.166 C 
BRANCH  20  21
ATOM     21  O   LIG    1       24.672 -25.075   4.473  0.00  0.00    -0.394 OA
ATOM     22  H   LIG    1       23.740 -25.363   4.418  0.00  0.00    +0.209 HD
ENDBRANCH  20  21
ENDBRANCH  17  20
ENDBRANCH   1  14
BRANCH   4  23
ATOM     23  N   LIG    1       30.537 -21.789   9.370  0.00  0.00    -0.329 N 
ATOM     24  H   LIG    1       30.023 -22.255  10.107  0.00  0.00    +0.145 HD
ATOM     25  H   LIG    1       31.258 -21.169   9.724  0.00  0.00    +0.145 HD
ENDBRANCH   4  23
TORSDOF 5
ENDMDL
MODEL 8
REMARK VINA RESULT:      -6.2      3.293      4.625
REMARK  Name = *****
REMARK                            x       y       z     vdW  Elec       q    Type
REMARK                         _______ _______ _______ _____ _____    ______ ____
ROOT
ATOM      1  N   LIG    1       23.597 -21.174   6.159  0.00  0.00    -0.307 N 
ATOM      2  C   LIG    1       24.775 -20.638   5.699  0.00  0.00    +0.170 A 
ATOM      3  N   LIG    1       26.022 -20.852   6.190  0.00  0.00    -0.196 NA
ATOM      4  C   LIG    1       26.952 -20.205   5.538  0.00  0.00    +0.195 C 
ATOM      5  N   LIG    1       26.711 -19.396   4.445  0.00  0.00    -0.293 N 
ATOM      6  H   LIG    1       27.465 -18.894   4.010  0.00  0.00    +0.172 HD
ATOM      7  C   LIG    1       25.455 -19.138   3.922  0.00  0.00    +0.280 C 
ATOM      8  O   LIG    1       25.293 -18.390   2.959  0.00  0.00    -0.265 OA
ATOM      9  C   LIG    1       24.412 -19.840   4.635  0.00  0.00    +0.172 A 
ATOM     10  N   LIG    1       23.062 -19.860   4.423  0.00  0.00    -0.229 NA
ATOM     11  C   LIG    1       22.601 -20.676   5.348  0.00  0.00    +0.202 A 
ENDROOT
BRANCH   1  14
ATOM     12  C   LIG    1       25.584 -22.239   8.619  0.00  0.00    +0.010 C 
ATOM     13  C   LIG    1       24.775 -22.770   7.689  0.00  0.00    -0.046 C 
ATOM     14  C   LIG    1       23.454 -22.159   7.230  0.00  0.00    +0.118 C 
ATOM     15  C   LIG    1       22.679 -23.413   6.814  0.00  0.00    +0.061 C 
ATOM     16  C   LIG    1       23.738 -24.286   6.154  0.00  0.00    +0.126 C 
ATOM     17  C   LIG    1       24.976 -24.136   7.055  0.00  0.00    +0.070 C 
BRANCH  16  18
ATOM     18  O   LIG    1       23.316 -25.638   6.055  0.00  0.00    -0.391 OA
ATOM     19  H   LIG    1       23.047 -25.947   6.939  0.00  0.00    +0.210 HD
ENDBRANCH  16  18
BRANCH  17  20
ATOM     20  C   LIG    1       26.268 -24.328   6.253  0.00  0.00    +0.166 C 
BRANCH  20  21
ATOM     21  O   LIG    1       26.300 -25.616   5.641  0.00  0.00    -0.394 OA
ATOM     22  H   LIG    1       25.414 -26.017   5.733  0.00  0.00    +0.209 HD
ENDBRANCH  20  21
ENDBRANCH  17  20
ENDBRANCH   1  14
BRANCH   4  23
ATOM     23  N   LIG    1       28.252 -20.305   5.915  0.00  0.00    -0.329 N 
ATOM     24  H   LIG    1       28.943 -19.974   5.255  0.00  0.00    +0.145 HD
ATOM     25  H   LIG    1       28.479 -21.217   6.298  0.00  0.00    +0.145 HD
ENDBRANCH   4  23
TORSDOF 5
ENDMDL
MODEL 9
REMARK VINA RESULT:      -6.2      2.166      6.279
REMARK  Name = *****
REMARK                            x       y       z     vdW  Elec       q    Type
REMARK                         _______ _______ _______ _____ _____    ______ ____
ROOT
ATOM      1  N   LIG    1       28.066 -20.409   7.610  0.00  0.00    -0.307 N 
ATOM      2  C   LIG    1       26.985 -20.359   6.764  0.00  0.00    +0.170 A 
ATOM      3  N   LIG    1       26.994 -20.097   5.433  0.00  0.00    -0.196 NA
ATOM      4  C   LIG    1       25.805 -20.125   4.891  0.00  0.00    +0.195 C 
ATOM      5  N   LIG    1       24.646 -20.410   5.586  0.00  0.00    -0.293 N 
ATOM      6  H   LIG    1       23.755 -20.378   5.121  0.00  0.00    +0.172 HD
ATOM      7  C   LIG    1       24.589 -20.667   6.946  0.00  0.00    +0.280 C 
ATOM      8  O   LIG    1       23.525 -20.893   7.521  0.00  0.00    -0.265 OA
ATOM      9  C   LIG    1       25.895 -20.634   7.562  0.00  0.00    +0.172 A 
ATOM     10  N   LIG    1       26.260 -20.846   8.862  0.00  0.00    -0.229 NA
ATOM     11  C   LIG    1       27.570 -20.713   8.857  0.00  0.00    +0.202 A 
ENDROOT
BRANCH   1  14
ATOM     12  C   LIG    1       30.911 -21.802   8.660  0.00  0.00    +0.010 C 
ATOM     13  C   LIG    1       30.452 -20.578   8.356  0.00  0.00    -0.046 C 
ATOM     14  C   LIG    1       29.471 -20.269   7.228  0.00  0.00    +0.118 C 
ATOM     15  C   LIG    1       29.873 -18.834   6.874  0.00  0.00    +0.061 C 
ATOM     16  C   LIG    1       30.179 -18.203   8.225  0.00  0.00    +0.126 C 
ATOM     17  C   LIG    1       30.951 -19.291   8.991  0.00  0.00    +0.070 C 
BRANCH  16  18
ATOM     18  O   LIG    1       30.938 -17.012   8.089  0.00  0.00    -0.391 OA
ATOM     19  H   LIG    1       30.605 -16.355   8.726  0.00  0.00    +0.210 HD
ENDBRANCH  16  18
BRANCH  17  20
ATOM     20  C   LIG    1       30.740 -19.156  10.504  0.00  0.00    +0.166 C 
BRANCH  20  21
ATOM     21  O   LIG    1       30.011 -17.970  10.811  0.00  0.00    -0.394 OA
ATOM     22  H   LIG    1       30.641 -17.225  10.842  0.00  0.00    +0.209 HD
ENDBRANCH  20  21
ENDBRANCH  17  20
ENDBRANCH   1  14
BRANCH   4  23
ATOM     23  N   LIG    1       25.645 -19.871   3.568  0.00  0.00    -0.329 N 
ATOM     24  H   LIG    1       26.311 -19.239   3.143  0.00  0.00    +0.145 HD
ATOM     25  H   LIG    1       24.684 -19.650   3.326  0.00  0.00    +0.145 HD
ENDBRANCH   4  23
TORSDOF 5
ENDMDL
