MODEL 1
REMARK VINA RESULT:      -7.2      0.000      0.000
REMARK  Name = *****
REMARK                            x       y       z     vdW  Elec       q    Type
REMARK                         _______ _______ _______ _____ _____    ______ ____
ROOT
ATOM      1  N   LIG    1       28.101 -20.007   6.357  0.00  0.00    -0.310 N 
ATOM      2  H   LIG    1       27.876 -19.860   5.380  0.00  0.00    +0.149 HD
ATOM      3  C   LIG    1       27.143 -20.549   7.188  0.00  0.00    +0.244 C 
ATOM      4  O   LIG    1       27.374 -20.970   8.321  0.00  0.00    -0.270 OA
ENDROOT
BRANCH   3   5
ATOM      5  C   LIG    1       25.771 -20.642   6.615  0.00  0.00    +0.037 A 
ATOM      6  C   LIG    1       24.685 -20.879   7.461  0.00  0.00    +0.015 A 
ATOM      7  C   LIG    1       23.401 -21.044   6.925  0.00  0.00    +0.023 A 
ATOM      8  C   LIG    1       23.176 -20.917   5.551  0.00  0.00    +0.025 A 
ATOM      9  C   LIG    1       24.270 -20.690   4.711  0.00  0.00    +0.023 A 
ATOM     10  C   LIG    1       25.555 -20.526   5.236  0.00  0.00    +0.015 A 
BRANCH   8  11
ATOM     11  N   LIG    1       21.933 -21.243   5.001  0.00  0.00    -0.358 N 
ATOM     12  H   LIG    1       21.798 -22.237   4.839  0.00  0.00    +0.142 HD
ATOM     13  H   LIG    1       21.145 -20.821   5.482  0.00  0.00    +0.142 HD
ENDBRANCH   8  11
ENDBRANCH   3   5
BRANCH   1  14
ATOM     14  C   LIG    1       29.495 -19.875   6.753  0.00  0.00    +0.120 C 
BRANCH  14  15
ATOM     15  C   LIG    1       29.672 -18.916   7.951  0.00  0.00    +0.103 C 
BRANCH  15  16
ATOM     16  N   LIG    1       30.463 -19.438   9.091  0.00  0.00    -0.301 NA
BRANCH  16  18
ATOM     17  C   LIG    1       30.948 -21.946   9.334  0.00  0.00    +0.020 C 
ATOM     18  C   LIG    1       31.314 -20.588   8.737  0.00  0.00    +0.081 C 
ENDBRANCH  16  18
BRANCH  16  19
ATOM     19  C   LIG    1       31.205 -18.332   9.728  0.00  0.00    +0.081 C 
ATOM     20  C   LIG    1       30.381 -17.483  10.693  0.00  0.00    +0.020 C 
ENDBRANCH  16  19
ENDBRANCH  15  16
ENDBRANCH  14  15
ENDBRANCH   1  14
TORSDOF 7
ENDMDL
MODEL 2
REMARK VINA RESULT:      -7.1      1.514      2.496
REMARK  Name = *****
REMARK                            x       y       z     vdW  Elec       q    Type
REMARK                         _______ _______ _______ _____ _____    ______ ____
ROOT
ATOM      1  N   LIG    1       27.973 -20.058   6.381  0.00  0.00    -0.310 N 
ATOM      2  H   LIG    1       27.784 -20.585   5.537  0.00  0.00    +0.149 HD
ATOM      3  C   LIG    1       27.291 -20.378   7.536  0.00  0.00    +0.244 C 
ATOM      4  O   LIG    1       27.595 -19.959   8.653  0.00  0.00    -0.270 OA
ENDROOT
BRANCH   3   5
ATOM      5  C   LIG    1       26.151 -21.322   7.369  0.00  0.00    +0.037 A 
ATOM      6  C   LIG    1       26.404 -22.686   7.199  0.00  0.00    +0.015 A 
ATOM      7  C   LIG    1       25.343 -23.572   6.967  0.00  0.00    +0.023 A 
ATOM      8  C   LIG    1       24.020 -23.120   6.959  0.00  0.00    +0.025 A 
ATOM      9  C   LIG    1       23.778 -21.753   7.119  0.00  0.00    +0.023 A 
ATOM     10  C   LIG    1       24.829 -20.861   7.350  0.00  0.00    +0.015 A 
BRANCH   8  11
ATOM     11  N   LIG    1       22.982 -23.969   6.564  0.00  0.00    -0.358 N 
ATOM     12  H   LIG    1       22.289 -23.528   5.966  0.00  0.00    +0.142 HD
ATOM     13  H   LIG    1       23.295 -24.862   6.197  0.00  0.00    +0.142 HD
ENDBRANCH   8  11
ENDBRANCH   3   5
BRANCH   1  14
ATOM     14  C   LIG    1       29.130 -19.175   6.376  0.00  0.00    +0.120 C 
BRANCH  14  15
ATOM     15  C   LIG    1       30.415 -19.895   6.841  0.00  0.00    +0.103 C 
BRANCH  15  16
ATOM     16  N   LIG    1       31.161 -19.247   7.947  0.00  0.00    -0.301 NA
BRANCH  16  18
ATOM     17  C   LIG    1       30.169 -17.731   9.765  0.00  0.00    +0.020 C 
ATOM     18  C   LIG    1       30.626 -17.925   8.320  0.00  0.00    +0.081 C 
ENDBRANCH  16  18
BRANCH  16  19
ATOM     19  C   LIG    1       31.267 -20.179   9.087  0.00  0.00    +0.081 C 
ATOM     20  C   LIG    1       30.781 -21.597   8.799  0.00  0.00    +0.020 C 
ENDBRANCH  16  19
ENDBRANCH  15  16
ENDBRANCH  14  15
ENDBRANCH   1  14
TORSDOF 7
ENDMDL
MODEL 3
REMARK VINA RESULT:      -7.1      2.780      3.078
REMARK  Name = *****
REMARK                            x       y       z     vdW  Elec       q    Type
REMARK                         _______ _______ _______ _____ _____    ______ ____
ROOT
ATOM      1  N   LIG    1       26.909 -21.436   7.437  0.00  0.00    -0.310 N 
ATOM      2  H   LIG    1       27.539 -22.191   7.193  0.00  0.00    +0.149 HD
ATOM      3  C   LIG    1       25.568 -21.710   7.600  0.00  0.00    +0.244 C 
ATOM      4  O   LIG    1       24.762 -20.928   8.104  0.00  0.00    -0.270 OA
ENDROOT
BRANCH   3   5
ATOM      5  C   LIG    1       25.129 -23.064   7.158  0.00  0.00    +0.037 A 
ATOM      6  C   LIG    1       26.081 -24.069   6.967  0.00  0.00    +0.015 A 
ATOM      7  C   LIG    1       25.688 -25.323   6.480  0.00  0.00    +0.023 A 
ATOM      8  C   LIG    1       24.341 -25.606   6.234  0.00  0.00    +0.025 A 
ATOM      9  C   LIG    1       23.398 -24.592   6.418  0.00  0.00    +0.023 A 
ATOM     10  C   LIG    1       23.779 -23.337   6.902  0.00  0.00    +0.015 A 
BRANCH   8  11
ATOM     11  N   LIG    1       23.971 -26.793   5.594  0.00  0.00    -0.358 N 
ATOM     12  H   LIG    1       23.597 -26.662   4.659  0.00  0.00    +0.142 HD
ATOM     13  H   LIG    1       24.679 -27.519   5.628  0.00  0.00    +0.142 HD
ENDBRANCH   8  11
ENDBRANCH   3   5
BRANCH   1  14
ATOM     14  C   LIG    1       27.504 -20.172   7.846  0.00  0.00    +0.120 C 
BRANCH  14  15
ATOM     15  C   LIG    1       29.019 -20.119   7.555  0.00  0.00    +0.103 C 
BRANCH  15  16
ATOM     16  N   LIG    1       29.883 -19.678   8.676  0.00  0.00    -0.301 NA
BRANCH  16  18
ATOM     17  C   LIG    1       31.047 -21.911   9.172  0.00  0.00    +0.020 C 
ATOM     18  C   LIG    1       31.143 -20.437   8.780  0.00  0.00    +0.081 C 
ENDBRANCH  16  18
BRANCH  16  19
ATOM     19  C   LIG    1       30.083 -18.217   8.605  0.00  0.00    +0.081 C 
ATOM     20  C   LIG    1       30.286 -17.534   9.955  0.00  0.00    +0.020 C 
ENDBRANCH  16  19
ENDBRANCH  15  16
ENDBRANCH  14  15
ENDBRANCH   1  14
TORSDOF 7
ENDMDL
MODEL 4
REMARK VINA RESULT:      -7.0      2.113      7.388
REMARK  Name = *****
REMARK                            x       y       z     vdW  Elec       q    Type
REMARK                         _______ _______ _______ _____ _____    ______ ____
ROOT
ATOM      1  N   LIG    1       29.424 -19.514   7.584  0.00  0.00    -0.310 N 
ATOM      2  H   LIG    1       28.762 -19.275   8.313  0.00  0.00    +0.149 HD
ATOM      3  C   LIG    1       30.743 -19.143   7.733  0.00  0.00    +0.244 C 
ATOM      4  O   LIG    1       31.660 -19.565   7.027  0.00  0.00    -0.270 OA
ENDROOT
BRANCH   3   5
ATOM      5  C   LIG    1       31.026 -18.202   8.853  0.00  0.00    +0.037 A 
ATOM      6  C   LIG    1       32.251 -17.531   8.898  0.00  0.00    +0.015 A 
ATOM      7  C   LIG    1       32.557 -16.703   9.985  0.00  0.00    +0.023 A 
ATOM      8  C   LIG    1       31.628 -16.490  11.008  0.00  0.00    +0.025 A 
ATOM      9  C   LIG    1       30.410 -17.173  10.960  0.00  0.00    +0.023 A 
ATOM     10  C   LIG    1       30.095 -18.003   9.881  0.00  0.00    +0.015 A 
BRANCH   8  11
ATOM     11  N   LIG    1       31.994 -15.800  12.168  0.00  0.00    -0.358 N 
ATOM     12  H   LIG    1       31.791 -16.299  13.029  0.00  0.00    +0.142 HD
ATOM     13  H   LIG    1       32.940 -15.433  12.149  0.00  0.00    +0.142 HD
ENDBRANCH   8  11
ENDBRANCH   3   5
BRANCH   1  14
ATOM     14  C   LIG    1       28.986 -20.449   6.559  0.00  0.00    +0.120 C 
BRANCH  14  15
ATOM     15  C   LIG    1       27.696 -19.978   5.853  0.00  0.00    +0.103 C 
BRANCH  15  16
ATOM     16  N   LIG    1       26.460 -20.726   6.187  0.00  0.00    -0.301 NA
BRANCH  16  18
ATOM     17  C   LIG    1       26.030 -21.645   8.544  0.00  0.00    +0.020 C 
ATOM     18  C   LIG    1       25.977 -20.479   7.558  0.00  0.00    +0.081 C 
ENDBRANCH  16  18
BRANCH  16  19
ATOM     19  C   LIG    1       25.436 -20.482   5.152  0.00  0.00    +0.081 C 
ATOM     20  C   LIG    1       23.995 -20.539   5.654  0.00  0.00    +0.020 C 
ENDBRANCH  16  19
ENDBRANCH  15  16
ENDBRANCH  14  15
ENDBRANCH   1  14
TORSDOF 7
ENDMDL
MODEL 5
REMARK VINA RESULT:      -7.0      1.988      7.067
REMARK  Name = *****
REMARK                            x       y       z     vdW  Elec       q    Type
REMARK                         _______ _______ _______ _____ _____    ______ ____
ROOT
ATOM      1  N   LIG    1       26.901 -20.189   5.299  0.00  0.00    -0.310 N 
ATOM      2  H   LIG    1       26.892 -21.088   5.767  0.00  0.00    +0.149 HD
ATOM      3  C   LIG    1       28.003 -19.373   5.442  0.00  0.00    +0.244 C 
ATOM      4  O   LIG    1       28.214 -18.375   4.753  0.00  0.00    -0.270 OA
ENDROOT
BRANCH   3   5
ATOM      5  C   LIG    1       28.985 -19.792   6.482  0.00  0.00    +0.037 A 
ATOM      6  C   LIG    1       30.154 -19.049   6.666  0.00  0.00    +0.015 A 
ATOM      7  C   LIG    1       31.118 -19.477   7.588  0.00  0.00    +0.023 A 
ATOM      8  C   LIG    1       30.904 -20.613   8.375  0.00  0.00    +0.025 A 
ATOM      9  C   LIG    1       29.737 -21.355   8.176  0.00  0.00    +0.023 A 
ATOM     10  C   LIG    1       28.769 -20.939   7.257  0.00  0.00    +0.015 A 
BRANCH   8  11
ATOM     11  N   LIG    1       31.931 -21.130   9.170  0.00  0.00    -0.358 N 
ATOM     12  H   LIG    1       32.822 -21.221   8.691  0.00  0.00    +0.142 HD
ATOM     13  H   LIG    1       32.024 -20.675  10.073  0.00  0.00    +0.142 HD
ENDBRANCH   8  11
ENDBRANCH   3   5
BRANCH   1  14
ATOM     14  C   LIG    1       25.866 -19.937   4.308  0.00  0.00    +0.120 C 
BRANCH  14  15
ATOM     15  C   LIG    1       24.702 -20.947   4.411  0.00  0.00    +0.103 C 
BRANCH  15  16
ATOM     16  N   LIG    1       23.350 -20.367   4.593  0.00  0.00    -0.301 NA
BRANCH  16  18
ATOM     17  C   LIG    1       23.702 -21.162   7.008  0.00  0.00    +0.020 C 
ATOM     18  C   LIG    1       22.916 -20.322   6.002  0.00  0.00    +0.081 C 
ENDBRANCH  16  18
BRANCH  16  19
ATOM     19  C   LIG    1       23.276 -19.058   3.915  0.00  0.00    +0.081 C 
ATOM     20  C   LIG    1       22.222 -18.107   4.478  0.00  0.00    +0.020 C 
ENDBRANCH  16  19
ENDBRANCH  15  16
ENDBRANCH  14  15
ENDBRANCH   1  14
TORSDOF 7
ENDMDL
MODEL 6
REMARK VINA RESULT:      -7.0      2.133      7.052
REMARK  Name = *****
REMARK                            x       y       z     vdW  Elec       q    Type
REMARK                         _______ _______ _______ _____ _____    ______ ____
ROOT
ATOM      1  N   LIG    1       26.976 -20.115   5.253  0.00  0.00    -0.310 N 
ATOM      2  H   LIG    1       26.942 -21.019   5.710  0.00  0.00    +0.149 HD
ATOM      3  C   LIG    1       28.089 -19.320   5.428  0.00  0.00    +0.244 C 
ATOM      4  O   LIG    1       28.329 -18.317   4.755  0.00  0.00    -0.270 OA
ENDROOT
BRANCH   3   5
ATOM      5  C   LIG    1       29.043 -19.768   6.481  0.00  0.00    +0.037 A 
ATOM      6  C   LIG    1       30.241 -19.074   6.666  0.00  0.00    +0.015 A 
ATOM      7  C   LIG    1       31.179 -19.531   7.601  0.00  0.00    +0.023 A 
ATOM      8  C   LIG    1       30.909 -20.647   8.399  0.00  0.00    +0.025 A 
ATOM      9  C   LIG    1       29.713 -21.341   8.199  0.00  0.00    +0.023 A 
ATOM     10  C   LIG    1       28.772 -20.894   7.268  0.00  0.00    +0.015 A 
BRANCH   8  11
ATOM     11  N   LIG    1       31.907 -21.198   9.209  0.00  0.00    -0.358 N 
ATOM     12  H   LIG    1       32.439 -21.941   8.765  0.00  0.00    +0.142 HD
ATOM     13  H   LIG    1       32.504 -20.510   9.656  0.00  0.00    +0.142 HD
ENDBRANCH   8  11
ENDBRANCH   3   5
BRANCH   1  14
ATOM     14  C   LIG    1       25.964 -19.833   4.246  0.00  0.00    +0.120 C 
BRANCH  14  15
ATOM     15  C   LIG    1       24.748 -20.778   4.362  0.00  0.00    +0.103 C 
BRANCH  15  16
ATOM     16  N   LIG    1       24.253 -21.038   5.735  0.00  0.00    -0.301 NA
BRANCH  16  18
ATOM     17  C   LIG    1       22.457 -19.345   5.034  0.00  0.00    +0.020 C 
ATOM     18  C   LIG    1       22.957 -20.397   6.023  0.00  0.00    +0.081 C 
ENDBRANCH  16  18
BRANCH  16  19
ATOM     19  C   LIG    1       24.261 -22.490   6.000  0.00  0.00    +0.081 C 
ATOM     20  C   LIG    1       23.049 -23.004   6.773  0.00  0.00    +0.020 C 
ENDBRANCH  16  19
ENDBRANCH  15  16
ENDBRANCH  14  15
ENDBRANCH   1  14
TORSDOF 7
ENDMDL
MODEL 7
REMARK VINA RESULT:      -7.0      2.068      6.814
REMARK  Name = *****
REMARK                            x       y       z     vdW  Elec       q    Type
REMARK                         _______ _______ _______ _____ _____    ______ ____
ROOT
ATOM      1  N   LIG    1       26.026 -21.721   5.857  0.00  0.00    -0.310 N 
ATOM      2  H   LIG    1       26.703 -21.911   5.128  0.00  0.00    +0.149 HD
ATOM      3  C   LIG    1       26.374 -20.873   6.887  0.00  0.00    +0.244 C 
ATOM      4  O   LIG    1       25.571 -20.404   7.694  0.00  0.00    -0.270 OA
ENDROOT
BRANCH   3   5
ATOM      5  C   LIG    1       27.816 -20.503   6.958  0.00  0.00    +0.037 A 
ATOM      6  C   LIG    1       28.650 -21.153   7.872  0.00  0.00    +0.015 A 
ATOM      7  C   LIG    1       29.989 -20.762   8.000  0.00  0.00    +0.023 A 
ATOM      8  C   LIG    1       30.525 -19.762   7.182  0.00  0.00    +0.025 A 
ATOM      9  C   LIG    1       29.681 -19.111   6.279  0.00  0.00    +0.023 A 
ATOM     10  C   LIG    1       28.343 -19.492   6.145  0.00  0.00    +0.015 A 
BRANCH   8  11
ATOM     11  N   LIG    1       31.807 -19.260   7.423  0.00  0.00    -0.358 N 
ATOM     12  H   LIG    1       32.551 -19.787   6.975  0.00  0.00    +0.142 HD
ATOM     13  H   LIG    1       31.896 -18.261   7.267  0.00  0.00    +0.142 HD
ENDBRANCH   8  11
ENDBRANCH   3   5
BRANCH   1  14
ATOM     14  C   LIG    1       24.655 -22.152   5.629  0.00  0.00    +0.120 C 
BRANCH  14  15
ATOM     15  C   LIG    1       23.991 -21.390   4.462  0.00  0.00    +0.103 C 
BRANCH  15  16
ATOM     16  N   LIG    1       23.918 -19.916   4.603  0.00  0.00    -0.301 NA
BRANCH  16  18
ATOM     17  C   LIG    1       25.630 -18.363   3.486  0.00  0.00    +0.020 C 
ATOM     18  C   LIG    1       24.347 -19.189   3.394  0.00  0.00    +0.081 C 
ENDBRANCH  16  18
BRANCH  16  19
ATOM     19  C   LIG    1       22.575 -19.527   5.076  0.00  0.00    +0.081 C 
ATOM     20  C   LIG    1       22.072 -18.190   4.538  0.00  0.00    +0.020 C 
ENDBRANCH  16  19
ENDBRANCH  15  16
ENDBRANCH  14  15
ENDBRANCH   1  14
TORSDOF 7
ENDMDL
MODEL 8
REMARK VINA RESULT:      -6.9      2.226      7.184
REMARK  Name = *****
REMARK                            x       y       z     vdW  Elec       q    Type
REMARK                         _______ _______ _______ _____ _____    ______ ____
ROOT
ATOM      1  N   LIG    1       29.157 -19.838   7.776  0.00  0.00    -0.310 N 
ATOM      2  H   LIG    1       29.030 -20.115   8.743  0.00  0.00    +0.149 HD
ATOM      3  C   LIG    1       30.094 -18.873   7.475  0.00  0.00    +0.244 C 
ATOM      4  O   LIG    1       30.482 -18.623   6.333  0.00  0.00    -0.270 OA
ENDROOT
BRANCH   3   5
ATOM      5  C   LIG    1       30.669 -18.146   8.642  0.00  0.00    +0.037 A 
ATOM      6  C   LIG    1       29.889 -17.952   9.785  0.00  0.00    +0.015 A 
ATOM      7  C   LIG    1       30.392 -17.206  10.859  0.00  0.00    +0.023 A 
ATOM      8  C   LIG    1       31.693 -16.694  10.828  0.00  0.00    +0.025 A 
ATOM      9  C   LIG    1       32.461 -16.883   9.676  0.00  0.00    +0.023 A 
ATOM     10  C   LIG    1       31.968 -17.625   8.599  0.00  0.00    +0.015 A 
BRANCH   8  11
ATOM     11  N   LIG    1       32.133 -15.813  11.821  0.00  0.00    -0.358 N 
ATOM     12  H   LIG    1       33.069 -16.007  12.164  0.00  0.00    +0.142 HD
ATOM     13  H   LIG    1       32.002 -14.833  11.592  0.00  0.00    +0.142 HD
ENDBRANCH   8  11
ENDBRANCH   3   5
BRANCH   1  14
ATOM     14  C   LIG    1       28.524 -20.659   6.754  0.00  0.00    +0.120 C 
BRANCH  14  15
ATOM     15  C   LIG    1       27.057 -20.249   6.504  0.00  0.00    +0.103 C 
BRANCH  15  16
ATOM     16  N   LIG    1       26.035 -21.289   6.778  0.00  0.00    -0.301 NA
BRANCH  16  18
ATOM     17  C   LIG    1       25.827 -23.837   6.994  0.00  0.00    +0.020 C 
ATOM     18  C   LIG    1       26.604 -22.553   7.280  0.00  0.00    +0.081 C 
ENDBRANCH  16  18
BRANCH  16  19
ATOM     19  C   LIG    1       24.981 -20.732   7.650  0.00  0.00    +0.081 C 
ATOM     20  C   LIG    1       23.564 -20.856   7.095  0.00  0.00    +0.020 C 
ENDBRANCH  16  19
ENDBRANCH  15  16
ENDBRANCH  14  15
ENDBRANCH   1  14
TORSDOF 7
ENDMDL
MODEL 9
REMARK VINA RESULT:      -6.9      1.334      2.527
REMARK  Name = *****
REMARK                            x       y       z     vdW  Elec       q    Type
REMARK                         _______ _______ _______ _____ _____    ______ ____
ROOT
ATOM      1  N   LIG    1       27.659 -20.451   6.046  0.00  0.00    -0.310 N 
ATOM      2  H   LIG    1       27.643 -19.732   5.332  0.00  0.00    +0.149 HD
ATOM      3  C   LIG    1       26.498 -21.139   6.327  0.00  0.00    +0.244 C 
ATOM      4  O   LIG    1       26.454 -22.166   7.005  0.00  0.00    -0.270 OA
ENDROOT
BRANCH   3   5
ATOM      5  C   LIG    1       25.257 -20.585   5.717  0.00  0.00    +0.037 A 
ATOM      6  C   LIG    1       25.325 -19.943   4.478  0.00  0.00    +0.015 A 
ATOM      7  C   LIG    1       24.178 -19.352   3.931  0.00  0.00    +0.023 A 
ATOM      8  C   LIG    1       22.944 -19.445   4.582  0.00  0.00    +0.025 A 
ATOM      9  C   LIG    1       22.888 -20.080   5.825  0.00  0.00    +0.023 A 
ATOM     10  C   LIG    1       24.026 -20.670   6.381  0.00  0.00    +0.015 A 
BRANCH   8  11
ATOM     11  N   LIG    1       21.842 -18.718   4.121  0.00  0.00    -0.358 N 
ATOM     12  H   LIG    1       21.435 -19.078   3.264  0.00  0.00    +0.142 HD
ATOM     13  H   LIG    1       21.141 -18.535   4.833  0.00  0.00    +0.142 HD
ENDBRANCH   8  11
ENDBRANCH   3   5
BRANCH   1  14
ATOM     14  C   LIG    1       28.961 -20.879   6.538  0.00  0.00    +0.120 C 
BRANCH  14  15
ATOM     15  C   LIG    1       29.909 -19.687   6.789  0.00  0.00    +0.103 C 
BRANCH  15  16
ATOM     16  N   LIG    1       31.035 -19.935   7.723  0.00  0.00    -0.301 NA
BRANCH  16  18
ATOM     17  C   LIG    1       30.727 -17.639   8.826  0.00  0.00    +0.020 C 
ATOM     18  C   LIG    1       31.655 -18.700   8.236  0.00  0.00    +0.081 C 
ENDBRANCH  16  18
BRANCH  16  19
ATOM     19  C   LIG    1       30.602 -20.861   8.788  0.00  0.00    +0.081 C 
ATOM     20  C   LIG    1       31.520 -22.062   9.001  0.00  0.00    +0.020 C 
ENDBRANCH  16  19
ENDBRANCH  15  16
ENDBRANCH  14  15
ENDBRANCH   1  14
TORSDOF 7
ENDMDL
