MODEL 1
REMARK VINA RESULT:      -5.6      0.000      0.000
REMARK  Name = *****
REMARK                            x       y       z     vdW  Elec       q    Type
REMARK                         _______ _______ _______ _____ _____    ______ ____
ROOT
ATOM      1  CA  ILE A  1       30.881 -20.270   8.874  0.00  0.00    +0.164 C 
ENDROOT
BRANCH   1   2
ATOM      2  N   ILE A  1       32.011 -19.345   9.101  0.00  0.00    -0.318 NA
ATOM      3  H1  ILE A  1       32.788 -19.810   9.570  0.00  0.00    +0.119 HD
ATOM      4  H2  ILE A  1       32.312 -18.823   8.287  0.00  0.00    +0.119 HD
ENDBRANCH   1   2
BRANCH   1   5
ATOM      5  CB  ILE A  1       30.268 -20.180   7.447  0.00  0.00    +0.013 C 
ATOM      6  CG2 ILE A  1       29.998 -18.735   7.008  0.00  0.00    +0.009 C 
BRANCH   5   8
ATOM      7  CD1 ILE A  1       27.703 -20.346   7.703  0.00  0.00    +0.004 C 
ATOM      8  CG1 ILE A  1       28.999 -21.058   7.324  0.00  0.00    +0.002 C 
ENDBRANCH   5   8
ENDBRANCH   1   5
BRANCH   1   9
ATOM      9  C   ILE A  1       31.262 -21.722   9.225  0.00  0.00    +0.322 C 
ATOM     10  O   ILE A  1       30.755 -22.368  10.137  0.00  0.00    -0.249 OA
BRANCH   9  11
ATOM     11  OXT ILE A  1       32.205 -22.252   8.411  0.00  0.00    -0.479 OA
ATOM     12  HXT ILE A  1       32.044 -23.203   8.273  0.00  0.00    +0.295 HD
ENDBRANCH   9  11
ENDBRANCH   1   9
TORSDOF 5
ENDMDL
MODEL 2
REMARK VINA RESULT:      -5.2      1.727      2.026
REMARK  Name = *****
REMARK                            x       y       z     vdW  Elec       q    Type
REMARK                         _______ _______ _______ _____ _____    ______ ____
ROOT
ATOM      1  CA  ILE A  1       30.212 -21.090   8.132  0.00  0.00    +0.164 C 
ENDROOT
BRANCH   1   2
ATOM      2  N   ILE A  1       28.773 -21.192   8.449  0.00  0.00    -0.318 NA
ATOM      3  H1  ILE A  1       28.393 -20.298   8.760  0.00  0.00    +0.119 HD
ATOM      4  H2  ILE A  1       28.201 -21.621   7.731  0.00  0.00    +0.119 HD
ENDBRANCH   1   2
BRANCH   1   5
ATOM      5  CB  ILE A  1       30.726 -19.628   7.997  0.00  0.00    +0.013 C 
ATOM      6  CG2 ILE A  1       29.917 -18.634   8.840  0.00  0.00    +0.009 C 
BRANCH   5   8
ATOM      7  CD1 ILE A  1       29.485 -18.625   5.965  0.00  0.00    +0.004 C 
ATOM      8  CG1 ILE A  1       30.793 -19.189   6.513  0.00  0.00    +0.002 C 
ENDBRANCH   5   8
ENDBRANCH   1   5
BRANCH   1   9
ATOM      9  C   ILE A  1       31.069 -21.890   9.133  0.00  0.00    +0.322 C 
ATOM     10  O   ILE A  1       30.769 -22.072  10.308  0.00  0.00    -0.249 OA
BRANCH   9  11
ATOM     11  OXT ILE A  1       32.197 -22.411   8.593  0.00  0.00    -0.479 OA
ATOM     12  HXT ILE A  1       32.925 -22.399   9.240  0.00  0.00    +0.295 HD
ENDBRANCH   9  11
ENDBRANCH   1   9
TORSDOF 5
ENDMDL
MODEL 3
REMARK VINA RESULT:      -5.2      6.390      7.576
REMARK  Name = *****
REMARK                            x       y       z     vdW  Elec       q    Type
REMARK                         _______ _______ _______ _____ _____    ______ ____
ROOT
ATOM      1  CA  ILE A  1       24.309 -22.914   6.329  0.00  0.00    +0.164 C 
ENDROOT
BRANCH   1   2
ATOM      2  N   ILE A  1       24.718 -22.776   4.917  0.00  0.00    -0.318 NA
ATOM      3  H1  ILE A  1       23.951 -22.437   4.336  0.00  0.00    +0.119 HD
ATOM      4  H2  ILE A  1       25.573 -22.256   4.763  0.00  0.00    +0.119 HD
ENDBRANCH   1   2
BRANCH   1   5
ATOM      5  CB  ILE A  1       23.722 -21.612   6.946  0.00  0.00    +0.013 C 
ATOM      6  CG2 ILE A  1       23.054 -20.710   5.901  0.00  0.00    +0.009 C 
BRANCH   5   8
ATOM      7  CD1 ILE A  1       25.809 -21.737   8.463  0.00  0.00    +0.004 C 
ATOM      8  CG1 ILE A  1       24.791 -20.843   7.760  0.00  0.00    +0.002 C 
ENDBRANCH   5   8
ENDBRANCH   1   5
BRANCH   1   9
ATOM      9  C   ILE A  1       23.349 -24.104   6.526  0.00  0.00    +0.322 C 
ATOM     10  O   ILE A  1       23.696 -25.281   6.514  0.00  0.00    -0.249 OA
BRANCH   9  11
ATOM     11  OXT ILE A  1       22.064 -23.739   6.746  0.00  0.00    -0.479 OA
ATOM     12  HXT ILE A  1       21.852 -23.780   7.696  0.00  0.00    +0.295 HD
ENDBRANCH   9  11
ENDBRANCH   1   9
TORSDOF 5
ENDMDL
MODEL 4
REMARK VINA RESULT:      -5.1      6.382      7.526
REMARK  Name = *****
REMARK                            x       y       z     vdW  Elec       q    Type
REMARK                         _______ _______ _______ _____ _____    ______ ____
ROOT
ATOM      1  CA  ILE A  1       24.587 -20.955   4.735  0.00  0.00    +0.164 C 
ENDROOT
BRANCH   1   2
ATOM      2  N   ILE A  1       25.199 -22.192   5.263  0.00  0.00    -0.318 NA
ATOM      3  H1  ILE A  1       25.759 -22.007   6.095  0.00  0.00    +0.119 HD
ATOM      4  H2  ILE A  1       24.562 -22.967   5.395  0.00  0.00    +0.119 HD
ENDBRANCH   1   2
BRANCH   1   5
ATOM      5  CB  ILE A  1       23.554 -20.302   5.697  0.00  0.00    +0.013 C 
ATOM      6  CG2 ILE A  1       23.280 -21.157   6.942  0.00  0.00    +0.009 C 
BRANCH   5   8
ATOM      7  CD1 ILE A  1       22.161 -18.491   4.491  0.00  0.00    +0.004 C 
ATOM      8  CG1 ILE A  1       22.243 -19.944   4.956  0.00  0.00    +0.002 C 
ENDBRANCH   5   8
ENDBRANCH   1   5
BRANCH   1   9
ATOM      9  C   ILE A  1       25.659 -19.936   4.298  0.00  0.00    +0.322 C 
ATOM     10  O   ILE A  1       25.434 -18.954   3.598  0.00  0.00    -0.249 OA
BRANCH   9  11
ATOM     11  OXT ILE A  1       26.896 -20.203   4.780  0.00  0.00    -0.479 OA
ATOM     12  HXT ILE A  1       27.162 -21.114   4.558  0.00  0.00    +0.295 HD
ENDBRANCH   9  11
ENDBRANCH   1   9
TORSDOF 5
ENDMDL
MODEL 5
REMARK VINA RESULT:      -5.1      5.598      6.848
REMARK  Name = *****
REMARK                            x       y       z     vdW  Elec       q    Type
REMARK                         _______ _______ _______ _____ _____    ______ ____
ROOT
ATOM      1  CA  ILE A  1       24.930 -21.108   5.313  0.00  0.00    +0.164 C 
ENDROOT
BRANCH   1   2
ATOM      2  N   ILE A  1       25.053 -22.579   5.263  0.00  0.00    -0.318 NA
ATOM      3  H1  ILE A  1       24.752 -23.010   6.137  0.00  0.00    +0.119 HD
ATOM      4  H2  ILE A  1       24.633 -23.021   4.454  0.00  0.00    +0.119 HD
ENDBRANCH   1   2
BRANCH   1   5
ATOM      5  CB  ILE A  1       23.688 -20.605   6.105  0.00  0.00    +0.013 C 
ATOM      6  CG2 ILE A  1       23.285 -21.555   7.240  0.00  0.00    +0.009 C 
BRANCH   5   8
ATOM      7  CD1 ILE A  1       22.395 -18.857   4.710  0.00  0.00    +0.004 C 
ATOM      8  CG1 ILE A  1       22.498 -20.313   5.160  0.00  0.00    +0.002 C 
ENDBRANCH   5   8
ENDBRANCH   1   5
BRANCH   1   9
ATOM      9  C   ILE A  1       26.224 -20.449   5.832  0.00  0.00    +0.322 C 
ATOM     10  O   ILE A  1       26.480 -20.271   7.018  0.00  0.00    -0.249 OA
BRANCH   9  11
ATOM     11  OXT ILE A  1       27.089 -20.098   4.852  0.00  0.00    -0.479 OA
ATOM     12  HXT ILE A  1       27.965 -20.495   5.008  0.00  0.00    +0.295 HD
ENDBRANCH   9  11
ENDBRANCH   1   9
TORSDOF 5
ENDMDL
MODEL 6
REMARK VINA RESULT:      -5.1      2.557      2.979
REMARK  Name = *****
REMARK                            x       y       z     vdW  Elec       q    Type
REMARK                         _______ _______ _______ _____ _____    ______ ____
ROOT
ATOM      1  CA  ILE A  1       31.564 -19.508   8.424  0.00  0.00    +0.164 C 
ENDROOT
BRANCH   1   2
ATOM      2  N   ILE A  1       32.010 -20.696   9.180  0.00  0.00    -0.318 NA
ATOM      3  H1  ILE A  1       32.009 -20.522  10.185  0.00  0.00    +0.119 HD
ATOM      4  H2  ILE A  1       31.541 -21.561   8.941  0.00  0.00    +0.119 HD
ENDBRANCH   1   2
BRANCH   1   5
ATOM      5  CB  ILE A  1       30.068 -19.554   7.999  0.00  0.00    +0.013 C 
ATOM      6  CG2 ILE A  1       29.512 -20.983   7.945  0.00  0.00    +0.009 C 
BRANCH   5   8
ATOM      7  CD1 ILE A  1       28.703 -19.369   5.814  0.00  0.00    +0.004 C 
ATOM      8  CG1 ILE A  1       29.838 -18.805   6.665  0.00  0.00    +0.002 C 
ENDBRANCH   5   8
ENDBRANCH   1   5
BRANCH   1   9
ATOM      9  C   ILE A  1       31.886 -18.203   9.180  0.00  0.00    +0.322 C 
ATOM     10  O   ILE A  1       31.849 -18.085  10.401  0.00  0.00    -0.249 OA
BRANCH   9  11
ATOM     11  OXT ILE A  1       32.248 -17.178   8.372  0.00  0.00    -0.479 OA
ATOM     12  HXT ILE A  1       32.240 -16.336   8.862  0.00  0.00    +0.295 HD
ENDBRANCH   9  11
ENDBRANCH   1   9
TORSDOF 5
ENDMDL
MODEL 7
REMARK VINA RESULT:      -5.1      4.604      6.036
REMARK  Name = *****
REMARK                            x       y       z     vdW  Elec       q    Type
REMARK                         _______ _______ _______ _____ _____    ______ ____
ROOT
ATOM      1  CA  ILE A  1       25.564 -20.678   7.025  0.00  0.00    +0.164 C 
ENDROOT
BRANCH   1   2
ATOM      2  N   ILE A  1       26.161 -21.324   5.838  0.00  0.00    -0.318 NA
ATOM      3  H1  ILE A  1       25.665 -21.070   4.984  0.00  0.00    +0.119 HD
ATOM      4  H2  ILE A  1       27.164 -21.215   5.745  0.00  0.00    +0.119 HD
ENDBRANCH   1   2
BRANCH   1   5
ATOM      5  CB  ILE A  1       24.067 -21.033   7.250  0.00  0.00    +0.013 C 
ATOM      6  CG2 ILE A  1       23.791 -22.538   7.141  0.00  0.00    +0.009 C 
BRANCH   5   8
ATOM      7  CD1 ILE A  1       22.443 -21.051   5.242  0.00  0.00    +0.004 C 
ATOM      8  CG1 ILE A  1       23.147 -20.217   6.309  0.00  0.00    +0.002 C 
ENDBRANCH   5   8
ENDBRANCH   1   5
BRANCH   1   9
ATOM      9  C   ILE A  1       26.397 -20.948   8.294  0.00  0.00    +0.322 C 
ATOM     10  O   ILE A  1       27.490 -21.505   8.298  0.00  0.00    -0.249 OA
BRANCH   9  11
ATOM     11  OXT ILE A  1       25.823 -20.488   9.432  0.00  0.00    -0.479 OA
ATOM     12  HXT ILE A  1       24.918 -20.173   9.257  0.00  0.00    +0.295 HD
ENDBRANCH   9  11
ENDBRANCH   1   9
TORSDOF 5
ENDMDL
MODEL 8
REMARK VINA RESULT:      -5.0      6.562      7.625
REMARK  Name = *****
REMARK                            x       y       z     vdW  Elec       q    Type
REMARK                         _______ _______ _______ _____ _____    ______ ____
ROOT
ATOM      1  CA  ILE A  1       23.306 -21.626   6.939  0.00  0.00    +0.164 C 
ENDROOT
BRANCH   1   2
ATOM      2  N   ILE A  1       24.215 -21.116   7.986  0.00  0.00    -0.318 NA
ATOM      3  H1  ILE A  1       24.188 -21.700   8.822  0.00  0.00    +0.119 HD
ATOM      4  H2  ILE A  1       25.162 -20.927   7.681  0.00  0.00    +0.119 HD
ENDBRANCH   1   2
BRANCH   1   5
ATOM      5  CB  ILE A  1       23.491 -20.942   5.554  0.00  0.00    +0.013 C 
ATOM      6  CG2 ILE A  1       24.954 -20.588   5.258  0.00  0.00    +0.009 C 
BRANCH   5   8
ATOM      7  CD1 ILE A  1       22.858 -18.847   4.182  0.00  0.00    +0.004 C 
ATOM      8  CG1 ILE A  1       22.568 -19.708   5.409  0.00  0.00    +0.002 C 
ENDBRANCH   5   8
ENDBRANCH   1   5
BRANCH   1   9
ATOM      9  C   ILE A  1       23.391 -23.161   6.816  0.00  0.00    +0.322 C 
ATOM     10  O   ILE A  1       24.434 -23.803   6.891  0.00  0.00    -0.249 OA
BRANCH   9  11
ATOM     11  OXT ILE A  1       22.191 -23.763   6.639  0.00  0.00    -0.479 OA
ATOM     12  HXT ILE A  1       21.685 -23.320   5.934  0.00  0.00    +0.295 HD
ENDBRANCH   9  11
ENDBRANCH   1   9
TORSDOF 5
ENDMDL
MODEL 9
REMARK VINA RESULT:      -5.0      7.168      7.828
REMARK  Name = *****
REMARK                            x       y       z     vdW  Elec       q    Type
REMARK                         _______ _______ _______ _____ _____    ______ ____
ROOT
ATOM      1  CA  ILE A  1       24.243 -21.550   5.728  0.00  0.00    +0.164 C 
ENDROOT
BRANCH   1   2
ATOM      2  N   ILE A  1       25.108 -22.607   5.163  0.00  0.00    -0.318 NA
ATOM      3  H1  ILE A  1       25.975 -22.221   4.790  0.00  0.00    +0.119 HD
ATOM      4  H2  ILE A  1       25.273 -23.400   5.770  0.00  0.00    +0.119 HD
ENDBRANCH   1   2
BRANCH   1   5
ATOM      5  CB  ILE A  1       23.489 -20.713   4.656  0.00  0.00    +0.013 C 
ATOM      6  CG2 ILE A  1       24.433 -20.080   3.625  0.00  0.00    +0.009 C 
BRANCH   5   8
ATOM      7  CD1 ILE A  1       22.258 -18.454   4.420  0.00  0.00    +0.004 C 
ATOM      8  CG1 ILE A  1       22.573 -19.652   5.312  0.00  0.00    +0.002 C 
ENDBRANCH   5   8
ENDBRANCH   1   5
BRANCH   1   9
ATOM      9  C   ILE A  1       23.267 -22.119   6.776  0.00  0.00    +0.322 C 
ATOM     10  O   ILE A  1       23.172 -21.707   7.928  0.00  0.00    -0.249 OA
BRANCH   9  11
ATOM     11  OXT ILE A  1       22.483 -23.119   6.307  0.00  0.00    -0.479 OA
ATOM     12  HXT ILE A  1       22.195 -22.931   5.396  0.00  0.00    +0.295 HD
ENDBRANCH   9  11
ENDBRANCH   1   9
TORSDOF 5
ENDMDL
