MODEL 1
REMARK VINA RESULT:       2.8      0.000      0.000
REMARK  Name = *****
REMARK                            x       y       z     vdW  Elec       q    Type
REMARK                         _______ _______ _______ _____ _____    ______ ____
ROOT
ATOM      1  C   LIG    1       22.398 -17.234   3.925  0.00  0.00    +0.242 C 
ATOM      2  C   LIG    1       23.037 -18.599   3.457  0.00  0.00    +0.195 C 
ATOM      3  S   LIG    1       24.855 -18.682   3.220  0.00  0.00    -0.125 S 
ATOM      4  C   LIG    1       25.052 -20.070   4.433  0.00  0.00    +0.042 C 
ATOM      5  C   LIG    1       23.959 -19.808   5.485  0.00  0.00    +0.201 C 
ATOM      6  C   LIG    1       26.458 -19.960   5.031  0.00  0.00    +0.025 C 
ATOM      7  C   LIG    1       24.896 -21.396   3.677  0.00  0.00    +0.025 C 
ATOM      8  N   LIG    1       22.820 -19.153   4.819  0.00  0.00    -0.266 N 
ATOM      9  C   LIG    1       22.403 -17.952   5.331  0.00  0.00    +0.271 C 
ATOM     10  O   LIG    1       22.286 -17.611   6.497  0.00  0.00    -0.270 OA
ENDROOT
BRANCH   1  11
ATOM     11  N   LIG    1       23.305 -16.040   3.879  0.00  0.00    -0.277 N 
ATOM     12  H   LIG    1       24.073 -16.056   3.218  0.00  0.00    +0.152 HD
ATOM     13  C   LIG    1       23.180 -14.980   4.757  0.00  0.00    +0.234 C 
ATOM     14  O   LIG    1       22.306 -14.947   5.622  0.00  0.00    -0.275 OA
BRANCH  13  15
ATOM     15  C   LIG    1       24.182 -13.841   4.557  0.00  0.00    +0.213 C 
BRANCH  15  16
ATOM     16  C   LIG    1       25.587 -14.379   4.337  0.00  0.00    -0.018 A 
ATOM     17  C   LIG    1       26.750 -13.703   4.666  0.00  0.00    +0.050 A 
ATOM     18  S   LIG    1       28.164 -14.535   4.175  0.00  0.00    -0.105 S 
ATOM     19  C   LIG    1       27.252 -15.821   3.524  0.00  0.00    +0.045 A 
ATOM     20  C   LIG    1       25.902 -15.636   3.704  0.00  0.00    +0.012 A 
ENDBRANCH  15  16
BRANCH  15  21
ATOM     21  C   LIG    1       23.709 -12.886   3.467  0.00  0.00    +0.321 C 
ATOM     22  O   LIG    1       23.606 -11.678   3.657  0.00  0.00    -0.250 OA
BRANCH  21  23
ATOM     23  O   LIG    1       23.471 -13.400   2.238  0.00  0.00    -0.480 OA
ATOM     24  H   LIG    1       24.254 -13.589   1.684  0.00  0.00    +0.295 HD
ENDBRANCH  21  23
ENDBRANCH  15  21
ENDBRANCH  13  15
ENDBRANCH   1  11
BRANCH   1  26
ATOM     25  C   LIG    1       20.411 -18.037   2.738  0.00  0.00    +0.197 C 
ATOM     26  O   LIG    1       21.049 -16.978   3.442  0.00  0.00    -0.349 OA
ENDBRANCH   1  26
BRANCH   5  27
ATOM     27  C   LIG    1       23.522 -21.070   6.232  0.00  0.00    +0.327 C 
ATOM     28  O   LIG    1       22.412 -21.572   6.129  0.00  0.00    -0.249 OA
BRANCH  27  29
ATOM     29  O   LIG    1       24.469 -21.571   7.062  0.00  0.00    -0.479 OA
ATOM     30  H   LIG    1       24.235 -22.479   7.348  0.00  0.00    +0.295 HD
ENDBRANCH  27  29
ENDBRANCH   5  27
TORSDOF 8
ENDMDL
MODEL 2
REMARK VINA RESULT:       3.5      2.972      7.144
REMARK  Name = *****
REMARK                            x       y       z     vdW  Elec       q    Type
REMARK                         _______ _______ _______ _____ _____    ______ ____
ROOT
ATOM      1  C   LIG    1       26.029 -17.361   3.282  0.00  0.00    +0.242 C 
ATOM      2  C   LIG    1       25.769 -15.882   2.797  0.00  0.00    +0.195 C 
ATOM      3  S   LIG    1       24.506 -14.879   3.674  0.00  0.00    -0.125 S 
ATOM      4  C   LIG    1       25.718 -13.544   4.102  0.00  0.00    +0.042 C 
ATOM      5  C   LIG    1       27.049 -14.291   4.299  0.00  0.00    +0.201 C 
ATOM      6  C   LIG    1       25.236 -12.886   5.399  0.00  0.00    +0.025 C 
ATOM      7  C   LIG    1       25.731 -12.521   2.958  0.00  0.00    +0.025 C 
ATOM      8  N   LIG    1       27.057 -15.467   3.412  0.00  0.00    -0.266 N 
ATOM      9  C   LIG    1       27.267 -16.689   3.995  0.00  0.00    +0.271 C 
ATOM     10  O   LIG    1       28.049 -16.995   4.881  0.00  0.00    -0.270 OA
ENDROOT
BRANCH   1  11
ATOM     11  N   LIG    1       25.029 -17.914   4.254  0.00  0.00    -0.277 N 
ATOM     12  H   LIG    1       24.301 -17.292   4.587  0.00  0.00    +0.152 HD
ATOM     13  C   LIG    1       25.123 -19.194   4.767  0.00  0.00    +0.234 C 
ATOM     14  O   LIG    1       26.027 -19.963   4.445  0.00  0.00    -0.275 OA
BRANCH  13  15
ATOM     15  C   LIG    1       24.008 -19.596   5.735  0.00  0.00    +0.213 C 
BRANCH  15  16
ATOM     16  C   LIG    1       22.689 -19.788   5.004  0.00  0.00    -0.018 A 
ATOM     17  C   LIG    1       22.050 -18.809   4.262  0.00  0.00    +0.050 A 
ATOM     18  S   LIG    1       20.524 -19.313   3.670  0.00  0.00    -0.105 S 
ATOM     19  C   LIG    1       20.691 -20.854   4.382  0.00  0.00    +0.045 A 
ATOM     20  C   LIG    1       21.896 -20.992   5.030  0.00  0.00    +0.012 A 
ENDBRANCH  15  16
BRANCH  15  21
ATOM     21  C   LIG    1       24.427 -20.796   6.577  0.00  0.00    +0.321 C 
ATOM     22  O   LIG    1       23.608 -21.571   7.062  0.00  0.00    -0.250 OA
BRANCH  21  23
ATOM     23  O   LIG    1       25.751 -21.036   6.720  0.00  0.00    -0.480 OA
ATOM     24  H   LIG    1       26.359 -20.377   6.332  0.00  0.00    +0.295 HD
ENDBRANCH  21  23
ENDBRANCH  15  21
ENDBRANCH  13  15
ENDBRANCH   1  11
BRANCH   1  26
ATOM     25  C   LIG    1       25.534 -19.364   1.962  0.00  0.00    +0.197 C 
ATOM     26  O   LIG    1       26.433 -18.298   2.244  0.00  0.00    -0.349 OA
ENDBRANCH   1  26
BRANCH   5  27
ATOM     27  C   LIG    1       28.279 -13.410   4.073  0.00  0.00    +0.327 C 
ATOM     28  O   LIG    1       28.690 -12.595   4.885  0.00  0.00    -0.249 OA
BRANCH  27  29
ATOM     29  O   LIG    1       28.860 -13.581   2.861  0.00  0.00    -0.479 OA
ATOM     30  H   LIG    1       29.678 -13.046   2.789  0.00  0.00    +0.295 HD
ENDBRANCH  27  29
ENDBRANCH   5  27
TORSDOF 8
ENDMDL
MODEL 3
REMARK VINA RESULT:       4.5      3.111      4.457
REMARK  Name = *****
REMARK                            x       y       z     vdW  Elec       q    Type
REMARK                         _______ _______ _______ _____ _____    ______ ____
ROOT
ATOM      1  C   LIG    1       26.742 -18.089   3.957  0.00  0.00    +0.242 C 
ATOM      2  C   LIG    1       25.468 -18.393   4.836  0.00  0.00    +0.195 C 
ATOM      3  S   LIG    1       24.041 -17.243   4.741  0.00  0.00    -0.125 S 
ATOM      4  C   LIG    1       22.867 -18.581   4.227  0.00  0.00    +0.042 C 
ATOM      5  C   LIG    1       23.731 -19.540   3.389  0.00  0.00    +0.201 C 
ATOM      6  C   LIG    1       21.764 -17.927   3.388  0.00  0.00    +0.025 C 
ATOM      7  C   LIG    1       22.270 -19.212   5.493  0.00  0.00    +0.025 C 
ATOM      8  N   LIG    1       25.108 -19.499   3.910  0.00  0.00    -0.266 N 
ATOM      9  C   LIG    1       26.104 -19.188   3.021  0.00  0.00    +0.271 C 
ATOM     10  O   LIG    1       26.247 -19.555   1.866  0.00  0.00    -0.270 OA
ENDROOT
BRANCH   1  11
ATOM     11  N   LIG    1       26.784 -16.733   3.316  0.00  0.00    -0.277 N 
ATOM     12  H   LIG    1       26.432 -16.647   2.370  0.00  0.00    +0.152 HD
ATOM     13  C   LIG    1       27.361 -15.639   3.933  0.00  0.00    +0.234 C 
ATOM     14  O   LIG    1       27.863 -15.709   5.053  0.00  0.00    -0.275 OA
BRANCH  13  15
ATOM     15  C   LIG    1       27.302 -14.331   3.139  0.00  0.00    +0.213 C 
BRANCH  15  16
ATOM     16  C   LIG    1       25.920 -13.701   3.223  0.00  0.00    -0.018 A 
ATOM     17  C   LIG    1       25.364 -12.891   2.247  0.00  0.00    +0.050 A 
ATOM     18  S   LIG    1       23.846 -12.246   2.705  0.00  0.00    -0.105 S 
ATOM     19  C   LIG    1       23.893 -13.046   4.211  0.00  0.00    +0.045 A 
ATOM     20  C   LIG    1       25.027 -13.812   4.349  0.00  0.00    +0.012 A 
ENDBRANCH  15  16
BRANCH  15  21
ATOM     21  C   LIG    1       28.433 -13.395   3.550  0.00  0.00    +0.321 C 
ATOM     22  O   LIG    1       29.325 -13.070   2.772  0.00  0.00    -0.250 OA
BRANCH  21  23
ATOM     23  O   LIG    1       28.391 -12.861   4.792  0.00  0.00    -0.480 OA
ATOM     24  H   LIG    1       27.595 -13.055   5.325  0.00  0.00    +0.295 HD
ENDBRANCH  21  23
ENDBRANCH  15  21
ENDBRANCH  13  15
ENDBRANCH   1  11
BRANCH   1  26
ATOM     25  C   LIG    1       27.953 -19.533   5.523  0.00  0.00    +0.197 C 
ATOM     26  O   LIG    1       28.011 -18.519   4.526  0.00  0.00    -0.349 OA
ENDBRANCH   1  26
BRANCH   5  27
ATOM     27  C   LIG    1       23.189 -20.970   3.351  0.00  0.00    +0.327 C 
ATOM     28  O   LIG    1       22.747 -21.556   4.329  0.00  0.00    -0.249 OA
BRANCH  27  29
ATOM     29  O   LIG    1       23.276 -21.557   2.134  0.00  0.00    -0.479 OA
ATOM     30  H   LIG    1       23.651 -20.937   1.474  0.00  0.00    +0.295 HD
ENDBRANCH  27  29
ENDBRANCH   5  27
TORSDOF 8
ENDMDL
MODEL 4
REMARK VINA RESULT:       4.7      1.746      6.472
REMARK  Name = *****
REMARK                            x       y       z     vdW  Elec       q    Type
REMARK                         _______ _______ _______ _____ _____    ______ ____
ROOT
ATOM      1  C   LIG    1       22.991 -15.795   4.531  0.00  0.00    +0.242 C 
ATOM      2  C   LIG    1       24.167 -14.808   4.893  0.00  0.00    +0.195 C 
ATOM      3  S   LIG    1       25.890 -15.320   4.517  0.00  0.00    -0.125 S 
ATOM      4  C   LIG    1       26.206 -13.836   3.454  0.00  0.00    +0.042 C 
ATOM      5  C   LIG    1       24.842 -13.539   2.805  0.00  0.00    +0.201 C 
ATOM      6  C   LIG    1       27.258 -14.233   2.413  0.00  0.00    +0.025 C 
ATOM      7  C   LIG    1       26.739 -12.707   4.347  0.00  0.00    +0.025 C 
ATOM      8  N   LIG    1       23.783 -13.947   3.744  0.00  0.00    -0.266 N 
ATOM      9  C   LIG    1       22.849 -14.839   3.283  0.00  0.00    +0.271 C 
ATOM     10  O   LIG    1       22.298 -14.883   2.194  0.00  0.00    -0.270 OA
ENDROOT
BRANCH   1  11
ATOM     11  N   LIG    1       23.400 -17.187   4.152  0.00  0.00    -0.277 N 
ATOM     12  H   LIG    1       24.040 -17.296   3.374  0.00  0.00    +0.152 HD
ATOM     13  C   LIG    1       22.871 -18.308   4.764  0.00  0.00    +0.234 C 
ATOM     14  O   LIG    1       22.041 -18.229   5.668  0.00  0.00    -0.275 OA
BRANCH  13  15
ATOM     15  C   LIG    1       23.414 -19.648   4.261  0.00  0.00    +0.213 C 
BRANCH  15  16
ATOM     16  C   LIG    1       24.829 -19.889   4.762  0.00  0.00    -0.018 A 
ATOM     17  C   LIG    1       25.146 -20.440   5.993  0.00  0.00    +0.050 A 
ATOM     18  S   LIG    1       26.831 -20.462   6.297  0.00  0.00    -0.105 S 
ATOM     19  C   LIG    1       27.173 -19.748   4.786  0.00  0.00    +0.045 A 
ATOM     20  C   LIG    1       26.031 -19.526   4.053  0.00  0.00    +0.012 A 
ENDBRANCH  15  16
BRANCH  15  21
ATOM     21  C   LIG    1       22.445 -20.781   4.580  0.00  0.00    +0.321 C 
ATOM     22  O   LIG    1       22.616 -21.537   5.531  0.00  0.00    -0.250 OA
BRANCH  21  23
ATOM     23  O   LIG    1       21.329 -20.890   3.822  0.00  0.00    -0.480 OA
ATOM     24  H   LIG    1       21.444 -21.266   2.928  0.00  0.00    +0.295 HD
ENDBRANCH  21  23
ENDBRANCH  15  21
ENDBRANCH  13  15
ENDBRANCH   1  11
BRANCH   1  26
ATOM     25  C   LIG    1       21.971 -14.967   6.599  0.00  0.00    +0.197 C 
ATOM     26  O   LIG    1       21.830 -15.732   5.407  0.00  0.00    -0.349 OA
ENDBRANCH   1  26
BRANCH   5  27
ATOM     27  C   LIG    1       24.679 -12.079   2.377  0.00  0.00    +0.327 C 
ATOM     28  O   LIG    1       23.637 -11.449   2.489  0.00  0.00    -0.249 OA
BRANCH  27  29
ATOM     29  O   LIG    1       25.791 -11.545   1.816  0.00  0.00    -0.479 OA
ATOM     30  H   LIG    1       26.026 -10.698   2.249  0.00  0.00    +0.295 HD
ENDBRANCH  27  29
ENDBRANCH   5  27
TORSDOF 8
ENDMDL
