MODEL 1
REMARK VINA RESULT:      -8.0      0.000      0.000
REMARK  Name = *****
REMARK                            x       y       z     vdW  Elec       q    Type
REMARK                         _______ _______ _______ _____ _____    ______ ____
ROOT
ATOM      1  C   LIG    1       29.763 -18.815   7.924  0.00  0.00    +0.036 A 
ATOM      2  C   LIG    1       28.705 -19.531   8.509  0.00  0.00    +0.038 A 
ATOM      3  C   LIG    1       27.723 -20.159   7.728  0.00  0.00    +0.060 A 
ATOM      4  C   LIG    1       27.748 -19.957   6.335  0.00  0.00    +0.131 A 
ATOM      5  C   LIG    1       28.859 -19.311   5.769  0.00  0.00    +0.048 A 
ATOM      6  C   LIG    1       29.870 -18.767   6.550  0.00  0.00    +0.027 A 
ENDROOT
BRANCH   1   9
ATOM      7  N   LIG    1       31.530 -17.070  10.661  0.00  0.00    -0.286 N 
ATOM      8  C   LIG    1       30.433 -17.767  10.109  0.00  0.00    +0.306 C 
ATOM      9  N   LIG    1       30.639 -18.147   8.789  0.00  0.00    -0.269 N 
ATOM     10  H   LIG    1       31.538 -17.969   8.387  0.00  0.00    +0.156 HD
ATOM     11  O   LIG    1       29.408 -17.957  10.734  0.00  0.00    -0.252 OA
BRANCH   7  13
ATOM     12  C   LIG    1       32.802 -16.451  12.710  0.00  0.00    +0.024 C 
ATOM     13  C   LIG    1       31.436 -16.613  12.052  0.00  0.00    +0.106 C 
ENDBRANCH   7  13
BRANCH   7  14
ATOM     14  C   LIG    1       32.788 -16.791   9.974  0.00  0.00    +0.106 C 
ATOM     15  C   LIG    1       32.886 -15.332   9.554  0.00  0.00    +0.024 C 
ENDBRANCH   7  14
ENDBRANCH   1   9
BRANCH   3  16
ATOM     16  C   LIG    1       26.711 -21.055   8.398  0.00  0.00    +0.164 C 
ATOM     17  O   LIG    1       26.008 -20.649   9.320  0.00  0.00    -0.292 OA
ATOM     18  C   LIG    1       26.491 -22.460   7.860  0.00  0.00    +0.091 C 
ENDBRANCH   3  16
BRANCH   4  19
ATOM     19  O   LIG    1       26.705 -20.415   5.578  0.00  0.00    -0.489 OA
BRANCH  19  20
ATOM     20  C   LIG    1       26.262 -19.642   4.448  0.00  0.00    +0.261 C 
BRANCH  20  21
ATOM     21  C   LIG    1       24.726 -19.655   4.375  0.00  0.00    +0.166 C 
BRANCH  21  22
ATOM     22  O   LIG    1       24.245 -18.713   3.405  0.00  0.00    -0.387 OA
ATOM     23  H   LIG    1       24.120 -19.213   2.578  0.00  0.00    +0.210 HD
ENDBRANCH  21  22
BRANCH  21  24
ATOM     24  C   LIG    1       24.252 -21.063   3.991  0.00  0.00    +0.116 C 
BRANCH  24  25
ATOM     25  N   LIG    1       24.269 -21.981   5.141  0.00  0.00    -0.309 NA
ATOM     26  H   LIG    1       25.128 -21.815   5.669  0.00  0.00    +0.122 HD
BRANCH  25  27
ATOM     27  C   LIG    1       23.083 -21.877   6.011  0.00  0.00    +0.011 C 
ATOM     28  C   LIG    1       23.300 -20.774   7.062  0.00  0.00    +0.027 C 
ATOM     29  C   LIG    1       22.760 -23.211   6.705  0.00  0.00    +0.027 C 
ATOM     30  C   LIG    1       21.871 -21.475   5.146  0.00  0.00    +0.027 C 
ENDBRANCH  25  27
ENDBRANCH  24  25
ENDBRANCH  21  24
ENDBRANCH  20  21
ENDBRANCH  19  20
ENDBRANCH   4  19
TORSDOF 11
ENDMDL
MODEL 2
REMARK VINA RESULT:      -7.8      3.240      5.194
REMARK  Name = *****
REMARK                            x       y       z     vdW  Elec       q    Type
REMARK                         _______ _______ _______ _____ _____    ______ ____
ROOT
ATOM      1  C   LIG    1       26.551 -20.418   7.603  0.00  0.00    +0.036 A 
ATOM      2  C   LIG    1       26.012 -20.376   6.306  0.00  0.00    +0.038 A 
ATOM      3  C   LIG    1       24.796 -21.004   5.996  0.00  0.00    +0.060 A 
ATOM      4  C   LIG    1       24.177 -21.787   6.989  0.00  0.00    +0.131 A 
ATOM      5  C   LIG    1       24.688 -21.745   8.296  0.00  0.00    +0.048 A 
ATOM      6  C   LIG    1       25.847 -21.048   8.609  0.00  0.00    +0.027 A 
ENDROOT
BRANCH   1   9
ATOM      7  N   LIG    1       30.117 -19.564   8.055  0.00  0.00    -0.286 N 
ATOM      8  C   LIG    1       29.057 -20.458   7.790  0.00  0.00    +0.306 C 
ATOM      9  N   LIG    1       27.813 -19.841   7.791  0.00  0.00    -0.269 N 
ATOM     10  H   LIG    1       27.786 -18.847   7.899  0.00  0.00    +0.156 HD
ATOM     11  O   LIG    1       29.242 -21.649   7.630  0.00  0.00    -0.252 OA
BRANCH   7  13
ATOM     12  C   LIG    1       31.661 -21.215   9.100  0.00  0.00    +0.024 C 
ATOM     13  C   LIG    1       31.486 -20.094   8.082  0.00  0.00    +0.106 C 
ENDBRANCH   7  13
BRANCH   7  14
ATOM     14  C   LIG    1       29.979 -18.127   8.270  0.00  0.00    +0.106 C 
ATOM     15  C   LIG    1       30.256 -17.746   9.717  0.00  0.00    +0.024 C 
ENDBRANCH   7  14
ENDBRANCH   1   9
BRANCH   3  16
ATOM     16  C   LIG    1       24.180 -20.784   4.637  0.00  0.00    +0.164 C 
ATOM     17  O   LIG    1       24.341 -21.589   3.723  0.00  0.00    -0.292 OA
ATOM     18  C   LIG    1       23.264 -19.589   4.420  0.00  0.00    +0.091 C 
ENDBRANCH   3  16
BRANCH   4  19
ATOM     19  O   LIG    1       23.087 -22.544   6.655  0.00  0.00    -0.489 OA
BRANCH  19  20
ATOM     20  C   LIG    1       23.191 -23.978   6.681  0.00  0.00    +0.261 C 
BRANCH  20  21
ATOM     21  C   LIG    1       24.515 -24.419   6.035  0.00  0.00    +0.166 C 
BRANCH  21  22
ATOM     22  O   LIG    1       25.529 -24.641   7.027  0.00  0.00    -0.387 OA
ATOM     23  H   LIG    1       25.811 -25.569   6.925  0.00  0.00    +0.210 HD
ENDBRANCH  21  22
BRANCH  21  24
ATOM     24  C   LIG    1       24.284 -25.717   5.248  0.00  0.00    +0.116 C 
BRANCH  24  25
ATOM     25  N   LIG    1       23.910 -26.833   6.130  0.00  0.00    -0.309 NA
ATOM     26  H   LIG    1       22.961 -27.127   5.889  0.00  0.00    +0.122 HD
BRANCH  25  27
ATOM     27  C   LIG    1       24.844 -27.974   6.088  0.00  0.00    +0.011 C 
ATOM     28  C   LIG    1       25.913 -27.735   5.008  0.00  0.00    +0.027 C 
ATOM     29  C   LIG    1       24.116 -29.303   5.826  0.00  0.00    +0.027 C 
ATOM     30  C   LIG    1       25.560 -28.073   7.450  0.00  0.00    +0.027 C 
ENDBRANCH  25  27
ENDBRANCH  24  25
ENDBRANCH  21  24
ENDBRANCH  20  21
ENDBRANCH  19  20
ENDBRANCH   4  19
TORSDOF 11
ENDMDL
MODEL 3
REMARK VINA RESULT:      -7.8      2.839      4.815
REMARK  Name = *****
REMARK                            x       y       z     vdW  Elec       q    Type
REMARK                         _______ _______ _______ _____ _____    ______ ____
ROOT
ATOM      1  C   LIG    1       26.875 -20.457   7.504  0.00  0.00    +0.036 A 
ATOM      2  C   LIG    1       26.624 -20.347   6.126  0.00  0.00    +0.038 A 
ATOM      3  C   LIG    1       25.320 -20.398   5.610  0.00  0.00    +0.060 A 
ATOM      4  C   LIG    1       24.263 -20.684   6.496  0.00  0.00    +0.131 A 
ATOM      5  C   LIG    1       24.527 -20.705   7.875  0.00  0.00    +0.048 A 
ATOM      6  C   LIG    1       25.814 -20.569   8.379  0.00  0.00    +0.027 A 
ENDROOT
BRANCH   1   9
ATOM      7  N   LIG    1       30.505 -20.059   8.061  0.00  0.00    -0.286 N 
ATOM      8  C   LIG    1       29.279 -19.728   7.446  0.00  0.00    +0.306 C 
ATOM      9  N   LIG    1       28.215 -20.488   7.911  0.00  0.00    -0.269 N 
ATOM     10  H   LIG    1       28.389 -21.124   8.663  0.00  0.00    +0.156 HD
ATOM     11  O   LIG    1       29.204 -18.891   6.567  0.00  0.00    -0.252 OA
BRANCH   7  13
ATOM     12  C   LIG    1       31.991 -18.120   8.546  0.00  0.00    +0.024 C 
ATOM     13  C   LIG    1       31.710 -19.325   7.656  0.00  0.00    +0.106 C 
ENDBRANCH   7  13
BRANCH   7  14
ATOM     14  C   LIG    1       30.682 -21.057   9.112  0.00  0.00    +0.106 C 
ATOM     15  C   LIG    1       31.662 -22.144   8.695  0.00  0.00    +0.024 C 
ENDBRANCH   7  14
ENDBRANCH   1   9
BRANCH   3  16
ATOM     16  C   LIG    1       25.094 -20.104   4.148  0.00  0.00    +0.164 C 
ATOM     17  O   LIG    1       24.697 -20.972   3.375  0.00  0.00    -0.292 OA
ATOM     18  C   LIG    1       25.272 -18.681   3.640  0.00  0.00    +0.091 C 
ENDBRANCH   3  16
BRANCH   4  19
ATOM     19  O   LIG    1       23.012 -20.908   5.988  0.00  0.00    -0.489 OA
BRANCH  19  20
ATOM     20  C   LIG    1       22.652 -22.234   5.564  0.00  0.00    +0.261 C 
BRANCH  20  21
ATOM     21  C   LIG    1       23.161 -23.267   6.584  0.00  0.00    +0.166 C 
BRANCH  21  22
ATOM     22  O   LIG    1       22.098 -24.120   7.034  0.00  0.00    -0.387 OA
ATOM     23  H   LIG    1       22.526 -24.906   7.422  0.00  0.00    +0.210 HD
ENDBRANCH  21  22
BRANCH  21  24
ATOM     24  C   LIG    1       24.255 -24.122   5.931  0.00  0.00    +0.116 C 
BRANCH  24  25
ATOM     25  N   LIG    1       23.825 -25.517   5.748  0.00  0.00    -0.309 NA
ATOM     26  H   LIG    1       23.345 -25.588   4.848  0.00  0.00    +0.122 HD
BRANCH  25  27
ATOM     27  C   LIG    1       24.917 -26.503   5.845  0.00  0.00    +0.011 C 
ATOM     28  C   LIG    1       25.865 -26.122   6.995  0.00  0.00    +0.027 C 
ATOM     29  C   LIG    1       25.704 -26.620   4.529  0.00  0.00    +0.027 C 
ATOM     30  C   LIG    1       24.308 -27.882   6.170  0.00  0.00    +0.027 C 
ENDBRANCH  25  27
ENDBRANCH  24  25
ENDBRANCH  21  24
ENDBRANCH  20  21
ENDBRANCH  19  20
ENDBRANCH   4  19
TORSDOF 11
ENDMDL
MODEL 4
REMARK VINA RESULT:      -7.2      4.071      5.841
REMARK  Name = *****
REMARK                            x       y       z     vdW  Elec       q    Type
REMARK                         _______ _______ _______ _____ _____    ______ ____
ROOT
ATOM      1  C   LIG    1       27.079 -21.359   7.020  0.00  0.00    +0.036 A 
ATOM      2  C   LIG    1       26.088 -21.037   6.078  0.00  0.00    +0.038 A 
ATOM      3  C   LIG    1       25.075 -21.947   5.737  0.00  0.00    +0.060 A 
ATOM      4  C   LIG    1       25.140 -23.248   6.271  0.00  0.00    +0.131 A 
ATOM      5  C   LIG    1       26.087 -23.519   7.272  0.00  0.00    +0.048 A 
ATOM      6  C   LIG    1       27.032 -22.579   7.662  0.00  0.00    +0.027 A 
ENDROOT
BRANCH   1   9
ATOM      7  N   LIG    1       30.036 -19.371   7.997  0.00  0.00    -0.286 N 
ATOM      8  C   LIG    1       29.250 -20.543   7.989  0.00  0.00    +0.306 C 
ATOM      9  N   LIG    1       28.098 -20.420   7.224  0.00  0.00    -0.269 N 
ATOM     10  H   LIG    1       27.971 -19.574   6.706  0.00  0.00    +0.156 HD
ATOM     11  O   LIG    1       29.552 -21.528   8.636  0.00  0.00    -0.252 OA
BRANCH   7  13
ATOM     12  C   LIG    1       31.882 -17.980   8.922  0.00  0.00    +0.024 C 
ATOM     13  C   LIG    1       31.283 -19.373   8.772  0.00  0.00    +0.106 C 
ENDBRANCH   7  13
BRANCH   7  14
ATOM     14  C   LIG    1       29.738 -18.147   7.260  0.00  0.00    +0.106 C 
ATOM     15  C   LIG    1       29.737 -18.382   5.757  0.00  0.00    +0.024 C 
ENDBRANCH   7  14
ENDBRANCH   1   9
BRANCH   3  16
ATOM     16  C   LIG    1       23.942 -21.490   4.853  0.00  0.00    +0.164 C 
ATOM     17  O   LIG    1       24.058 -21.453   3.631  0.00  0.00    -0.292 OA
ATOM     18  C   LIG    1       22.597 -21.158   5.481  0.00  0.00    +0.091 C 
ENDBRANCH   3  16
BRANCH   4  19
ATOM     19  O   LIG    1       24.265 -24.197   5.818  0.00  0.00    -0.489 OA
BRANCH  19  20
ATOM     20  C   LIG    1       24.779 -25.429   5.282  0.00  0.00    +0.261 C 
BRANCH  20  21
ATOM     21  C   LIG    1       24.327 -26.610   6.158  0.00  0.00    +0.166 C 
BRANCH  21  22
ATOM     22  O   LIG    1       23.681 -27.623   5.372  0.00  0.00    -0.387 OA
ATOM     23  H   LIG    1       22.736 -27.591   5.610  0.00  0.00    +0.210 HD
ENDBRANCH  21  22
BRANCH  21  24
ATOM     24  C   LIG    1       25.553 -27.217   6.856  0.00  0.00    +0.116 C 
BRANCH  24  25
ATOM     25  N   LIG    1       25.580 -28.683   6.741  0.00  0.00    -0.309 NA
ATOM     26  H   LIG    1       26.406 -28.945   6.199  0.00  0.00    +0.122 HD
BRANCH  25  27
ATOM     27  C   LIG    1       25.548 -29.390   8.034  0.00  0.00    +0.011 C 
ATOM     28  C   LIG    1       26.256 -28.548   9.109  0.00  0.00    +0.027 C 
ATOM     29  C   LIG    1       26.194 -30.783   7.944  0.00  0.00    +0.027 C 
ATOM     30  C   LIG    1       24.076 -29.565   8.462  0.00  0.00    +0.027 C 
ENDBRANCH  25  27
ENDBRANCH  24  25
ENDBRANCH  21  24
ENDBRANCH  20  21
ENDBRANCH  19  20
ENDBRANCH   4  19
TORSDOF 11
ENDMDL
MODEL 5
REMARK VINA RESULT:      -7.2      3.817      9.397
REMARK  Name = *****
REMARK                            x       y       z     vdW  Elec       q    Type
REMARK                         _______ _______ _______ _____ _____    ______ ____
ROOT
ATOM      1  C   LIG    1       25.186 -24.985   6.391  0.00  0.00    +0.036 A 
ATOM      2  C   LIG    1       24.406 -24.083   5.649  0.00  0.00    +0.038 A 
ATOM      3  C   LIG    1       24.522 -22.695   5.822  0.00  0.00    +0.060 A 
ATOM      4  C   LIG    1       25.358 -22.219   6.851  0.00  0.00    +0.131 A 
ATOM      5  C   LIG    1       26.189 -23.132   7.520  0.00  0.00    +0.048 A 
ATOM      6  C   LIG    1       26.124 -24.498   7.278  0.00  0.00    +0.027 A 
ENDROOT
BRANCH   1   9
ATOM      7  N   LIG    1       25.043 -28.554   5.446  0.00  0.00    -0.286 N 
ATOM      8  C   LIG    1       25.606 -27.260   5.410  0.00  0.00    +0.306 C 
ATOM      9  N   LIG    1       24.931 -26.350   6.213  0.00  0.00    -0.269 N 
ATOM     10  H   LIG    1       24.183 -26.694   6.780  0.00  0.00    +0.156 HD
ATOM     11  O   LIG    1       26.557 -26.991   4.702  0.00  0.00    -0.252 OA
BRANCH   7  13
ATOM     12  C   LIG    1       25.559 -30.985   5.287  0.00  0.00    +0.024 C 
ATOM     13  C   LIG    1       25.665 -29.609   4.639  0.00  0.00    +0.106 C 
ENDBRANCH   7  13
BRANCH   7  14
ATOM     14  C   LIG    1       23.897 -28.955   6.258  0.00  0.00    +0.106 C 
ATOM     15  C   LIG    1       24.311 -29.304   7.680  0.00  0.00    +0.024 C 
ENDBRANCH   7  14
ENDBRANCH   1   9
BRANCH   3  16
ATOM     16  C   LIG    1       23.789 -21.771   4.882  0.00  0.00    +0.164 C 
ATOM     17  O   LIG    1       24.218 -21.530   3.757  0.00  0.00    -0.292 OA
ATOM     18  C   LIG    1       22.443 -21.201   5.301  0.00  0.00    +0.091 C 
ENDBRANCH   3  16
BRANCH   4  19
ATOM     19  O   LIG    1       25.352 -20.884   7.148  0.00  0.00    -0.489 OA
BRANCH  19  20
ATOM     20  C   LIG    1       26.591 -20.230   7.475  0.00  0.00    +0.261 C 
BRANCH  20  21
ATOM     21  C   LIG    1       27.586 -20.380   6.311  0.00  0.00    +0.166 C 
BRANCH  21  22
ATOM     22  O   LIG    1       27.036 -19.867   5.088  0.00  0.00    -0.387 OA
ATOM     23  H   LIG    1       26.569 -19.044   5.324  0.00  0.00    +0.210 HD
ENDBRANCH  21  22
BRANCH  21  24
ATOM     24  C   LIG    1       28.873 -19.615   6.647  0.00  0.00    +0.116 C 
BRANCH  24  25
ATOM     25  N   LIG    1       29.153 -19.621   8.091  0.00  0.00    -0.309 NA
ATOM     26  H   LIG    1       28.679 -20.426   8.506  0.00  0.00    +0.122 HD
BRANCH  25  27
ATOM     27  C   LIG    1       30.590 -19.621   8.427  0.00  0.00    +0.011 C 
ATOM     28  C   LIG    1       31.024 -21.030   8.867  0.00  0.00    +0.027 C 
ATOM     29  C   LIG    1       30.924 -18.597   9.525  0.00  0.00    +0.027 C 
ATOM     30  C   LIG    1       31.390 -19.253   7.160  0.00  0.00    +0.027 C 
ENDBRANCH  25  27
ENDBRANCH  24  25
ENDBRANCH  21  24
ENDBRANCH  20  21
ENDBRANCH  19  20
ENDBRANCH   4  19
TORSDOF 11
ENDMDL
MODEL 6
REMARK VINA RESULT:      -7.0      4.869     10.078
REMARK  Name = *****
REMARK                            x       y       z     vdW  Elec       q    Type
REMARK                         _______ _______ _______ _____ _____    ______ ____
ROOT
ATOM      1  C   LIG    1       25.141 -26.910   6.341  0.00  0.00    +0.036 A 
ATOM      2  C   LIG    1       24.089 -25.992   6.492  0.00  0.00    +0.038 A 
ATOM      3  C   LIG    1       24.318 -24.608   6.505  0.00  0.00    +0.060 A 
ATOM      4  C   LIG    1       25.650 -24.152   6.486  0.00  0.00    +0.131 A 
ATOM      5  C   LIG    1       26.676 -25.081   6.250  0.00  0.00    +0.048 A 
ATOM      6  C   LIG    1       26.426 -26.444   6.152  0.00  0.00    +0.027 A 
ENDROOT
BRANCH   1   9
ATOM      7  N   LIG    1       24.583 -30.452   7.233  0.00  0.00    -0.286 N 
ATOM      8  C   LIG    1       24.978 -29.127   7.515  0.00  0.00    +0.306 C 
ATOM      9  N   LIG    1       24.822 -28.271   6.433  0.00  0.00    -0.269 N 
ATOM     10  H   LIG    1       24.390 -28.636   5.608  0.00  0.00    +0.156 HD
ATOM     11  O   LIG    1       25.449 -28.809   8.590  0.00  0.00    -0.252 OA
BRANCH   7  13
ATOM     12  C   LIG    1       23.399 -31.653   9.065  0.00  0.00    +0.024 C 
ATOM     13  C   LIG    1       24.701 -31.457   8.296  0.00  0.00    +0.106 C 
ENDBRANCH   7  13
BRANCH   7  14
ATOM     14  C   LIG    1       24.022 -30.917   5.967  0.00  0.00    +0.106 C 
ATOM     15  C   LIG    1       25.044 -31.696   5.152  0.00  0.00    +0.024 C 
ENDBRANCH   7  14
ENDBRANCH   1   9
BRANCH   3  16
ATOM     16  C   LIG    1       23.140 -23.666   6.498  0.00  0.00    +0.164 C 
ATOM     17  O   LIG    1       22.033 -24.022   6.892  0.00  0.00    -0.292 OA
ATOM     18  C   LIG    1       23.349 -22.218   6.081  0.00  0.00    +0.091 C 
ENDBRANCH   3  16
BRANCH   4  19
ATOM     19  O   LIG    1       25.900 -22.820   6.672  0.00  0.00    -0.489 OA
BRANCH  19  20
ATOM     20  C   LIG    1       26.330 -22.359   7.965  0.00  0.00    +0.261 C 
BRANCH  20  21
ATOM     21  C   LIG    1       26.296 -20.822   8.011  0.00  0.00    +0.166 C 
BRANCH  21  22
ATOM     22  O   LIG    1       26.168 -20.345   9.360  0.00  0.00    -0.387 OA
ATOM     23  H   LIG    1       25.316 -20.685   9.688  0.00  0.00    +0.210 HD
ENDBRANCH  21  22
BRANCH  21  24
ATOM     24  C   LIG    1       27.593 -20.272   7.401  0.00  0.00    +0.116 C 
BRANCH  24  25
ATOM     25  N   LIG    1       28.560 -19.873   8.436  0.00  0.00    -0.309 NA
ATOM     26  H   LIG    1       28.819 -20.706   8.969  0.00  0.00    +0.122 HD
BRANCH  25  27
ATOM     27  C   LIG    1       29.756 -19.187   7.911  0.00  0.00    +0.011 C 
ATOM     28  C   LIG    1       30.083 -17.964   8.785  0.00  0.00    +0.027 C 
ATOM     29  C   LIG    1       29.574 -18.757   6.446  0.00  0.00    +0.027 C 
ATOM     30  C   LIG    1       30.952 -20.158   7.987  0.00  0.00    +0.027 C 
ENDBRANCH  25  27
ENDBRANCH  24  25
ENDBRANCH  21  24
ENDBRANCH  20  21
ENDBRANCH  19  20
ENDBRANCH   4  19
TORSDOF 11
ENDMDL
MODEL 7
REMARK VINA RESULT:      -6.9      7.018     10.214
REMARK  Name = *****
REMARK                            x       y       z     vdW  Elec       q    Type
REMARK                         _______ _______ _______ _____ _____    ______ ____
ROOT
ATOM      1  C   LIG    1       25.359 -26.194   6.381  0.00  0.00    +0.036 A 
ATOM      2  C   LIG    1       25.640 -26.983   7.509  0.00  0.00    +0.038 A 
ATOM      3  C   LIG    1       25.652 -28.384   7.441  0.00  0.00    +0.060 A 
ATOM      4  C   LIG    1       25.255 -28.997   6.237  0.00  0.00    +0.131 A 
ATOM      5  C   LIG    1       25.062 -28.192   5.103  0.00  0.00    +0.048 A 
ATOM      6  C   LIG    1       25.137 -26.807   5.165  0.00  0.00    +0.027 A 
ENDROOT
BRANCH   1   9
ATOM      7  N   LIG    1       24.449 -22.647   6.868  0.00  0.00    -0.286 N 
ATOM      8  C   LIG    1       24.151 -24.020   6.744  0.00  0.00    +0.306 C 
ATOM      9  N   LIG    1       25.281 -24.809   6.571  0.00  0.00    -0.269 N 
ATOM     10  H   LIG    1       26.174 -24.362   6.625  0.00  0.00    +0.156 HD
ATOM     11  O   LIG    1       23.008 -24.435   6.743  0.00  0.00    -0.252 OA
BRANCH   7  13
ATOM     12  C   LIG    1       23.180 -20.745   5.882  0.00  0.00    +0.024 C 
ATOM     13  C   LIG    1       23.339 -21.705   7.055  0.00  0.00    +0.106 C 
ENDBRANCH   7  13
BRANCH   7  14
ATOM     14  C   LIG    1       25.790 -22.068   6.867  0.00  0.00    +0.106 C 
ATOM     15  C   LIG    1       26.094 -21.349   8.173  0.00  0.00    +0.024 C 
ENDBRANCH   7  14
ENDBRANCH   1   9
BRANCH   3  16
ATOM     16  C   LIG    1       26.125 -29.176   8.635  0.00  0.00    +0.164 C 
ATOM     17  O   LIG    1       26.151 -30.404   8.619  0.00  0.00    -0.292 OA
ATOM     18  C   LIG    1       26.670 -28.438   9.848  0.00  0.00    +0.091 C 
ENDBRANCH   3  16
BRANCH   4  19
ATOM     19  O   LIG    1       25.093 -30.356   6.204  0.00  0.00    -0.489 OA
BRANCH  19  20
ATOM     20  C   LIG    1       23.787 -30.903   5.950  0.00  0.00    +0.261 C 
BRANCH  20  21
ATOM     21  C   LIG    1       23.769 -32.400   6.305  0.00  0.00    +0.166 C 
BRANCH  21  22
ATOM     22  O   LIG    1       24.978 -33.048   5.884  0.00  0.00    -0.387 OA
ATOM     23  H   LIG    1       25.295 -32.553   5.106  0.00  0.00    +0.210 HD
ENDBRANCH  21  22
BRANCH  21  24
ATOM     24  C   LIG    1       23.615 -32.554   7.825  0.00  0.00    +0.116 C 
BRANCH  24  25
ATOM     25  N   LIG    1       23.173 -31.304   8.462  0.00  0.00    -0.309 NA
ATOM     26  H   LIG    1       22.350 -30.964   7.960  0.00  0.00    +0.122 HD
BRANCH  25  27
ATOM     27  C   LIG    1       22.900 -31.427   9.906  0.00  0.00    +0.011 C 
ATOM     28  C   LIG    1       21.459 -31.916  10.126  0.00  0.00    +0.027 C 
ATOM     29  C   LIG    1       23.128 -30.099  10.649  0.00  0.00    +0.027 C 
ATOM     30  C   LIG    1       23.856 -32.484  10.498  0.00  0.00    +0.027 C 
ENDBRANCH  25  27
ENDBRANCH  24  25
ENDBRANCH  21  24
ENDBRANCH  20  21
ENDBRANCH  19  20
ENDBRANCH   4  19
TORSDOF 11
ENDMDL
MODEL 8
REMARK VINA RESULT:      -6.9      3.605      8.966
REMARK  Name = *****
REMARK                            x       y       z     vdW  Elec       q    Type
REMARK                         _______ _______ _______ _____ _____    ______ ____
ROOT
ATOM      1  C   LIG    1       25.172 -24.397   6.270  0.00  0.00    +0.036 A 
ATOM      2  C   LIG    1       25.830 -23.693   7.293  0.00  0.00    +0.038 A 
ATOM      3  C   LIG    1       26.026 -22.306   7.221  0.00  0.00    +0.060 A 
ATOM      4  C   LIG    1       25.654 -21.640   6.037  0.00  0.00    +0.131 A 
ATOM      5  C   LIG    1       24.925 -22.346   5.068  0.00  0.00    +0.048 A 
ATOM      6  C   LIG    1       24.662 -23.704   5.191  0.00  0.00    +0.027 A 
ENDROOT
BRANCH   1   9
ATOM      7  N   LIG    1       25.241 -28.074   5.917  0.00  0.00    -0.286 N 
ATOM      8  C   LIG    1       25.489 -26.759   5.470  0.00  0.00    +0.306 C 
ATOM      9  N   LIG    1       25.108 -25.791   6.390  0.00  0.00    -0.269 N 
ATOM     10  H   LIG    1       24.776 -26.099   7.281  0.00  0.00    +0.156 HD
ATOM     11  O   LIG    1       25.947 -26.528   4.368  0.00  0.00    -0.252 OA
BRANCH   7  13
ATOM     12  C   LIG    1       25.157 -30.541   5.586  0.00  0.00    +0.024 C 
ATOM     13  C   LIG    1       25.600 -29.190   5.035  0.00  0.00    +0.106 C 
ENDBRANCH   7  13
BRANCH   7  14
ATOM     14  C   LIG    1       24.684 -28.435   7.218  0.00  0.00    +0.106 C 
ATOM     15  C   LIG    1       25.767 -28.541   8.283  0.00  0.00    +0.024 C 
ENDBRANCH   7  14
ENDBRANCH   1   9
BRANCH   3  16
ATOM     16  C   LIG    1       26.583 -21.578   8.419  0.00  0.00    +0.164 C 
ATOM     17  O   LIG    1       27.725 -21.785   8.820  0.00  0.00    -0.292 OA
ATOM     18  C   LIG    1       25.746 -20.498   9.088  0.00  0.00    +0.091 C 
ENDBRANCH   3  16
BRANCH   4  19
ATOM     19  O   LIG    1       25.994 -20.324   5.881  0.00  0.00    -0.489 OA
BRANCH  19  20
ATOM     20  C   LIG    1       27.249 -19.990   5.260  0.00  0.00    +0.261 C 
BRANCH  20  21
ATOM     21  C   LIG    1       28.383 -20.069   6.296  0.00  0.00    +0.166 C 
BRANCH  21  22
ATOM     22  O   LIG    1       29.175 -21.252   6.109  0.00  0.00    -0.387 OA
ATOM     23  H   LIG    1       28.590 -22.006   6.310  0.00  0.00    +0.210 HD
ENDBRANCH  21  22
BRANCH  21  24
ATOM     24  C   LIG    1       29.280 -18.832   6.156  0.00  0.00    +0.116 C 
BRANCH  24  25
ATOM     25  N   LIG    1       30.660 -19.103   6.588  0.00  0.00    -0.309 NA
ATOM     26  H   LIG    1       31.287 -18.499   6.053  0.00  0.00    +0.122 HD
BRANCH  25  27
ATOM     27  C   LIG    1       30.880 -18.944   8.038  0.00  0.00    +0.011 C 
ATOM     28  C   LIG    1       32.094 -18.032   8.286  0.00  0.00    +0.027 C 
ATOM     29  C   LIG    1       31.083 -20.297   8.740  0.00  0.00    +0.027 C 
ATOM     30  C   LIG    1       29.640 -18.261   8.651  0.00  0.00    +0.027 C 
ENDBRANCH  25  27
ENDBRANCH  24  25
ENDBRANCH  21  24
ENDBRANCH  20  21
ENDBRANCH  19  20
ENDBRANCH   4  19
TORSDOF 11
ENDMDL
MODEL 9
REMARK VINA RESULT:      -6.7      7.526     10.829
REMARK  Name = *****
REMARK                            x       y       z     vdW  Elec       q    Type
REMARK                         _______ _______ _______ _____ _____    ______ ____
ROOT
ATOM      1  C   LIG    1       25.599 -29.653   9.716  0.00  0.00    +0.036 A 
ATOM      2  C   LIG    1       24.936 -30.209   8.610  0.00  0.00    +0.038 A 
ATOM      3  C   LIG    1       24.985 -29.606   7.344  0.00  0.00    +0.060 A 
ATOM      4  C   LIG    1       25.619 -28.354   7.226  0.00  0.00    +0.131 A 
ATOM      5  C   LIG    1       26.345 -27.861   8.322  0.00  0.00    +0.048 A 
ATOM      6  C   LIG    1       26.358 -28.513   9.548  0.00  0.00    +0.027 A 
ENDROOT
BRANCH   1   9
ATOM      7  N   LIG    1       24.559 -30.856  13.051  0.00  0.00    -0.286 N 
ATOM      8  C   LIG    1       24.405 -30.072  11.888  0.00  0.00    +0.306 C 
ATOM      9  N   LIG    1       25.413 -30.278  10.956  0.00  0.00    -0.269 N 
ATOM     10  H   LIG    1       26.088 -30.990  11.149  0.00  0.00    +0.156 HD
ATOM     11  O   LIG    1       23.499 -29.271  11.766  0.00  0.00    -0.252 OA
BRANCH   7  13
ATOM     12  C   LIG    1       22.516 -31.842  14.079  0.00  0.00    +0.024 C 
ATOM     13  C   LIG    1       23.558 -30.730  14.116  0.00  0.00    +0.106 C 
ENDBRANCH   7  13
BRANCH   7  14
ATOM     14  C   LIG    1       25.624 -31.829  13.281  0.00  0.00    +0.106 C 
ATOM     15  C   LIG    1       26.461 -31.469  14.499  0.00  0.00    +0.024 C 
ENDBRANCH   7  14
ENDBRANCH   1   9
BRANCH   3  16
ATOM     16  C   LIG    1       24.402 -30.333   6.158  0.00  0.00    +0.164 C 
ATOM     17  O   LIG    1       23.253 -30.119   5.779  0.00  0.00    -0.292 OA
ATOM     18  C   LIG    1       25.283 -31.280   5.359  0.00  0.00    +0.091 C 
ENDBRANCH   3  16
BRANCH   4  19
ATOM     19  O   LIG    1       25.528 -27.672   6.044  0.00  0.00    -0.489 OA
BRANCH  19  20
ATOM     20  C   LIG    1       26.099 -26.354   5.946  0.00  0.00    +0.261 C 
BRANCH  20  21
ATOM     21  C   LIG    1       25.087 -25.392   5.300  0.00  0.00    +0.166 C 
BRANCH  21  22
ATOM     22  O   LIG    1       23.739 -25.842   5.505  0.00  0.00    -0.387 OA
ATOM     23  H   LIG    1       23.797 -26.797   5.691  0.00  0.00    +0.210 HD
ENDBRANCH  21  22
BRANCH  21  24
ATOM     24  C   LIG    1       25.254 -23.997   5.918  0.00  0.00    +0.116 C 
BRANCH  24  25
ATOM     25  N   LIG    1       24.685 -22.946   5.060  0.00  0.00    -0.309 NA
ATOM     26  H   LIG    1       24.018 -23.382   4.420  0.00  0.00    +0.122 HD
BRANCH  25  27
ATOM     27  C   LIG    1       24.060 -21.836   5.802  0.00  0.00    +0.011 C 
ATOM     28  C   LIG    1       23.235 -22.390   6.976  0.00  0.00    +0.027 C 
ATOM     29  C   LIG    1       23.172 -20.967   4.895  0.00  0.00    +0.027 C 
ATOM     30  C   LIG    1       25.176 -20.944   6.386  0.00  0.00    +0.027 C 
ENDBRANCH  25  27
ENDBRANCH  24  25
ENDBRANCH  21  24
ENDBRANCH  20  21
ENDBRANCH  19  20
ENDBRANCH   4  19
TORSDOF 11
ENDMDL
