MODEL 1
REMARK VINA RESULT:      -6.1      0.000      0.000
REMARK  Name = *****
REMARK                            x       y       z     vdW  Elec       q    Type
REMARK                         _______ _______ _______ _____ _____    ______ ____
ROOT
ATOM      1  C   LIG    1       23.075 -20.234   6.480  0.00  0.00    +0.105 C 
ATOM      2  N   LIG    1       22.596 -20.485   5.117  0.00  0.00    -0.297 NA
ENDROOT
BRANCH   2   3
ATOM      3  C   LIG    1       23.736 -20.861   4.242  0.00  0.00    +0.120 C 
BRANCH   3   4
ATOM      4  C   LIG    1       25.127 -20.652   4.851  0.00  0.00    -0.026 A 
ATOM      5  C   LIG    1       25.971 -19.554   4.501  0.00  0.00    -0.013 A 
ATOM      6  C   LIG    1       27.195 -19.383   5.201  0.00  0.00    -0.018 A 
ATOM      7  C   LIG    1       27.991 -18.247   4.974  0.00  0.00    +0.008 A 
ATOM      8  C   LIG    1       27.605 -17.273   4.060  0.00  0.00    +0.001 A 
ATOM      9  C   LIG    1       26.453 -17.459   3.310  0.00  0.00    +0.001 A 
ATOM     10  C   LIG    1       27.613 -20.337   6.136  0.00  0.00    +0.008 A 
ATOM     11  C   LIG    1       26.810 -21.430   6.442  0.00  0.00    +0.001 A 
ATOM     12  C   LIG    1       25.661 -18.594   3.510  0.00  0.00    +0.009 A 
ATOM     13  C   LIG    1       25.568 -21.572   5.827  0.00  0.00    +0.005 A 
ENDBRANCH   3   4
ENDBRANCH   2   3
BRANCH   2  14
ATOM     14  C   LIG    1       21.862 -19.344   4.561  0.00  0.00    +0.112 C 
BRANCH  14  15
ATOM     15  C   LIG    1       22.680 -18.092   4.386  0.00  0.00    -0.003 C 
ATOM     16  C   LIG    1       22.260 -16.878   4.783  0.00  0.00    +0.057 C 
BRANCH  16  17
ATOM     17  C   LIG    1       22.957 -15.686   4.448  0.00  0.00    -0.074 C 
ATOM     18  C   LIG    1       23.675 -14.756   4.226  0.00  0.00    -0.092 C 
BRANCH  18  19
ATOM     19  C   LIG    1       24.661 -13.679   4.003  0.00  0.00    +0.024 C 
ATOM     20  C   LIG    1       24.033 -12.338   4.416  0.00  0.00    +0.024 C 
ATOM     21  C   LIG    1       25.026 -13.640   2.512  0.00  0.00    +0.024 C 
ATOM     22  C   LIG    1       25.911 -13.954   4.847  0.00  0.00    +0.024 C 
ENDBRANCH  18  19
ENDBRANCH  16  17
ENDBRANCH  14  15
ENDBRANCH   2  14
TORSDOF 6
ENDMDL
