MODEL 1
REMARK VINA RESULT:      -7.9      0.000      0.000
REMARK  Name = *****
REMARK                            x       y       z     vdW  Elec       q    Type
REMARK                         _______ _______ _______ _____ _____    ______ ____
ROOT
ATOM      1  N   LIG    1       23.846 -21.607   6.273  0.00  0.00    +0.249 N 
ATOM      2  C   LIG    1       22.556 -22.246   5.709  0.00  0.00    +0.193 C 
ATOM      3  C   LIG    1       24.300 -22.311   7.582  0.00  0.00    +0.102 C 
ATOM      4  C   LIG    1       24.743 -23.698   7.138  0.00  0.00    +0.201 C 
ATOM      5  C   LIG    1       25.235 -23.542   5.720  0.00  0.00    +0.201 C 
ATOM      6  O   LIG    1       26.106 -23.908   6.786  0.00  0.00    -0.357 OA
ATOM      7  C   LIG    1       25.466 -21.503   8.192  0.00  0.00    +0.102 C 
ATOM      8  C   LIG    1       26.648 -21.254   7.221  0.00  0.00    +0.187 C 
ATOM      9  C   LIG    1       26.268 -21.251   5.721  0.00  0.00    +0.102 C 
ATOM     10  C   LIG    1       25.034 -22.075   5.376  0.00  0.00    +0.102 C 
ENDROOT
BRANCH   1  11
ATOM     11  C   LIG    1       23.628 -20.086   6.341  0.00  0.00    +0.133 C 
BRANCH  11  12
ATOM     12  C   LIG    1       22.443 -19.618   5.483  0.00  0.00    +0.051 C 
BRANCH  12  14
ATOM     13  C   LIG    1       24.067 -19.063   3.598  0.00  0.00    +0.004 C 
ATOM     14  C   LIG    1       22.857 -18.613   4.403  0.00  0.00    +0.002 C 
ENDBRANCH  12  14
ENDBRANCH  11  12
ENDBRANCH   1  11
BRANCH   8  15
ATOM     15  O   LIG    1       27.264 -19.981   7.540  0.00  0.00    -0.461 OA
BRANCH  15  16
ATOM     16  C   LIG    1       28.600 -20.056   7.841  0.00  0.00    +0.317 C 
ATOM     17  O   LIG    1       29.138 -21.049   8.314  0.00  0.00    -0.250 OA
BRANCH  16  18
ATOM     18  C   LIG    1       29.326 -18.776   7.488  0.00  0.00    +0.153 C 
BRANCH  18  19
ATOM     19  C   LIG    1       30.176 -18.226   8.621  0.00  0.00    -0.032 A 
ATOM     20  C   LIG    1       29.674 -17.992   9.909  0.00  0.00    +0.004 A 
ATOM     21  C   LIG    1       30.493 -17.484  10.920  0.00  0.00    +0.000 A 
ATOM     22  C   LIG    1       31.839 -17.221  10.663  0.00  0.00    +0.000 A 
ATOM     23  C   LIG    1       32.352 -17.443   9.391  0.00  0.00    +0.000 A 
ATOM     24  C   LIG    1       31.526 -17.920   8.375  0.00  0.00    +0.004 A 
ENDBRANCH  18  19
BRANCH  18  25
ATOM     25  C   LIG    1       30.126 -19.081   6.204  0.00  0.00    +0.175 C 
BRANCH  25  26
ATOM     26  O   LIG    1       29.892 -18.132   5.166  0.00  0.00    -0.394 OA
ATOM     27  H   LIG    1       30.408 -17.335   5.398  0.00  0.00    +0.209 HD
ENDBRANCH  25  26
ENDBRANCH  18  25
ENDBRANCH  16  18
ENDBRANCH  15  16
ENDBRANCH   8  15
TORSDOF 9
ENDMDL
MODEL 2
REMARK VINA RESULT:      -7.7      1.524      3.320
REMARK  Name = *****
REMARK                            x       y       z     vdW  Elec       q    Type
REMARK                         _______ _______ _______ _____ _____    ______ ____
ROOT
ATOM      1  N   LIG    1       24.591 -23.248   6.513  0.00  0.00    +0.249 N 
ATOM      2  C   LIG    1       23.249 -24.015   6.523  0.00  0.00    +0.193 C 
ATOM      3  C   LIG    1       24.463 -21.894   5.760  0.00  0.00    +0.102 C 
ATOM      4  C   LIG    1       23.563 -21.045   6.646  0.00  0.00    +0.201 C 
ATOM      5  C   LIG    1       23.798 -21.524   8.057  0.00  0.00    +0.201 C 
ATOM      6  O   LIG    1       24.156 -20.212   7.635  0.00  0.00    -0.357 OA
ATOM      7  C   LIG    1       25.873 -21.280   5.616  0.00  0.00    +0.102 C 
ATOM      8  C   LIG    1       26.647 -21.135   6.951  0.00  0.00    +0.187 C 
ATOM      9  C   LIG    1       26.234 -22.140   8.054  0.00  0.00    +0.102 C 
ATOM     10  C   LIG    1       24.806 -22.657   7.942  0.00  0.00    +0.102 C 
ENDROOT
BRANCH   1  11
ATOM     11  C   LIG    1       25.684 -24.215   6.027  0.00  0.00    +0.133 C 
BRANCH  11  12
ATOM     12  C   LIG    1       25.165 -25.220   4.989  0.00  0.00    +0.051 C 
BRANCH  12  14
ATOM     13  C   LIG    1       25.964 -26.860   6.770  0.00  0.00    +0.004 C 
ATOM     14  C   LIG    1       25.562 -26.664   5.316  0.00  0.00    +0.002 C 
ENDBRANCH  12  14
ENDBRANCH  11  12
ENDBRANCH   1  11
BRANCH   8  15
ATOM     15  O   LIG    1       28.065 -21.290   6.698  0.00  0.00    -0.461 OA
BRANCH  15  16
ATOM     16  C   LIG    1       28.877 -20.708   7.636  0.00  0.00    +0.317 C 
ATOM     17  O   LIG    1       29.403 -21.320   8.557  0.00  0.00    -0.250 OA
BRANCH  16  18
ATOM     18  C   LIG    1       29.069 -19.230   7.372  0.00  0.00    +0.153 C 
BRANCH  18  19
ATOM     19  C   LIG    1       30.019 -18.557   8.347  0.00  0.00    -0.032 A 
ATOM     20  C   LIG    1       29.607 -18.044   9.586  0.00  0.00    +0.004 A 
ATOM     21  C   LIG    1       30.518 -17.430  10.450  0.00  0.00    +0.000 A 
ATOM     22  C   LIG    1       31.864 -17.339  10.096  0.00  0.00    +0.000 A 
ATOM     23  C   LIG    1       32.288 -17.837   8.871  0.00  0.00    +0.000 A 
ATOM     24  C   LIG    1       31.374 -18.420   7.996  0.00  0.00    +0.004 A 
ENDBRANCH  18  19
BRANCH  18  25
ATOM     25  C   LIG    1       29.508 -19.114   5.897  0.00  0.00    +0.175 C 
BRANCH  25  26
ATOM     26  O   LIG    1       28.423 -18.834   5.016  0.00  0.00    -0.394 OA
ATOM     27  H   LIG    1       27.712 -18.450   5.565  0.00  0.00    +0.209 HD
ENDBRANCH  25  26
ENDBRANCH  18  25
ENDBRANCH  16  18
ENDBRANCH  15  16
ENDBRANCH   8  15
TORSDOF 9
ENDMDL
MODEL 3
REMARK VINA RESULT:      -7.5      1.699      3.689
REMARK  Name = *****
REMARK                            x       y       z     vdW  Elec       q    Type
REMARK                         _______ _______ _______ _____ _____    ______ ____
ROOT
ATOM      1  N   LIG    1       24.548 -23.106   6.737  0.00  0.00    +0.249 N 
ATOM      2  C   LIG    1       23.281 -23.960   6.502  0.00  0.00    +0.193 C 
ATOM      3  C   LIG    1       24.854 -22.201   5.512  0.00  0.00    +0.102 C 
ATOM      4  C   LIG    1       23.723 -21.181   5.494  0.00  0.00    +0.201 C 
ATOM      5  C   LIG    1       23.293 -21.015   6.931  0.00  0.00    +0.201 C 
ATOM      6  O   LIG    1       23.891 -19.953   6.194  0.00  0.00    -0.357 OA
ATOM      7  C   LIG    1       26.229 -21.531   5.730  0.00  0.00    +0.102 C 
ATOM      8  C   LIG    1       26.360 -20.764   7.071  0.00  0.00    +0.187 C 
ATOM      9  C   LIG    1       25.442 -21.278   8.206  0.00  0.00    +0.102 C 
ATOM     10  C   LIG    1       24.168 -21.966   7.733  0.00  0.00    +0.102 C 
ENDROOT
BRANCH   1  11
ATOM     11  C   LIG    1       25.671 -24.046   7.206  0.00  0.00    +0.133 C 
BRANCH  11  12
ATOM     12  C   LIG    1       25.901 -25.220   6.243  0.00  0.00    +0.051 C 
BRANCH  12  14
ATOM     13  C   LIG    1       24.964 -27.591   6.246  0.00  0.00    +0.004 C 
ATOM     14  C   LIG    1       25.857 -26.580   6.948  0.00  0.00    +0.002 C 
ENDBRANCH  12  14
ENDBRANCH  11  12
ENDBRANCH   1  11
BRANCH   8  15
ATOM     15  O   LIG    1       27.734 -20.835   7.526  0.00  0.00    -0.461 OA
BRANCH  15  16
ATOM     16  C   LIG    1       28.598 -20.007   6.856  0.00  0.00    +0.317 C 
ATOM     17  O   LIG    1       28.254 -19.238   5.967  0.00  0.00    -0.250 OA
BRANCH  16  18
ATOM     18  C   LIG    1       30.014 -20.137   7.374  0.00  0.00    +0.153 C 
BRANCH  18  19
ATOM     19  C   LIG    1       30.464 -18.956   8.217  0.00  0.00    -0.032 A 
ATOM     20  C   LIG    1       29.635 -18.331   9.161  0.00  0.00    +0.004 A 
ATOM     21  C   LIG    1       30.092 -17.246   9.913  0.00  0.00    +0.000 A 
ATOM     22  C   LIG    1       31.396 -16.782   9.749  0.00  0.00    +0.000 A 
ATOM     23  C   LIG    1       32.229 -17.386   8.816  0.00  0.00    +0.000 A 
ATOM     24  C   LIG    1       31.763 -18.448   8.043  0.00  0.00    +0.004 A 
ENDBRANCH  18  19
BRANCH  18  25
ATOM     25  C   LIG    1       30.073 -21.488   8.118  0.00  0.00    +0.175 C 
BRANCH  25  26
ATOM     26  O   LIG    1       31.385 -21.815   8.570  0.00  0.00    -0.394 OA
ATOM     27  H   LIG    1       31.856 -22.193   7.802  0.00  0.00    +0.209 HD
ENDBRANCH  25  26
ENDBRANCH  18  25
ENDBRANCH  16  18
ENDBRANCH  15  16
ENDBRANCH   8  15
TORSDOF 9
ENDMDL
MODEL 4
REMARK VINA RESULT:      -7.4      1.269      1.975
REMARK  Name = *****
REMARK                            x       y       z     vdW  Elec       q    Type
REMARK                         _______ _______ _______ _____ _____    ______ ____
ROOT
ATOM      1  N   LIG    1       25.154 -20.971   6.210  0.00  0.00    +0.249 N 
ATOM      2  C   LIG    1       23.653 -20.988   5.843  0.00  0.00    +0.193 C 
ATOM      3  C   LIG    1       25.385 -20.351   7.616  0.00  0.00    +0.102 C 
ATOM      4  C   LIG    1       24.783 -21.359   8.585  0.00  0.00    +0.201 C 
ATOM      5  C   LIG    1       24.917 -22.706   7.918  0.00  0.00    +0.201 C 
ATOM      6  O   LIG    1       25.613 -22.385   9.118  0.00  0.00    -0.357 OA
ATOM      7  C   LIG    1       26.906 -20.183   7.832  0.00  0.00    +0.102 C 
ATOM      8  C   LIG    1       27.728 -21.481   7.623  0.00  0.00    +0.187 C 
ATOM      9  C   LIG    1       27.085 -22.510   6.662  0.00  0.00    +0.102 C 
ATOM     10  C   LIG    1       25.567 -22.433   6.570  0.00  0.00    +0.102 C 
ENDROOT
BRANCH   1  11
ATOM     11  C   LIG    1       25.920 -20.338   5.036  0.00  0.00    +0.133 C 
BRANCH  11  12
ATOM     12  C   LIG    1       25.039 -20.136   3.795  0.00  0.00    +0.051 C 
BRANCH  12  14
ATOM     13  C   LIG    1       25.965 -17.807   3.330  0.00  0.00    +0.004 C 
ATOM     14  C   LIG    1       24.722 -18.661   3.530  0.00  0.00    +0.002 C 
ENDBRANCH  12  14
ENDBRANCH  11  12
ENDBRANCH   1  11
BRANCH   8  15
ATOM     15  O   LIG    1       29.039 -21.134   7.112  0.00  0.00    -0.461 OA
BRANCH  15  16
ATOM     16  C   LIG    1       29.828 -20.443   7.995  0.00  0.00    +0.317 C 
ATOM     17  O   LIG    1       30.439 -20.967   8.918  0.00  0.00    -0.250 OA
BRANCH  16  18
ATOM     18  C   LIG    1       29.876 -18.967   7.667  0.00  0.00    +0.153 C 
BRANCH  18  19
ATOM     19  C   LIG    1       30.590 -18.133   8.717  0.00  0.00    -0.032 A 
ATOM     20  C   LIG    1       31.926 -17.723   8.590  0.00  0.00    +0.004 A 
ATOM     21  C   LIG    1       32.541 -16.958   9.583  0.00  0.00    +0.000 A 
ATOM     22  C   LIG    1       31.823 -16.571  10.713  0.00  0.00    +0.000 A 
ATOM     23  C   LIG    1       30.501 -16.972  10.858  0.00  0.00    +0.000 A 
ATOM     24  C   LIG    1       29.896 -17.762   9.883  0.00  0.00    +0.004 A 
ENDBRANCH  18  19
BRANCH  18  25
ATOM     25  C   LIG    1       30.505 -18.863   6.261  0.00  0.00    +0.175 C 
BRANCH  25  26
ATOM     26  O   LIG    1       29.716 -18.094   5.356  0.00  0.00    -0.394 OA
ATOM     27  H   LIG    1       29.139 -18.727   4.886  0.00  0.00    +0.209 HD
ENDBRANCH  25  26
ENDBRANCH  18  25
ENDBRANCH  16  18
ENDBRANCH  15  16
ENDBRANCH   8  15
TORSDOF 9
ENDMDL
MODEL 5
REMARK VINA RESULT:      -6.9      3.305      7.833
REMARK  Name = *****
REMARK                            x       y       z     vdW  Elec       q    Type
REMARK                         _______ _______ _______ _____ _____    ______ ____
ROOT
ATOM      1  N   LIG    1       25.612 -21.001   5.982  0.00  0.00    +0.249 N 
ATOM      2  C   LIG    1       26.045 -19.607   5.472  0.00  0.00    +0.193 C 
ATOM      3  C   LIG    1       24.361 -20.904   6.899  0.00  0.00    +0.102 C 
ATOM      4  C   LIG    1       23.232 -20.488   5.966  0.00  0.00    +0.201 C 
ATOM      5  C   LIG    1       23.587 -21.047   4.610  0.00  0.00    +0.201 C 
ATOM      6  O   LIG    1       22.449 -21.497   5.338  0.00  0.00    -0.357 OA
ATOM      7  C   LIG    1       24.107 -22.292   7.527  0.00  0.00    +0.102 C 
ATOM      8  C   LIG    1       23.991 -23.447   6.499  0.00  0.00    +0.187 C 
ATOM      9  C   LIG    1       24.741 -23.209   5.167  0.00  0.00    +0.102 C 
ATOM     10  C   LIG    1       24.926 -21.744   4.793  0.00  0.00    +0.102 C 
ENDROOT
BRANCH   1  11
ATOM     11  C   LIG    1       26.853 -21.695   6.568  0.00  0.00    +0.133 C 
BRANCH  11  12
ATOM     12  C   LIG    1       27.598 -20.816   7.583  0.00  0.00    +0.051 C 
BRANCH  12  14
ATOM     13  C   LIG    1       29.655 -19.383   7.119  0.00  0.00    +0.004 C 
ATOM     14  C   LIG    1       29.111 -20.786   7.339  0.00  0.00    +0.002 C 
ENDBRANCH  12  14
ENDBRANCH  11  12
ENDBRANCH   1  11
BRANCH   8  15
ATOM     15  O   LIG    1       24.495 -24.667   7.097  0.00  0.00    -0.461 OA
BRANCH  15  16
ATOM     16  C   LIG    1       24.487 -25.754   6.263  0.00  0.00    +0.317 C 
ATOM     17  O   LIG    1       23.586 -26.000   5.471  0.00  0.00    -0.250 OA
BRANCH  16  18
ATOM     18  C   LIG    1       25.739 -26.589   6.419  0.00  0.00    +0.153 C 
BRANCH  18  19
ATOM     19  C   LIG    1       25.554 -27.804   7.312  0.00  0.00    -0.032 A 
ATOM     20  C   LIG    1       24.592 -28.795   7.064  0.00  0.00    +0.004 A 
ATOM     21  C   LIG    1       24.457 -29.894   7.914  0.00  0.00    +0.000 A 
ATOM     22  C   LIG    1       25.297 -30.032   9.018  0.00  0.00    +0.000 A 
ATOM     23  C   LIG    1       26.252 -29.058   9.282  0.00  0.00    +0.000 A 
ATOM     24  C   LIG    1       26.365 -27.945   8.451  0.00  0.00    +0.004 A 
ENDBRANCH  18  19
BRANCH  18  25
ATOM     25  C   LIG    1       26.200 -26.937   4.987  0.00  0.00    +0.175 C 
BRANCH  25  26
ATOM     26  O   LIG    1       27.594 -27.227   4.909  0.00  0.00    -0.394 OA
ATOM     27  H   LIG    1       27.731 -27.701   4.066  0.00  0.00    +0.209 HD
ENDBRANCH  25  26
ENDBRANCH  18  25
ENDBRANCH  16  18
ENDBRANCH  15  16
ENDBRANCH   8  15
TORSDOF 9
ENDMDL
MODEL 6
REMARK VINA RESULT:      -6.9      6.666     10.256
REMARK  Name = *****
REMARK                            x       y       z     vdW  Elec       q    Type
REMARK                         _______ _______ _______ _____ _____    ______ ____
ROOT
ATOM      1  N   LIG    1       25.361 -32.332   8.546  0.00  0.00    +0.249 N 
ATOM      2  C   LIG    1       25.392 -33.635   9.377  0.00  0.00    +0.193 C 
ATOM      3  C   LIG    1       23.975 -32.122   7.875  0.00  0.00    +0.102 C 
ATOM      4  C   LIG    1       23.026 -31.840   9.032  0.00  0.00    +0.201 C 
ATOM      5  C   LIG    1       23.863 -31.187  10.105  0.00  0.00    +0.201 C 
ATOM      6  O   LIG    1       22.813 -30.493   9.438  0.00  0.00    -0.357 OA
ATOM      7  C   LIG    1       24.076 -30.920   6.909  0.00  0.00    +0.102 C 
ATOM      8  C   LIG    1       24.614 -29.621   7.561  0.00  0.00    +0.187 C 
ATOM      9  C   LIG    1       25.528 -29.839   8.790  0.00  0.00    +0.102 C 
ATOM     10  C   LIG    1       25.277 -31.137   9.547  0.00  0.00    +0.102 C 
ENDROOT
BRANCH   1  11
ATOM     11  C   LIG    1       26.589 -32.333   7.620  0.00  0.00    +0.133 C 
BRANCH  11  12
ATOM     12  C   LIG    1       26.707 -33.623   6.795  0.00  0.00    +0.051 C 
BRANCH  12  14
ATOM     13  C   LIG    1       26.315 -32.559   4.512  0.00  0.00    +0.004 C 
ATOM     14  C   LIG    1       27.256 -33.375   5.386  0.00  0.00    +0.002 C 
ENDBRANCH  12  14
ENDBRANCH  11  12
ENDBRANCH   1  11
BRANCH   8  15
ATOM     15  O   LIG    1       25.352 -28.864   6.570  0.00  0.00    -0.461 OA
BRANCH  15  16
ATOM     16  C   LIG    1       25.549 -27.546   6.892  0.00  0.00    +0.317 C 
ATOM     17  O   LIG    1       26.175 -27.170   7.875  0.00  0.00    -0.250 OA
BRANCH  16  18
ATOM     18  C   LIG    1       24.928 -26.620   5.869  0.00  0.00    +0.153 C 
BRANCH  18  19
ATOM     19  C   LIG    1       24.776 -25.189   6.356  0.00  0.00    -0.032 A 
ATOM     20  C   LIG    1       25.868 -24.381   6.709  0.00  0.00    +0.004 A 
ATOM     21  C   LIG    1       25.679 -23.071   7.154  0.00  0.00    +0.000 A 
ATOM     22  C   LIG    1       24.393 -22.538   7.233  0.00  0.00    +0.000 A 
ATOM     23  C   LIG    1       23.300 -23.325   6.892  0.00  0.00    +0.000 A 
ATOM     24  C   LIG    1       23.486 -24.642   6.479  0.00  0.00    +0.004 A 
ENDBRANCH  18  19
BRANCH  18  25
ATOM     25  C   LIG    1       25.791 -26.752   4.596  0.00  0.00    +0.175 C 
BRANCH  25  26
ATOM     26  O   LIG    1       27.116 -27.204   4.869  0.00  0.00    -0.394 OA
ATOM     27  H   LIG    1       27.690 -26.415   4.834  0.00  0.00    +0.209 HD
ENDBRANCH  25  26
ENDBRANCH  18  25
ENDBRANCH  16  18
ENDBRANCH  15  16
ENDBRANCH   8  15
TORSDOF 9
ENDMDL
MODEL 7
REMARK VINA RESULT:      -6.8      5.964      9.620
REMARK  Name = *****
REMARK                            x       y       z     vdW  Elec       q    Type
REMARK                         _______ _______ _______ _____ _____    ______ ____
ROOT
ATOM      1  N   LIG    1       25.381 -30.437  10.615  0.00  0.00    +0.249 N 
ATOM      2  C   LIG    1       25.465 -31.435  11.792  0.00  0.00    +0.193 C 
ATOM      3  C   LIG    1       26.683 -30.452   9.766  0.00  0.00    +0.102 C 
ATOM      4  C   LIG    1       26.685 -31.816   9.090  0.00  0.00    +0.201 C 
ATOM      5  C   LIG    1       25.234 -32.199   8.925  0.00  0.00    +0.201 C 
ATOM      6  O   LIG    1       26.082 -31.951   7.808  0.00  0.00    -0.357 OA
ATOM      7  C   LIG    1       26.610 -29.301   8.739  0.00  0.00    +0.102 C 
ATOM      8  C   LIG    1       25.336 -29.312   7.856  0.00  0.00    +0.187 C 
ATOM      9  C   LIG    1       24.105 -29.995   8.499  0.00  0.00    +0.102 C 
ATOM     10  C   LIG    1       24.437 -31.058   9.538  0.00  0.00    +0.102 C 
ENDROOT
BRANCH   1  11
ATOM     11  C   LIG    1       24.934 -29.078  11.180  0.00  0.00    +0.133 C 
BRANCH  11  12
ATOM     12  C   LIG    1       25.830 -28.591  12.328  0.00  0.00    +0.051 C 
BRANCH  12  14
ATOM     13  C   LIG    1       26.676 -26.239  12.828  0.00  0.00    +0.004 C 
ATOM     14  C   LIG    1       26.759 -27.447  11.908  0.00  0.00    +0.002 C 
ENDBRANCH  12  14
ENDBRANCH  11  12
ENDBRANCH   1  11
BRANCH   8  15
ATOM     15  O   LIG    1       24.980 -27.948   7.520  0.00  0.00    -0.461 OA
BRANCH  15  16
ATOM     16  C   LIG    1       24.714 -27.741   6.191  0.00  0.00    +0.317 C 
ATOM     17  O   LIG    1       23.953 -28.437   5.531  0.00  0.00    -0.250 OA
BRANCH  16  18
ATOM     18  C   LIG    1       25.448 -26.531   5.655  0.00  0.00    +0.153 C 
BRANCH  18  19
ATOM     19  C   LIG    1       24.951 -25.215   6.228  0.00  0.00    -0.032 A 
ATOM     20  C   LIG    1       23.598 -24.844   6.229  0.00  0.00    +0.004 A 
ATOM     21  C   LIG    1       23.187 -23.622   6.766  0.00  0.00    +0.000 A 
ATOM     22  C   LIG    1       24.123 -22.757   7.332  0.00  0.00    +0.000 A 
ATOM     23  C   LIG    1       25.468 -23.105   7.334  0.00  0.00    +0.000 A 
ATOM     24  C   LIG    1       25.881 -24.310   6.770  0.00  0.00    +0.004 A 
ENDBRANCH  18  19
BRANCH  18  25
ATOM     25  C   LIG    1       26.947 -26.793   5.915  0.00  0.00    +0.175 C 
BRANCH  25  26
ATOM     26  O   LIG    1       27.616 -27.351   4.786  0.00  0.00    -0.394 OA
ATOM     27  H   LIG    1       27.225 -28.234   4.641  0.00  0.00    +0.209 HD
ENDBRANCH  25  26
ENDBRANCH  18  25
ENDBRANCH  16  18
ENDBRANCH  15  16
ENDBRANCH   8  15
TORSDOF 9
ENDMDL
MODEL 8
REMARK VINA RESULT:      -6.8      6.439      9.961
REMARK  Name = *****
REMARK                            x       y       z     vdW  Elec       q    Type
REMARK                         _______ _______ _______ _____ _____    ______ ____
ROOT
ATOM      1  N   LIG    1       24.237 -32.194   8.607  0.00  0.00    +0.249 N 
ATOM      2  C   LIG    1       24.143 -33.634   9.161  0.00  0.00    +0.193 C 
ATOM      3  C   LIG    1       25.648 -31.588   8.845  0.00  0.00    +0.102 C 
ATOM      4  C   LIG    1       26.569 -32.390   7.937  0.00  0.00    +0.201 C 
ATOM      5  C   LIG    1       25.721 -32.830   6.769  0.00  0.00    +0.201 C 
ATOM      6  O   LIG    1       26.810 -31.926   6.613  0.00  0.00    -0.357 OA
ATOM      7  C   LIG    1       25.610 -30.094   8.451  0.00  0.00    +0.102 C 
ATOM      8  C   LIG    1       25.092 -29.825   7.015  0.00  0.00    +0.187 C 
ATOM      9  C   LIG    1       24.136 -30.905   6.455  0.00  0.00    +0.102 C 
ATOM     10  C   LIG    1       24.326 -32.294   7.051  0.00  0.00    +0.102 C 
ENDROOT
BRANCH   1  11
ATOM     11  C   LIG    1       23.037 -31.400   9.150  0.00  0.00    +0.133 C 
BRANCH  11  12
ATOM     12  C   LIG    1       22.945 -31.442  10.683  0.00  0.00    +0.051 C 
BRANCH  12  14
ATOM     13  C   LIG    1       24.178 -29.510  11.799  0.00  0.00    +0.004 C 
ATOM     14  C   LIG    1       22.843 -30.045  11.306  0.00  0.00    +0.002 C 
ENDBRANCH  12  14
ENDBRANCH  11  12
ENDBRANCH   1  11
BRANCH   8  15
ATOM     15  O   LIG    1       24.406 -28.549   6.990  0.00  0.00    -0.461 OA
BRANCH  15  16
ATOM     16  C   LIG    1       25.235 -27.458   6.941  0.00  0.00    +0.317 C 
ATOM     17  O   LIG    1       26.223 -27.321   7.652  0.00  0.00    -0.250 OA
BRANCH  16  18
ATOM     18  C   LIG    1       24.798 -26.469   5.883  0.00  0.00    +0.153 C 
BRANCH  18  19
ATOM     19  C   LIG    1       24.705 -25.039   6.388  0.00  0.00    -0.032 A 
ATOM     20  C   LIG    1       25.827 -24.288   6.769  0.00  0.00    +0.004 A 
ATOM     21  C   LIG    1       25.692 -22.976   7.230  0.00  0.00    +0.000 A 
ATOM     22  C   LIG    1       24.431 -22.385   7.297  0.00  0.00    +0.000 A 
ATOM     23  C   LIG    1       23.308 -23.116   6.929  0.00  0.00    +0.000 A 
ATOM     24  C   LIG    1       23.440 -24.435   6.500  0.00  0.00    +0.004 A 
ENDBRANCH  18  19
BRANCH  18  25
ATOM     25  C   LIG    1       25.778 -26.646   4.704  0.00  0.00    +0.175 C 
BRANCH  25  26
ATOM     26  O   LIG    1       27.067 -27.096   5.116  0.00  0.00    -0.394 OA
ATOM     27  H   LIG    1       27.718 -26.592   4.591  0.00  0.00    +0.209 HD
ENDBRANCH  25  26
ENDBRANCH  18  25
ENDBRANCH  16  18
ENDBRANCH  15  16
ENDBRANCH   8  15
TORSDOF 9
ENDMDL
MODEL 9
REMARK VINA RESULT:      -6.6      3.414      7.000
REMARK  Name = *****
REMARK                            x       y       z     vdW  Elec       q    Type
REMARK                         _______ _______ _______ _____ _____    ______ ____
ROOT
ATOM      1  N   LIG    1       25.513 -27.453   6.553  0.00  0.00    +0.249 N 
ATOM      2  C   LIG    1       25.252 -28.902   6.083  0.00  0.00    +0.193 C 
ATOM      3  C   LIG    1       26.502 -26.720   5.604  0.00  0.00    +0.102 C 
ATOM      4  C   LIG    1       25.731 -26.550   4.302  0.00  0.00    +0.201 C 
ATOM      5  C   LIG    1       24.276 -26.459   4.691  0.00  0.00    +0.201 C 
ATOM      6  O   LIG    1       24.970 -25.364   4.102  0.00  0.00    -0.357 OA
ATOM      7  C   LIG    1       26.870 -25.360   6.237  0.00  0.00    +0.102 C 
ATOM      8  C   LIG    1       25.651 -24.477   6.606  0.00  0.00    +0.187 C 
ATOM      9  C   LIG    1       24.347 -25.257   6.897  0.00  0.00    +0.102 C 
ATOM     10  C   LIG    1       24.246 -26.610   6.204  0.00  0.00    +0.102 C 
ENDROOT
BRANCH   1  11
ATOM     11  C   LIG    1       25.886 -27.500   8.045  0.00  0.00    +0.133 C 
BRANCH  11  12
ATOM     12  C   LIG    1       25.824 -28.920   8.625  0.00  0.00    +0.051 C 
BRANCH  12  14
ATOM     13  C   LIG    1       26.799 -28.040  10.810  0.00  0.00    +0.004 C 
ATOM     14  C   LIG    1       26.832 -29.139   9.758  0.00  0.00    +0.002 C 
ENDBRANCH  12  14
ENDBRANCH  11  12
ENDBRANCH   1  11
BRANCH   8  15
ATOM     15  O   LIG    1       25.978 -23.681   7.772  0.00  0.00    -0.461 OA
BRANCH  15  16
ATOM     16  C   LIG    1       25.556 -22.378   7.708  0.00  0.00    +0.317 C 
ATOM     17  O   LIG    1       24.877 -21.838   8.572  0.00  0.00    -0.250 OA
BRANCH  16  18
ATOM     18  C   LIG    1       26.059 -21.687   6.459  0.00  0.00    +0.153 C 
BRANCH  18  19
ATOM     19  C   LIG    1       24.993 -20.881   5.738  0.00  0.00    -0.032 A 
ATOM     20  C   LIG    1       23.668 -20.789   6.191  0.00  0.00    +0.004 A 
ATOM     21  C   LIG    1       22.720 -20.036   5.493  0.00  0.00    +0.000 A 
ATOM     22  C   LIG    1       23.088 -19.344   4.340  0.00  0.00    +0.000 A 
ATOM     23  C   LIG    1       24.394 -19.428   3.875  0.00  0.00    +0.000 A 
ATOM     24  C   LIG    1       25.332 -20.204   4.553  0.00  0.00    +0.004 A 
ENDBRANCH  18  19
BRANCH  18  25
ATOM     25  C   LIG    1       27.279 -20.848   6.899  0.00  0.00    +0.175 C 
BRANCH  25  26
ATOM     26  O   LIG    1       27.745 -21.189   8.202  0.00  0.00    -0.394 OA
ATOM     27  H   LIG    1       27.070 -20.866   8.831  0.00  0.00    +0.209 HD
ENDBRANCH  25  26
ENDBRANCH  18  25
ENDBRANCH  16  18
ENDBRANCH  15  16
ENDBRANCH   8  15
TORSDOF 9
ENDMDL
