MODEL 1
REMARK VINA RESULT:      -7.6      0.000      0.000
REMARK  Name = *****
REMARK                            x       y       z     vdW  Elec       q    Type
REMARK                         _______ _______ _______ _____ _____    ______ ____
ROOT
ATOM      1  C   LIG    1       29.079 -20.770   7.230  0.00  0.00    +0.162 A 
ATOM      2  C   LIG    1       27.835 -21.377   7.210  0.00  0.00    +0.167 A 
ATOM      3  O   LIG    1       27.472 -22.572   7.779  0.00  0.00    -0.481 OA
ATOM      4  C   LIG    1       26.079 -22.820   7.386  0.00  0.00    +0.217 C 
ATOM      5  C   LIG    1       25.569 -21.625   6.555  0.00  0.00    +0.048 C 
ATOM      6  C   LIG    1       25.223 -21.909   5.085  0.00  0.00    +0.043 C 
ATOM      7  C   LIG    1       24.737 -20.555   4.485  0.00  0.00    +0.069 C 
ATOM      8  N   LIG    1       23.558 -19.964   5.156  0.00  0.00    -0.301 NA
ATOM      9  C   LIG    1       22.388 -19.916   4.284  0.00  0.00    +0.105 C 
ATOM     10  C   LIG    1       23.227 -20.575   6.442  0.00  0.00    +0.085 C 
ATOM     11  C   LIG    1       25.908 -19.485   4.552  0.00  0.00    +0.055 C 
ATOM     12  C   LIG    1       26.995 -19.778   5.567  0.00  0.00    -0.038 A 
ATOM     13  C   LIG    1       28.235 -19.147   5.580  0.00  0.00    +0.008 A 
ATOM     14  C   LIG    1       24.379 -23.149   4.990  0.00  0.00    -0.023 C 
ATOM     15  C   LIG    1       24.744 -24.220   5.718  0.00  0.00    +0.004 C 
ATOM     16  C   LIG    1       24.464 -20.833   7.303  0.00  0.00    +0.031 C 
ATOM     17  C   LIG    1       25.940 -24.173   6.644  0.00  0.00    +0.178 C 
ATOM     18  C   LIG    1       26.818 -20.828   6.459  0.00  0.00    +0.012 A 
ATOM     19  C   LIG    1       29.258 -19.632   6.421  0.00  0.00    +0.050 A 
ENDROOT
BRANCH   1  21
ATOM     20  C   LIG    1       31.032 -20.118   8.412  0.00  0.00    +0.277 C 
ATOM     21  O   LIG    1       30.193 -21.155   7.919  0.00  0.00    -0.491 OA
ENDBRANCH   1  21
BRANCH  17  22
ATOM     22  O   LIG    1       25.774 -25.217   7.605  0.00  0.00    -0.384 OA
ATOM     23  H   LIG    1       26.651 -25.386   7.989  0.00  0.00    +0.210 HD
ENDBRANCH  17  22
TORSDOF 2
ENDMDL
MODEL 2
REMARK VINA RESULT:      -6.8      2.313      3.782
REMARK  Name = *****
REMARK                            x       y       z     vdW  Elec       q    Type
REMARK                         _______ _______ _______ _____ _____    ______ ____
ROOT
ATOM      1  C   LIG    1       28.503 -19.734   6.492  0.00  0.00    +0.162 A 
ATOM      2  C   LIG    1       27.330 -20.001   5.808  0.00  0.00    +0.167 A 
ATOM      3  O   LIG    1       26.875 -19.414   4.655  0.00  0.00    -0.481 OA
ATOM      4  C   LIG    1       25.540 -19.968   4.398  0.00  0.00    +0.217 C 
ATOM      5  C   LIG    1       25.214 -21.021   5.477  0.00  0.00    +0.048 C 
ATOM      6  C   LIG    1       24.050 -20.695   6.424  0.00  0.00    +0.043 C 
ATOM      7  C   LIG    1       23.932 -21.906   7.399  0.00  0.00    +0.069 C 
ATOM      8  N   LIG    1       23.676 -23.208   6.745  0.00  0.00    -0.301 NA
ATOM      9  C   LIG    1       22.369 -23.758   7.093  0.00  0.00    +0.105 C 
ATOM     10  C   LIG    1       23.875 -23.206   5.298  0.00  0.00    +0.085 C 
ATOM     11  C   LIG    1       25.270 -22.050   8.241  0.00  0.00    +0.055 C 
ATOM     12  C   LIG    1       26.492 -21.391   7.633  0.00  0.00    -0.038 A 
ATOM     13  C   LIG    1       27.669 -21.143   8.332  0.00  0.00    +0.008 A 
ATOM     14  C   LIG    1       22.865 -20.218   5.631  0.00  0.00    -0.023 C 
ATOM     15  C   LIG    1       23.080 -19.325   4.647  0.00  0.00    +0.004 C 
ATOM     16  C   LIG    1       25.138 -22.452   4.881  0.00  0.00    +0.031 C 
ATOM     17  C   LIG    1       24.474 -18.846   4.310  0.00  0.00    +0.178 C 
ATOM     18  C   LIG    1       26.407 -20.873   6.347  0.00  0.00    +0.012 A 
ATOM     19  C   LIG    1       28.670 -20.337   7.753  0.00  0.00    +0.050 A 
ENDROOT
BRANCH   1  21
ATOM     20  C   LIG    1       30.809 -19.197   6.673  0.00  0.00    +0.277 C 
ATOM     21  O   LIG    1       29.531 -18.919   6.114  0.00  0.00    -0.491 OA
ENDBRANCH   1  21
BRANCH  17  22
ATOM     22  O   LIG    1       24.439 -18.340   2.974  0.00  0.00    -0.384 OA
ATOM     23  H   LIG    1       23.707 -17.701   2.936  0.00  0.00    +0.210 HD
ENDBRANCH  17  22
TORSDOF 2
ENDMDL
MODEL 3
REMARK VINA RESULT:      -6.7      1.910      4.694
REMARK  Name = *****
REMARK                            x       y       z     vdW  Elec       q    Type
REMARK                         _______ _______ _______ _____ _____    ______ ____
ROOT
ATOM      1  C   LIG    1       25.649 -25.793   6.645  0.00  0.00    +0.162 A 
ATOM      2  C   LIG    1       25.924 -24.436   6.647  0.00  0.00    +0.167 A 
ATOM      3  O   LIG    1       27.087 -23.813   7.024  0.00  0.00    -0.481 OA
ATOM      4  C   LIG    1       26.836 -22.369   6.944  0.00  0.00    +0.217 C 
ATOM      5  C   LIG    1       25.407 -22.133   6.416  0.00  0.00    +0.048 C 
ATOM      6  C   LIG    1       24.418 -21.468   7.386  0.00  0.00    +0.043 C 
ATOM      7  C   LIG    1       23.070 -21.345   6.612  0.00  0.00    +0.069 C 
ATOM      8  N   LIG    1       23.137 -20.549   5.366  0.00  0.00    -0.301 NA
ATOM      9  C   LIG    1       22.346 -19.325   5.445  0.00  0.00    +0.105 C 
ATOM     10  C   LIG    1       24.494 -20.266   4.905  0.00  0.00    +0.085 C 
ATOM     11  C   LIG    1       22.537 -22.790   6.226  0.00  0.00    +0.055 C 
ATOM     12  C   LIG    1       23.587 -23.883   6.205  0.00  0.00    -0.038 A 
ATOM     13  C   LIG    1       23.291 -25.242   6.189  0.00  0.00    +0.008 A 
ATOM     14  C   LIG    1       25.059 -20.269   8.026  0.00  0.00    -0.023 C 
ATOM     15  C   LIG    1       26.321 -20.392   8.477  0.00  0.00    +0.004 C 
ATOM     16  C   LIG    1       25.414 -21.483   5.006  0.00  0.00    +0.031 C 
ATOM     17  C   LIG    1       27.096 -21.679   8.308  0.00  0.00    +0.178 C 
ATOM     18  C   LIG    1       24.923 -23.534   6.350  0.00  0.00    +0.012 A 
ATOM     19  C   LIG    1       24.321 -26.184   6.389  0.00  0.00    +0.050 A 
ENDROOT
BRANCH   1  21
ATOM     20  C   LIG    1       25.997 -27.907   7.668  0.00  0.00    +0.277 C 
ATOM     21  O   LIG    1       26.505 -26.826   6.897  0.00  0.00    -0.491 OA
ENDBRANCH   1  21
BRANCH  17  22
ATOM     22  O   LIG    1       28.484 -21.356   8.409  0.00  0.00    -0.384 OA
ATOM     23  H   LIG    1       28.977 -22.150   8.142  0.00  0.00    +0.210 HD
ENDBRANCH  17  22
TORSDOF 2
ENDMDL
MODEL 4
REMARK VINA RESULT:      -6.5      6.476      9.261
REMARK  Name = *****
REMARK                            x       y       z     vdW  Elec       q    Type
REMARK                         _______ _______ _______ _____ _____    ______ ____
ROOT
ATOM      1  C   LIG    1       25.685 -26.966   6.504  0.00  0.00    +0.162 A 
ATOM      2  C   LIG    1       25.660 -27.898   7.528  0.00  0.00    +0.167 A 
ATOM      3  O   LIG    1       26.367 -27.877   8.703  0.00  0.00    -0.481 OA
ATOM      4  C   LIG    1       26.071 -29.137   9.396  0.00  0.00    +0.217 C 
ATOM      5  C   LIG    1       25.048 -29.940   8.567  0.00  0.00    +0.048 C 
ATOM      6  C   LIG    1       25.537 -31.274   7.981  0.00  0.00    +0.043 C 
ATOM      7  C   LIG    1       24.326 -31.875   7.204  0.00  0.00    +0.069 C 
ATOM      8  N   LIG    1       23.118 -32.117   8.024  0.00  0.00    -0.301 NA
ATOM      9  C   LIG    1       22.797 -33.538   8.133  0.00  0.00    +0.105 C 
ATOM     10  C   LIG    1       23.146 -31.484   9.340  0.00  0.00    +0.085 C 
ATOM     11  C   LIG    1       23.911 -30.902   6.020  0.00  0.00    +0.055 C 
ATOM     12  C   LIG    1       24.366 -29.465   6.173  0.00  0.00    -0.038 A 
ATOM     13  C   LIG    1       24.371 -28.537   5.136  0.00  0.00    +0.008 A 
ATOM     14  C   LIG    1       26.250 -32.066   9.041  0.00  0.00    -0.023 C 
ATOM     15  C   LIG    1       27.130 -31.420   9.828  0.00  0.00    +0.004 C 
ATOM     16  C   LIG    1       23.680 -30.052   9.291  0.00  0.00    +0.031 C 
ATOM     17  C   LIG    1       27.368 -29.933   9.690  0.00  0.00    +0.178 C 
ATOM     18  C   LIG    1       24.944 -29.066   7.372  0.00  0.00    +0.012 A 
ATOM     19  C   LIG    1       25.010 -27.293   5.313  0.00  0.00    +0.050 A 
ENDROOT
BRANCH   1  21
ATOM     20  C   LIG    1       25.495 -24.599   6.527  0.00  0.00    +0.277 C 
ATOM     21  O   LIG    1       26.319 -25.757   6.482  0.00  0.00    -0.491 OA
ENDBRANCH   1  21
BRANCH  17  22
ATOM     22  O   LIG    1       27.927 -29.475  10.922  0.00  0.00    -0.384 OA
ATOM     23  H   LIG    1       27.216 -29.012  11.397  0.00  0.00    +0.210 HD
ENDBRANCH  17  22
TORSDOF 2
ENDMDL
MODEL 5
REMARK VINA RESULT:      -6.0      8.690      9.922
REMARK  Name = *****
REMARK                            x       y       z     vdW  Elec       q    Type
REMARK                         _______ _______ _______ _____ _____    ______ ____
ROOT
ATOM      1  C   LIG    1       26.004 -25.798  13.198  0.00  0.00    +0.162 A 
ATOM      2  C   LIG    1       25.959 -27.077  12.671  0.00  0.00    +0.167 A 
ATOM      3  O   LIG    1       26.894 -27.696  11.882  0.00  0.00    -0.481 OA
ATOM      4  C   LIG    1       26.332 -28.998  11.503  0.00  0.00    +0.217 C 
ATOM      5  C   LIG    1       24.960 -29.172  12.185  0.00  0.00    +0.048 C 
ATOM      6  C   LIG    1       23.737 -29.241  11.258  0.00  0.00    +0.043 C 
ATOM      7  C   LIG    1       22.498 -29.420  12.188  0.00  0.00    +0.069 C 
ATOM      8  N   LIG    1       22.529 -30.628  13.041  0.00  0.00    -0.301 NA
ATOM      9  C   LIG    1       21.475 -31.579  12.698  0.00  0.00    +0.105 C 
ATOM     10  C   LIG    1       23.830 -31.290  13.101  0.00  0.00    +0.085 C 
ATOM     11  C   LIG    1       22.360 -28.163  13.148  0.00  0.00    +0.055 C 
ATOM     12  C   LIG    1       23.627 -27.354  13.341  0.00  0.00    -0.038 A 
ATOM     13  C   LIG    1       23.655 -26.074  13.886  0.00  0.00    +0.008 A 
ATOM     14  C   LIG    1       24.005 -30.196  10.129  0.00  0.00    -0.023 C 
ATOM     15  C   LIG    1       25.198 -30.126   9.511  0.00  0.00    +0.004 C 
ATOM     16  C   LIG    1       24.986 -30.300  13.251  0.00  0.00    +0.031 C 
ATOM     17  C   LIG    1       26.262 -29.150   9.962  0.00  0.00    +0.178 C 
ATOM     18  C   LIG    1       24.821 -27.841  12.826  0.00  0.00    +0.012 A 
ATOM     19  C   LIG    1       24.842 -25.315  13.829  0.00  0.00    +0.050 A 
ENDROOT
BRANCH   1  21
ATOM     20  C   LIG    1       27.867 -24.834  14.312  0.00  0.00    +0.277 C 
ATOM     21  O   LIG    1       27.038 -24.907  13.159  0.00  0.00    -0.491 OA
ENDBRANCH   1  21
BRANCH  17  22
ATOM     22  O   LIG    1       27.517 -29.639   9.485  0.00  0.00    -0.384 OA
ATOM     23  H   LIG    1       27.318 -30.307   8.807  0.00  0.00    +0.210 HD
ENDBRANCH  17  22
TORSDOF 2
ENDMDL
MODEL 6
REMARK VINA RESULT:      -5.7      9.559     10.947
REMARK  Name = *****
REMARK                            x       y       z     vdW  Elec       q    Type
REMARK                         _______ _______ _______ _____ _____    ______ ____
ROOT
ATOM      1  C   LIG    1       23.675 -30.387   9.789  0.00  0.00    +0.162 A 
ATOM      2  C   LIG    1       23.303 -29.855  11.011  0.00  0.00    +0.167 A 
ATOM      3  O   LIG    1       22.044 -29.783  11.550  0.00  0.00    -0.481 OA
ATOM      4  C   LIG    1       22.166 -29.039  12.810  0.00  0.00    +0.217 C 
ATOM      5  C   LIG    1       23.649 -28.696  13.051  0.00  0.00    +0.048 C 
ATOM      6  C   LIG    1       24.020 -27.204  13.032  0.00  0.00    +0.043 C 
ATOM      7  C   LIG    1       25.554 -27.136  13.301  0.00  0.00    +0.069 C 
ATOM      8  N   LIG    1       25.988 -27.728  14.586  0.00  0.00    -0.301 NA
ATOM      9  C   LIG    1       26.537 -26.730  15.500  0.00  0.00    +0.105 C 
ATOM     10  C   LIG    1       24.971 -28.540  15.249  0.00  0.00    +0.085 C 
ATOM     11  C   LIG    1       26.338 -27.887  12.142  0.00  0.00    +0.055 C 
ATOM     12  C   LIG    1       25.521 -28.892  11.354  0.00  0.00    -0.038 A 
ATOM     13  C   LIG    1       25.917 -29.427  10.132  0.00  0.00    +0.008 A 
ATOM     14  C   LIG    1       23.048 -26.426  13.873  0.00  0.00    -0.023 C 
ATOM     15  C   LIG    1       21.737 -26.700  13.742  0.00  0.00    +0.004 C 
ATOM     16  C   LIG    1       24.225 -29.454  14.276  0.00  0.00    +0.031 C 
ATOM     17  C   LIG    1       21.249 -27.789  12.813  0.00  0.00    +0.178 C 
ATOM     18  C   LIG    1       24.239 -29.205  11.788  0.00  0.00    +0.012 A 
ATOM     19  C   LIG    1       25.004 -30.183   9.370  0.00  0.00    +0.050 A 
ENDROOT
BRANCH   1  21
ATOM     20  C   LIG    1       23.402 -32.318   8.434  0.00  0.00    +0.277 C 
ATOM     21  O   LIG    1       22.900 -31.071   8.897  0.00  0.00    -0.491 OA
ENDBRANCH   1  21
BRANCH  17  22
ATOM     22  O   LIG    1       19.944 -28.170  13.253  0.00  0.00    -0.384 OA
ATOM     23  H   LIG    1       19.358 -27.413  13.081  0.00  0.00    +0.210 HD
ENDBRANCH  17  22
TORSDOF 2
ENDMDL
MODEL 7
REMARK VINA RESULT:      -5.7      9.272     10.535
REMARK  Name = *****
REMARK                            x       y       z     vdW  Elec       q    Type
REMARK                         _______ _______ _______ _____ _____    ______ ____
ROOT
ATOM      1  C   LIG    1       24.423 -27.029  13.297  0.00  0.00    +0.162 A 
ATOM      2  C   LIG    1       24.728 -28.119  12.501  0.00  0.00    +0.167 A 
ATOM      3  O   LIG    1       25.913 -28.393  11.867  0.00  0.00    -0.481 OA
ATOM      4  C   LIG    1       25.694 -29.605  11.067  0.00  0.00    +0.217 C 
ATOM      5  C   LIG    1       24.257 -30.112  11.305  0.00  0.00    +0.048 C 
ATOM      6  C   LIG    1       23.308 -30.075  10.097  0.00  0.00    +0.043 C 
ATOM      7  C   LIG    1       21.943 -30.637  10.601  0.00  0.00    +0.069 C 
ATOM      8  N   LIG    1       21.997 -32.016  11.134  0.00  0.00    -0.301 NA
ATOM      9  C   LIG    1       21.235 -32.958  10.319  0.00  0.00    +0.105 C 
ATOM     10  C   LIG    1       23.348 -32.514  11.384  0.00  0.00    +0.085 C 
ATOM     11  C   LIG    1       21.369 -29.704  11.750  0.00  0.00    +0.055 C 
ATOM     12  C   LIG    1       22.394 -28.833  12.450  0.00  0.00    -0.038 A 
ATOM     13  C   LIG    1       22.068 -27.749  13.259  0.00  0.00    +0.008 A 
ATOM     14  C   LIG    1       23.991 -30.659   8.892  0.00  0.00    -0.023 C 
ATOM     15  C   LIG    1       25.261 -30.289   8.644  0.00  0.00    +0.004 C 
ATOM     16  C   LIG    1       24.243 -31.471  12.054  0.00  0.00    +0.031 C 
ATOM     17  C   LIG    1       26.003 -29.350   9.569  0.00  0.00    +0.178 C 
ATOM     18  C   LIG    1       23.741 -29.024  12.172  0.00  0.00    +0.012 A 
ATOM     19  C   LIG    1       23.081 -26.869  13.691  0.00  0.00    +0.050 A 
ENDROOT
BRANCH   1  21
ATOM     20  C   LIG    1       24.775 -25.200  14.770  0.00  0.00    +0.277 C 
ATOM     21  O   LIG    1       25.262 -26.045  13.736  0.00  0.00    -0.491 OA
ENDBRANCH   1  21
BRANCH  17  22
ATOM     22  O   LIG    1       27.400 -29.546   9.343  0.00  0.00    -0.384 OA
ATOM     23  H   LIG    1       27.750 -28.704   9.004  0.00  0.00    +0.210 HD
ENDBRANCH  17  22
TORSDOF 2
ENDMDL
MODEL 8
REMARK VINA RESULT:      -5.6      8.888     10.945
REMARK  Name = *****
REMARK                            x       y       z     vdW  Elec       q    Type
REMARK                         _______ _______ _______ _____ _____    ______ ____
ROOT
ATOM      1  C   LIG    1       24.237 -29.967   8.203  0.00  0.00    +0.162 A 
ATOM      2  C   LIG    1       23.656 -30.166   9.444  0.00  0.00    +0.167 A 
ATOM      3  O   LIG    1       22.373 -30.566   9.718  0.00  0.00    -0.481 OA
ATOM      4  C   LIG    1       22.221 -30.523  11.177  0.00  0.00    +0.217 C 
ATOM      5  C   LIG    1       23.565 -30.113  11.813  0.00  0.00    +0.048 C 
ATOM      6  C   LIG    1       23.591 -28.766  12.551  0.00  0.00    +0.043 C 
ATOM      7  C   LIG    1       25.044 -28.597  13.093  0.00  0.00    +0.069 C 
ATOM      8  N   LIG    1       25.492 -29.665  14.014  0.00  0.00    -0.301 NA
ATOM      9  C   LIG    1       25.726 -29.169  15.368  0.00  0.00    +0.105 C 
ATOM     10  C   LIG    1       24.632 -30.846  14.032  0.00  0.00    +0.085 C 
ATOM     11  C   LIG    1       26.068 -28.553  11.881  0.00  0.00    +0.055 C 
ATOM     12  C   LIG    1       25.565 -29.159  10.586  0.00  0.00    -0.038 A 
ATOM     13  C   LIG    1       26.171 -28.959   9.349  0.00  0.00    +0.008 A 
ATOM     14  C   LIG    1       22.403 -28.661  13.466  0.00  0.00    -0.023 C 
ATOM     15  C   LIG    1       21.203 -29.038  12.989  0.00  0.00    +0.004 C 
ATOM     16  C   LIG    1       24.193 -31.273  12.631  0.00  0.00    +0.031 C 
ATOM     17  C   LIG    1       21.050 -29.596  11.592  0.00  0.00    +0.178 C 
ATOM     18  C   LIG    1       24.356 -29.841  10.587  0.00  0.00    +0.012 A 
ATOM     19  C   LIG    1       25.516 -29.379   8.173  0.00  0.00    +0.050 A 
ENDROOT
BRANCH   1  21
ATOM     20  C   LIG    1       24.131 -29.410   5.897  0.00  0.00    +0.277 C 
ATOM     21  O   LIG    1       23.712 -30.240   6.973  0.00  0.00    -0.491 OA
ENDBRANCH   1  21
BRANCH  17  22
ATOM     22  O   LIG    1       19.832 -30.343  11.563  0.00  0.00    -0.384 OA
ATOM     23  H   LIG    1       19.208 -29.885  12.152  0.00  0.00    +0.210 HD
ENDBRANCH  17  22
TORSDOF 2
ENDMDL
MODEL 9
REMARK VINA RESULT:      -5.4      9.083     11.175
REMARK  Name = *****
REMARK                            x       y       z     vdW  Elec       q    Type
REMARK                         _______ _______ _______ _____ _____    ______ ____
ROOT
ATOM      1  C   LIG    1       21.588 -29.060  12.539  0.00  0.00    +0.162 A 
ATOM      2  C   LIG    1       22.962 -29.183  12.651  0.00  0.00    +0.167 A 
ATOM      3  O   LIG    1       23.713 -30.329  12.587  0.00  0.00    -0.481 OA
ATOM      4  C   LIG    1       25.101 -29.941  12.869  0.00  0.00    +0.217 C 
ATOM      5  C   LIG    1       25.168 -28.412  13.059  0.00  0.00    +0.048 C 
ATOM      6  C   LIG    1       25.558 -27.912  14.459  0.00  0.00    +0.043 C 
ATOM      7  C   LIG    1       25.555 -26.354  14.379  0.00  0.00    +0.069 C 
ATOM      8  N   LIG    1       26.484 -25.780  13.381  0.00  0.00    -0.301 NA
ATOM      9  C   LIG    1       27.554 -25.003  14.000  0.00  0.00    +0.105 C 
ATOM     10  C   LIG    1       27.025 -26.751  12.432  0.00  0.00    +0.085 C 
ATOM     11  C   LIG    1       24.096 -25.837  14.024  0.00  0.00    +0.055 C 
ATOM     12  C   LIG    1       23.190 -26.859  13.366  0.00  0.00    -0.038 A 
ATOM     13  C   LIG    1       21.811 -26.712  13.250  0.00  0.00    +0.008 A 
ATOM     14  C   LIG    1       26.764 -28.662  14.951  0.00  0.00    -0.023 C 
ATOM     15  C   LIG    1       26.791 -29.996  14.784  0.00  0.00    +0.004 C 
ATOM     16  C   LIG    1       25.963 -27.723  11.918  0.00  0.00    +0.031 C 
ATOM     17  C   LIG    1       25.667 -30.724  14.080  0.00  0.00    +0.178 C 
ATOM     18  C   LIG    1       23.724 -28.079  12.974  0.00  0.00    +0.012 A 
ATOM     19  C   LIG    1       21.025 -27.801  12.821  0.00  0.00    +0.050 A 
ENDROOT
BRANCH   1  21
ATOM     20  C   LIG    1       20.651 -30.453  10.861  0.00  0.00    +0.277 C 
ATOM     21  O   LIG    1       20.680 -30.027  12.217  0.00  0.00    -0.491 OA
ENDBRANCH   1  21
BRANCH  17  22
ATOM     22  O   LIG    1       26.189 -31.973  13.624  0.00  0.00    -0.384 OA
ATOM     23  H   LIG    1       26.942 -31.767  13.044  0.00  0.00    +0.210 HD
ENDBRANCH  17  22
TORSDOF 2
ENDMDL
