MODEL 1
REMARK VINA RESULT:      -6.5      0.000      0.000
REMARK  Name = *****
REMARK                            x       y       z     vdW  Elec       q    Type
REMARK                         _______ _______ _______ _____ _____    ______ ____
ROOT
ATOM      1  C   LIG    1       26.235 -20.693   7.772  0.00  0.00    +0.132 C 
ENDROOT
BRANCH   1   2
ATOM      2  C   LIG    1       27.561 -19.824   7.642  0.00  0.00    +0.173 C 
ATOM      3  C   LIG    1       27.892 -19.391   6.186  0.00  0.00    +0.176 C 
ATOM      4  C   LIG    1       29.282 -18.749   6.034  0.00  0.00    +0.177 C 
ATOM      5  C   LIG    1       30.356 -19.623   6.680  0.00  0.00    +0.184 C 
ATOM      6  C   LIG    1       29.965 -19.894   8.146  0.00  0.00    +0.207 C 
ATOM      7  O   LIG    1       28.683 -20.571   8.198  0.00  0.00    -0.356 OA
BRANCH   3   8
ATOM      8  O   LIG    1       27.842 -20.507   5.279  0.00  0.00    -0.387 OA
ATOM      9  H   LIG    1       28.492 -20.363   4.566  0.00  0.00    +0.210 HD
ENDBRANCH   3   8
BRANCH   4  10
ATOM     10  O   LIG    1       29.617 -18.577   4.644  0.00  0.00    -0.387 OA
ATOM     11  H   LIG    1       30.367 -17.948   4.622  0.00  0.00    +0.210 HD
ENDBRANCH   4  10
BRANCH   5  12
ATOM     12  O   LIG    1       31.647 -19.023   6.518  0.00  0.00    -0.386 OA
ATOM     13  H   LIG    1       32.200 -19.709   6.088  0.00  0.00    +0.210 HD
ENDBRANCH   5  12
BRANCH   6  14
ATOM     14  S   LIG    1       30.017 -18.363   9.167  0.00  0.00    -0.131 S 
ATOM     15  C   LIG    1       31.773 -18.333   9.552  0.00  0.00    +0.087 C 
ENDBRANCH   6  14
ENDBRANCH   1   2
BRANCH   1  17
ATOM     16  C   LIG    1       23.984 -20.559   6.485  0.00  0.00    +0.231 C 
ATOM     17  N   LIG    1       25.369 -20.498   6.557  0.00  0.00    -0.306 N 
ATOM     18  H   LIG    1       25.780 -19.943   5.810  0.00  0.00    +0.149 HD
ATOM     19  O   LIG    1       23.274 -20.823   7.431  0.00  0.00    -0.274 OA
BRANCH  16  24
ATOM     20  C   LIG    1       22.813 -18.238   4.055  0.00  0.00    +0.005 C 
ATOM     21  C   LIG    1       24.277 -18.617   3.852  0.00  0.00    +0.088 C 
ATOM     22  N   LIG    1       24.394 -20.067   4.077  0.00  0.00    -0.294 NA
ATOM     23  C   LIG    1       24.171 -20.796   2.828  0.00  0.00    +0.105 C 
ATOM     24  C   LIG    1       23.356 -20.396   5.081  0.00  0.00    +0.143 C 
ATOM     25  C   LIG    1       22.322 -19.248   5.088  0.00  0.00    +0.033 C 
BRANCH  20  26
ATOM     26  C   LIG    1       22.639 -16.766   4.471  0.00  0.00    +0.004 C 
BRANCH  26  28
ATOM     27  C   LIG    1       23.604 -14.386   4.251  0.00  0.00    +0.004 C 
ATOM     28  C   LIG    1       23.873 -15.883   4.214  0.00  0.00    -0.003 C 
ENDBRANCH  26  28
ENDBRANCH  20  26
ENDBRANCH  16  24
ENDBRANCH   1  17
BRANCH   1  29
ATOM     29  C   LIG    1       26.519 -22.184   8.177  0.00  0.00    +0.134 C 
ATOM     30  C   LIG    1       26.292 -23.260   7.110  0.00  0.00    +0.039 C 
BRANCH  29  31
ATOM     31  O   LIG    1       25.793 -22.516   9.368  0.00  0.00    -0.390 OA
ATOM     32  H   LIG    1       26.466 -22.857  10.001  0.00  0.00    +0.210 HD
ENDBRANCH  29  31
ENDBRANCH   1  29
TORSDOF 11
ENDMDL
MODEL 2
REMARK VINA RESULT:      -6.4      3.005      7.313
REMARK  Name = *****
REMARK                            x       y       z     vdW  Elec       q    Type
REMARK                         _______ _______ _______ _____ _____    ______ ____
ROOT
ATOM      1  C   LIG    1       26.233 -20.120   5.798  0.00  0.00    +0.132 C 
ENDROOT
BRANCH   1   2
ATOM      2  C   LIG    1       25.378 -21.456   5.671  0.00  0.00    +0.173 C 
ATOM      3  C   LIG    1       23.867 -21.216   5.396  0.00  0.00    +0.176 C 
ATOM      4  C   LIG    1       23.010 -22.489   5.498  0.00  0.00    +0.177 C 
ATOM      5  C   LIG    1       23.293 -23.229   6.804  0.00  0.00    +0.184 C 
ATOM      6  C   LIG    1       24.807 -23.500   6.908  0.00  0.00    +0.207 C 
ATOM      7  O   LIG    1       25.536 -22.245   6.886  0.00  0.00    -0.356 OA
BRANCH   3   8
ATOM      8  O   LIG    1       23.309 -20.259   6.315  0.00  0.00    -0.387 OA
ATOM      9  H   LIG    1       22.676 -19.693   5.835  0.00  0.00    +0.210 HD
ENDBRANCH   3   8
BRANCH   4  10
ATOM     10  O   LIG    1       21.608 -22.168   5.457  0.00  0.00    -0.387 OA
ATOM     11  H   LIG    1       21.141 -22.942   5.835  0.00  0.00    +0.210 HD
ENDBRANCH   4  10
BRANCH   5  12
ATOM     12  O   LIG    1       22.480 -24.405   6.895  0.00  0.00    -0.386 OA
ATOM     13  H   LIG    1       23.085 -25.154   6.713  0.00  0.00    +0.210 HD
ENDBRANCH   5  12
BRANCH   6  14
ATOM     14  S   LIG    1       25.382 -24.694   5.631  0.00  0.00    -0.131 S 
ATOM     15  C   LIG    1       25.824 -26.070   6.701  0.00  0.00    +0.087 C 
ENDBRANCH   6  14
ENDBRANCH   1   2
BRANCH   1  17
ATOM     16  C   LIG    1       28.250 -20.358   7.415  0.00  0.00    +0.231 C 
ATOM     17  N   LIG    1       27.655 -20.449   6.164  0.00  0.00    -0.306 N 
ATOM     18  H   LIG    1       28.124 -21.110   5.549  0.00  0.00    +0.149 HD
ATOM     19  O   LIG    1       27.678 -19.950   8.402  0.00  0.00    -0.274 OA
BRANCH  16  24
ATOM     20  C   LIG    1       31.471 -19.143   8.318  0.00  0.00    +0.005 C 
ATOM     21  C   LIG    1       30.788 -19.903   9.451  0.00  0.00    +0.088 C 
ATOM     22  N   LIG    1       30.144 -21.088   8.862  0.00  0.00    -0.294 NA
ATOM     23  C   LIG    1       31.072 -22.218   8.844  0.00  0.00    +0.105 C 
ATOM     24  C   LIG    1       29.760 -20.688   7.489  0.00  0.00    +0.143 C 
ATOM     25  C   LIG    1       30.597 -19.448   7.104  0.00  0.00    +0.033 C 
BRANCH  20  26
ATOM     26  C   LIG    1       31.628 -17.642   8.627  0.00  0.00    +0.004 C 
BRANCH  26  28
ATOM     27  C   LIG    1       30.955 -16.556  10.866  0.00  0.00    +0.004 C 
ATOM     28  C   LIG    1       30.506 -17.054   9.500  0.00  0.00    -0.003 C 
ENDBRANCH  26  28
ENDBRANCH  20  26
ENDBRANCH  16  24
ENDBRANCH   1  17
BRANCH   1  29
ATOM     29  C   LIG    1       26.048 -19.159   4.569  0.00  0.00    +0.134 C 
ATOM     30  C   LIG    1       25.445 -19.754   3.292  0.00  0.00    +0.039 C 
BRANCH  29  31
ATOM     31  O   LIG    1       27.288 -18.507   4.265  0.00  0.00    -0.390 OA
ATOM     32  H   LIG    1       27.975 -18.990   4.780  0.00  0.00    +0.210 HD
ENDBRANCH  29  31
ENDBRANCH   1  29
TORSDOF 11
ENDMDL
MODEL 3
REMARK VINA RESULT:      -6.3      6.140      9.815
REMARK  Name = *****
REMARK                            x       y       z     vdW  Elec       q    Type
REMARK                         _______ _______ _______ _____ _____    ______ ____
ROOT
ATOM      1  C   LIG    1       26.223 -26.627   6.727  0.00  0.00    +0.132 C 
ENDROOT
BRANCH   1   2
ATOM      2  C   LIG    1       25.542 -25.221   7.026  0.00  0.00    +0.173 C 
ATOM      3  C   LIG    1       24.008 -25.194   6.767  0.00  0.00    +0.176 C 
ATOM      4  C   LIG    1       23.394 -23.786   6.840  0.00  0.00    +0.177 C 
ATOM      5  C   LIG    1       24.186 -22.805   5.976  0.00  0.00    +0.184 C 
ATOM      6  C   LIG    1       25.667 -22.849   6.399  0.00  0.00    +0.207 C 
ATOM      7  O   LIG    1       26.191 -24.191   6.225  0.00  0.00    -0.356 OA
BRANCH   3   8
ATOM      8  O   LIG    1       23.682 -25.730   5.472  0.00  0.00    -0.387 OA
ATOM      9  H   LIG    1       22.925 -26.338   5.565  0.00  0.00    +0.210 HD
ENDBRANCH   3   8
BRANCH   4  10
ATOM     10  O   LIG    1       22.032 -23.797   6.376  0.00  0.00    -0.387 OA
ATOM     11  H   LIG    1       21.609 -24.575   6.795  0.00  0.00    +0.210 HD
ENDBRANCH   4  10
BRANCH   5  12
ATOM     12  O   LIG    1       23.596 -21.501   6.039  0.00  0.00    -0.386 OA
ATOM     13  H   LIG    1       22.901 -21.563   6.727  0.00  0.00    +0.210 HD
ENDBRANCH   5  12
BRANCH   6  14
ATOM     14  S   LIG    1       25.919 -22.188   8.098  0.00  0.00    -0.131 S 
ATOM     15  C   LIG    1       26.636 -20.592   7.685  0.00  0.00    +0.087 C 
ENDBRANCH   6  14
ENDBRANCH   1   2
BRANCH   1  17
ATOM     16  C   LIG    1       25.887 -28.493   8.500  0.00  0.00    +0.231 C 
ATOM     17  N   LIG    1       25.466 -27.726   7.423  0.00  0.00    -0.306 N 
ATOM     18  H   LIG    1       24.453 -27.680   7.340  0.00  0.00    +0.149 HD
ATOM     19  O   LIG    1       26.981 -28.389   9.011  0.00  0.00    -0.274 OA
BRANCH  16  24
ATOM     20  C   LIG    1       24.290 -31.542   7.597  0.00  0.00    +0.005 C 
ATOM     21  C   LIG    1       25.621 -31.762   8.308  0.00  0.00    +0.088 C 
ATOM     22  N   LIG    1       25.691 -30.801   9.421  0.00  0.00    -0.294 NA
ATOM     23  C   LIG    1       25.103 -31.377  10.630  0.00  0.00    +0.105 C 
ATOM     24  C   LIG    1       24.929 -29.615   8.967  0.00  0.00    +0.143 C 
ATOM     25  C   LIG    1       24.015 -30.055   7.803  0.00  0.00    +0.033 C 
BRANCH  20  26
ATOM     26  C   LIG    1       24.331 -31.983   6.121  0.00  0.00    +0.004 C 
BRANCH  26  28
ATOM     27  C   LIG    1       25.846 -32.276   4.056  0.00  0.00    +0.004 C 
ATOM     28  C   LIG    1       25.592 -31.536   5.362  0.00  0.00    -0.003 C 
ENDBRANCH  26  28
ENDBRANCH  20  26
ENDBRANCH  16  24
ENDBRANCH   1  17
BRANCH   1  29
ATOM     29  C   LIG    1       26.508 -26.854   5.199  0.00  0.00    +0.134 C 
ATOM     30  C   LIG    1       25.681 -27.926   4.479  0.00  0.00    +0.039 C 
BRANCH  29  31
ATOM     31  O   LIG    1       27.905 -27.095   4.990  0.00  0.00    -0.390 OA
ATOM     32  H   LIG    1       27.960 -27.643   4.173  0.00  0.00    +0.210 HD
ENDBRANCH  29  31
ENDBRANCH   1  29
TORSDOF 11
ENDMDL
MODEL 4
REMARK VINA RESULT:      -6.1      7.411     10.246
REMARK  Name = *****
REMARK                            x       y       z     vdW  Elec       q    Type
REMARK                         _______ _______ _______ _____ _____    ______ ____
ROOT
ATOM      1  C   LIG    1       25.240 -30.670   8.283  0.00  0.00    +0.132 C 
ENDROOT
BRANCH   1   2
ATOM      2  C   LIG    1       25.265 -30.160   9.790  0.00  0.00    +0.173 C 
ATOM      3  C   LIG    1       26.170 -28.916  10.021  0.00  0.00    +0.176 C 
ATOM      4  C   LIG    1       26.368 -28.564  11.505  0.00  0.00    +0.177 C 
ATOM      5  C   LIG    1       26.793 -29.797  12.302  0.00  0.00    +0.184 C 
ATOM      6  C   LIG    1       25.762 -30.920  12.072  0.00  0.00    +0.207 C 
ATOM      7  O   LIG    1       25.695 -31.247  10.660  0.00  0.00    -0.356 OA
BRANCH   3   8
ATOM      8  O   LIG    1       27.479 -29.104   9.454  0.00  0.00    -0.387 OA
ATOM      9  H   LIG    1       27.909 -29.858   9.897  0.00  0.00    +0.210 HD
ENDBRANCH   3   8
BRANCH   4  10
ATOM     10  O   LIG    1       27.384 -27.556  11.661  0.00  0.00    -0.387 OA
ATOM     11  H   LIG    1       28.214 -28.036  11.864  0.00  0.00    +0.210 HD
ENDBRANCH   4  10
BRANCH   5  12
ATOM     12  O   LIG    1       26.990 -29.454  13.679  0.00  0.00    -0.386 OA
ATOM     13  H   LIG    1       27.605 -28.691  13.671  0.00  0.00    +0.210 HD
ENDBRANCH   5  12
BRANCH   6  14
ATOM     14  S   LIG    1       24.122 -30.510  12.800  0.00  0.00    -0.131 S 
ATOM     15  C   LIG    1       23.238 -32.020  12.389  0.00  0.00    +0.087 C 
ENDBRANCH   6  14
ENDBRANCH   1   2
BRANCH   1  17
ATOM     16  C   LIG    1       24.648 -28.982   6.401  0.00  0.00    +0.231 C 
ATOM     17  N   LIG    1       25.509 -29.524   7.345  0.00  0.00    -0.306 N 
ATOM     18  H   LIG    1       26.228 -28.871   7.647  0.00  0.00    +0.149 HD
ATOM     19  O   LIG    1       23.535 -29.410   6.185  0.00  0.00    -0.274 OA
BRANCH  16  24
ATOM     20  C   LIG    1       24.730 -25.471   5.826  0.00  0.00    +0.005 C 
ATOM     21  C   LIG    1       25.862 -25.948   6.730  0.00  0.00    +0.088 C 
ATOM     22  N   LIG    1       26.380 -27.205   6.166  0.00  0.00    -0.294 NA
ATOM     23  C   LIG    1       27.445 -26.931   5.202  0.00  0.00    +0.105 C 
ATOM     24  C   LIG    1       25.218 -27.851   5.512  0.00  0.00    +0.143 C 
ATOM     25  C   LIG    1       24.145 -26.768   5.273  0.00  0.00    +0.033 C 
BRANCH  20  26
ATOM     26  C   LIG    1       23.716 -24.583   6.570  0.00  0.00    +0.004 C 
BRANCH  26  28
ATOM     27  C   LIG    1       23.166 -22.142   7.192  0.00  0.00    +0.004 C 
ATOM     28  C   LIG    1       24.245 -23.184   6.932  0.00  0.00    -0.003 C 
ENDBRANCH  26  28
ENDBRANCH  20  26
ENDBRANCH  16  24
ENDBRANCH   1  17
BRANCH   1  29
ATOM     29  C   LIG    1       26.115 -31.955   8.060  0.00  0.00    +0.134 C 
ATOM     30  C   LIG    1       26.674 -32.193   6.653  0.00  0.00    +0.039 C 
BRANCH  29  31
ATOM     31  O   LIG    1       25.403 -33.118   8.504  0.00  0.00    -0.390 OA
ATOM     32  H   LIG    1       24.577 -32.779   8.921  0.00  0.00    +0.210 HD
ENDBRANCH  29  31
ENDBRANCH   1  29
TORSDOF 11
ENDMDL
MODEL 5
REMARK VINA RESULT:      -6.0      5.785      8.469
REMARK  Name = *****
REMARK                            x       y       z     vdW  Elec       q    Type
REMARK                         _______ _______ _______ _____ _____    ______ ____
ROOT
ATOM      1  C   LIG    1       24.574 -27.382   6.399  0.00  0.00    +0.132 C 
ENDROOT
BRANCH   1   2
ATOM      2  C   LIG    1       24.758 -28.233   7.731  0.00  0.00    +0.173 C 
ATOM      3  C   LIG    1       26.023 -27.855   8.553  0.00  0.00    +0.176 C 
ATOM      4  C   LIG    1       26.318 -28.822   9.712  0.00  0.00    +0.177 C 
ATOM      5  C   LIG    1       26.305 -30.270   9.225  0.00  0.00    +0.184 C 
ATOM      6  C   LIG    1       24.962 -30.549   8.522  0.00  0.00    +0.207 C 
ATOM      7  O   LIG    1       24.798 -29.650   7.395  0.00  0.00    -0.356 OA
BRANCH   3   8
ATOM      8  O   LIG    1       27.199 -27.818   7.724  0.00  0.00    -0.387 OA
ATOM      9  H   LIG    1       27.893 -27.312   8.186  0.00  0.00    +0.210 HD
ENDBRANCH   3   8
BRANCH   4  10
ATOM     10  O   LIG    1       27.609 -28.552  10.287  0.00  0.00    -0.387 OA
ATOM     11  H   LIG    1       27.472 -28.516  11.257  0.00  0.00    +0.210 HD
ENDBRANCH   4  10
BRANCH   5  12
ATOM     12  O   LIG    1       26.596 -31.160  10.308  0.00  0.00    -0.386 OA
ATOM     13  H   LIG    1       25.778 -31.684  10.442  0.00  0.00    +0.210 HD
ENDBRANCH   5  12
BRANCH   6  14
ATOM     14  S   LIG    1       23.546 -30.503   9.698  0.00  0.00    -0.131 S 
ATOM     15  C   LIG    1       23.144 -32.255   9.735  0.00  0.00    +0.087 C 
ENDBRANCH   6  14
ENDBRANCH   1   2
BRANCH   1  17
ATOM     16  C   LIG    1       24.413 -24.805   6.670  0.00  0.00    +0.231 C 
ATOM     17  N   LIG    1       25.124 -25.995   6.593  0.00  0.00    -0.306 N 
ATOM     18  H   LIG    1       26.033 -25.943   7.046  0.00  0.00    +0.149 HD
ATOM     19  O   LIG    1       23.210 -24.734   6.551  0.00  0.00    -0.274 OA
BRANCH  16  24
ATOM     20  C   LIG    1       24.590 -21.349   5.840  0.00  0.00    +0.005 C 
ATOM     21  C   LIG    1       23.939 -21.597   7.197  0.00  0.00    +0.088 C 
ATOM     22  N   LIG    1       24.718 -22.644   7.876  0.00  0.00    -0.294 NA
ATOM     23  C   LIG    1       25.802 -22.049   8.656  0.00  0.00    +0.105 C 
ATOM     24  C   LIG    1       25.247 -23.507   6.794  0.00  0.00    +0.143 C 
ATOM     25  C   LIG    1       25.187 -22.706   5.476  0.00  0.00    +0.033 C 
BRANCH  20  26
ATOM     26  C   LIG    1       23.596 -20.792   4.803  0.00  0.00    +0.004 C 
BRANCH  26  28
ATOM     27  C   LIG    1       22.313 -18.585   4.447  0.00  0.00    +0.004 C 
ATOM     28  C   LIG    1       22.602 -19.763   5.367  0.00  0.00    -0.003 C 
ENDBRANCH  26  28
ENDBRANCH  20  26
ENDBRANCH  16  24
ENDBRANCH   1  17
BRANCH   1  29
ATOM     29  C   LIG    1       25.070 -28.141   5.117  0.00  0.00    +0.134 C 
ATOM     30  C   LIG    1       25.866 -27.335   4.084  0.00  0.00    +0.039 C 
BRANCH  29  31
ATOM     31  O   LIG    1       23.969 -28.800   4.478  0.00  0.00    -0.390 OA
ATOM     32  H   LIG    1       23.831 -28.321   3.628  0.00  0.00    +0.210 HD
ENDBRANCH  29  31
ENDBRANCH   1  29
TORSDOF 11
ENDMDL
MODEL 6
REMARK VINA RESULT:      -5.7      6.095      9.109
REMARK  Name = *****
REMARK                            x       y       z     vdW  Elec       q    Type
REMARK                         _______ _______ _______ _____ _____    ______ ____
ROOT
ATOM      1  C   LIG    1       24.939 -27.383   5.376  0.00  0.00    +0.132 C 
ENDROOT
BRANCH   1   2
ATOM      2  C   LIG    1       24.687 -28.707   6.222  0.00  0.00    +0.173 C 
ATOM      3  C   LIG    1       24.938 -28.539   7.748  0.00  0.00    +0.176 C 
ATOM      4  C   LIG    1       24.913 -29.865   8.527  0.00  0.00    +0.177 C 
ATOM      5  C   LIG    1       25.815 -30.902   7.861  0.00  0.00    +0.184 C 
ATOM      6  C   LIG    1       25.399 -31.052   6.384  0.00  0.00    +0.207 C 
ATOM      7  O   LIG    1       25.527 -29.778   5.702  0.00  0.00    -0.356 OA
BRANCH   3   8
ATOM      8  O   LIG    1       26.211 -27.921   8.008  0.00  0.00    -0.387 OA
ATOM      9  H   LIG    1       26.910 -28.445   7.573  0.00  0.00    +0.210 HD
ENDBRANCH   3   8
BRANCH   4  10
ATOM     10  O   LIG    1       25.369 -29.673   9.879  0.00  0.00    -0.387 OA
ATOM     11  H   LIG    1       24.614 -29.910  10.456  0.00  0.00    +0.210 HD
ENDBRANCH   4  10
BRANCH   5  12
ATOM     12  O   LIG    1       25.796 -32.127   8.603  0.00  0.00    -0.386 OA
ATOM     13  H   LIG    1       26.698 -32.500   8.511  0.00  0.00    +0.210 HD
ENDBRANCH   5  12
BRANCH   6  14
ATOM     14  S   LIG    1       23.725 -31.799   6.213  0.00  0.00    -0.131 S 
ATOM     15  C   LIG    1       24.177 -33.335   5.395  0.00  0.00    +0.087 C 
ENDBRANCH   6  14
ENDBRANCH   1   2
BRANCH   1  17
ATOM     16  C   LIG    1       24.704 -24.839   5.841  0.00  0.00    +0.231 C 
ATOM     17  N   LIG    1       24.719 -26.170   6.238  0.00  0.00    -0.306 N 
ATOM     18  H   LIG    1       24.201 -26.332   7.099  0.00  0.00    +0.149 HD
ATOM     19  O   LIG    1       24.911 -24.477   4.703  0.00  0.00    -0.274 OA
BRANCH  16  24
ATOM     20  C   LIG    1       26.172 -22.040   7.476  0.00  0.00    +0.005 C 
ATOM     21  C   LIG    1       25.248 -21.637   6.330  0.00  0.00    +0.088 C 
ATOM     22  N   LIG    1       24.057 -22.498   6.399  0.00  0.00    -0.294 NA
ATOM     23  C   LIG    1       23.038 -21.892   7.256  0.00  0.00    +0.105 C 
ATOM     24  C   LIG    1       24.531 -23.785   6.960  0.00  0.00    +0.143 C 
ATOM     25  C   LIG    1       25.881 -23.527   7.663  0.00  0.00    +0.033 C 
BRANCH  20  26
ATOM     26  C   LIG    1       27.648 -21.713   7.185  0.00  0.00    +0.004 C 
BRANCH  26  28
ATOM     27  C   LIG    1       28.408 -19.652   5.834  0.00  0.00    +0.004 C 
ATOM     28  C   LIG    1       27.976 -20.209   7.183  0.00  0.00    -0.003 C 
ENDBRANCH  26  28
ENDBRANCH  20  26
ENDBRANCH  16  24
ENDBRANCH   1  17
BRANCH   1  29
ATOM     29  C   LIG    1       26.291 -27.417   4.577  0.00  0.00    +0.134 C 
ATOM     30  C   LIG    1       27.562 -26.993   5.322  0.00  0.00    +0.039 C 
BRANCH  29  31
ATOM     31  O   LIG    1       26.164 -26.666   3.363  0.00  0.00    -0.390 OA
ATOM     32  H   LIG    1       26.799 -27.076   2.731  0.00  0.00    +0.210 HD
ENDBRANCH  29  31
ENDBRANCH   1  29
TORSDOF 11
ENDMDL
MODEL 7
REMARK VINA RESULT:      -5.6      6.011      8.999
REMARK  Name = *****
REMARK                            x       y       z     vdW  Elec       q    Type
REMARK                         _______ _______ _______ _____ _____    ______ ____
ROOT
ATOM      1  C   LIG    1       25.251 -27.559   5.524  0.00  0.00    +0.132 C 
ENDROOT
BRANCH   1   2
ATOM      2  C   LIG    1       25.252 -28.828   6.483  0.00  0.00    +0.173 C 
ATOM      3  C   LIG    1       24.432 -30.032   5.938  0.00  0.00    +0.176 C 
ATOM      4  C   LIG    1       24.249 -31.167   6.959  0.00  0.00    +0.177 C 
ATOM      5  C   LIG    1       23.737 -30.621   8.291  0.00  0.00    +0.184 C 
ATOM      6  C   LIG    1       24.690 -29.510   8.775  0.00  0.00    +0.207 C 
ATOM      7  O   LIG    1       24.744 -28.443   7.793  0.00  0.00    -0.356 OA
BRANCH   3   8
ATOM      8  O   LIG    1       23.116 -29.627   5.517  0.00  0.00    -0.387 OA
ATOM      9  H   LIG    1       22.542 -30.415   5.478  0.00  0.00    +0.210 HD
ENDBRANCH   3   8
BRANCH   4  10
ATOM     10  O   LIG    1       23.303 -32.141   6.479  0.00  0.00    -0.387 OA
ATOM     11  H   LIG    1       22.959 -32.600   7.273  0.00  0.00    +0.210 HD
ENDBRANCH   4  10
BRANCH   5  12
ATOM     12  O   LIG    1       23.556 -31.688   9.229  0.00  0.00    -0.386 OA
ATOM     13  H   LIG    1       22.616 -31.636   9.503  0.00  0.00    +0.210 HD
ENDBRANCH   5  12
BRANCH   6  14
ATOM     14  S   LIG    1       26.350 -30.172   9.217  0.00  0.00    -0.131 S 
ATOM     15  C   LIG    1       26.267 -29.988  11.004  0.00  0.00    +0.087 C 
ENDBRANCH   6  14
ENDBRANCH   1   2
BRANCH   1  17
ATOM     16  C   LIG    1       24.734 -25.032   5.823  0.00  0.00    +0.231 C 
ATOM     17  N   LIG    1       24.919 -26.319   6.310  0.00  0.00    -0.306 N 
ATOM     18  H   LIG    1       24.454 -26.476   7.201  0.00  0.00    +0.149 HD
ATOM     19  O   LIG    1       24.858 -24.732   4.656  0.00  0.00    -0.274 OA
BRANCH  16  24
ATOM     20  C   LIG    1       26.058 -22.129   7.400  0.00  0.00    +0.005 C 
ATOM     21  C   LIG    1       25.203 -21.800   6.181  0.00  0.00    +0.088 C 
ATOM     22  N   LIG    1       24.021 -22.676   6.219  0.00  0.00    -0.294 NA
ATOM     23  C   LIG    1       22.943 -22.045   6.979  0.00  0.00    +0.105 C 
ATOM     24  C   LIG    1       24.477 -23.925   6.873  0.00  0.00    +0.143 C 
ATOM     25  C   LIG    1       25.777 -23.609   7.645  0.00  0.00    +0.033 C 
BRANCH  20  26
ATOM     26  C   LIG    1       27.545 -21.792   7.185  0.00  0.00    +0.004 C 
BRANCH  26  28
ATOM     27  C   LIG    1       28.297 -19.744   5.812  0.00  0.00    +0.004 C 
ATOM     28  C   LIG    1       27.857 -20.285   7.164  0.00  0.00    -0.003 C 
ENDBRANCH  26  28
ENDBRANCH  20  26
ENDBRANCH  16  24
ENDBRANCH   1  17
BRANCH   1  29
ATOM     29  C   LIG    1       26.534 -27.473   4.623  0.00  0.00    +0.134 C 
ATOM     30  C   LIG    1       27.828 -26.981   5.282  0.00  0.00    +0.039 C 
BRANCH  29  31
ATOM     31  O   LIG    1       26.260 -26.698   3.449  0.00  0.00    -0.390 OA
ATOM     32  H   LIG    1       26.393 -27.312   2.690  0.00  0.00    +0.210 HD
ENDBRANCH  29  31
ENDBRANCH   1  29
TORSDOF 11
ENDMDL
MODEL 8
REMARK VINA RESULT:      -5.6      7.513     11.086
REMARK  Name = *****
REMARK                            x       y       z     vdW  Elec       q    Type
REMARK                         _______ _______ _______ _____ _____    ______ ____
ROOT
ATOM      1  C   LIG    1       24.955 -29.650   8.891  0.00  0.00    +0.132 C 
ENDROOT
BRANCH   1   2
ATOM      2  C   LIG    1       24.822 -28.646   7.664  0.00  0.00    +0.173 C 
ATOM      3  C   LIG    1       24.652 -29.350   6.288  0.00  0.00    +0.176 C 
ATOM      4  C   LIG    1       24.748 -28.391   5.089  0.00  0.00    +0.177 C 
ATOM      5  C   LIG    1       26.000 -27.522   5.190  0.00  0.00    +0.184 C 
ATOM      6  C   LIG    1       25.998 -26.799   6.552  0.00  0.00    +0.207 C 
ATOM      7  O   LIG    1       25.988 -27.773   7.627  0.00  0.00    -0.356 OA
BRANCH   3   8
ATOM      8  O   LIG    1       25.645 -30.372   6.091  0.00  0.00    -0.387 OA
ATOM      9  H   LIG    1       25.762 -30.517   5.134  0.00  0.00    +0.210 HD
ENDBRANCH   3   8
BRANCH   4  10
ATOM     10  O   LIG    1       24.808 -29.125   3.851  0.00  0.00    -0.387 OA
ATOM     11  H   LIG    1       25.380 -28.600   3.253  0.00  0.00    +0.210 HD
ENDBRANCH   4  10
BRANCH   5  12
ATOM     12  O   LIG    1       26.088 -26.645   4.061  0.00  0.00    -0.386 OA
ATOM     13  H   LIG    1       25.705 -27.147   3.311  0.00  0.00    +0.210 HD
ENDBRANCH   5  12
BRANCH   6  14
ATOM     14  S   LIG    1       24.636 -25.568   6.676  0.00  0.00    -0.131 S 
ATOM     15  C   LIG    1       25.615 -24.074   6.885  0.00  0.00    +0.087 C 
ENDBRANCH   6  14
ENDBRANCH   1   2
BRANCH   1  17
ATOM     16  C   LIG    1       26.957 -29.636  10.546  0.00  0.00    +0.231 C 
ATOM     17  N   LIG    1       25.845 -29.056   9.950  0.00  0.00    -0.306 N 
ATOM     18  H   LIG    1       25.858 -28.040   9.992  0.00  0.00    +0.149 HD
ATOM     19  O   LIG    1       27.342 -30.758  10.297  0.00  0.00    -0.274 OA
BRANCH  16  24
ATOM     20  C   LIG    1       26.470 -27.278  13.166  0.00  0.00    +0.005 C 
ATOM     21  C   LIG    1       26.376 -28.723  13.647  0.00  0.00    +0.088 C 
ATOM     22  N   LIG    1       27.449 -29.481  12.984  0.00  0.00    -0.294 NA
ATOM     23  C   LIG    1       28.674 -29.436  13.782  0.00  0.00    +0.105 C 
ATOM     24  C   LIG    1       27.642 -28.824  11.670  0.00  0.00    +0.143 C 
ATOM     25  C   LIG    1       27.033 -27.408  11.753  0.00  0.00    +0.033 C 
BRANCH  20  26
ATOM     26  C   LIG    1       25.120 -26.542  13.248  0.00  0.00    +0.004 C 
BRANCH  26  28
ATOM     27  C   LIG    1       22.552 -26.749  13.324  0.00  0.00    +0.004 C 
ATOM     28  C   LIG    1       23.891 -27.466  13.223  0.00  0.00    -0.003 C 
ENDBRANCH  26  28
ENDBRANCH  20  26
ENDBRANCH  16  24
ENDBRANCH   1  17
BRANCH   1  29
ATOM     29  C   LIG    1       23.569 -30.193   9.389  0.00  0.00    +0.134 C 
ATOM     30  C   LIG    1       23.360 -30.313  10.903  0.00  0.00    +0.039 C 
BRANCH  29  31
ATOM     31  O   LIG    1       23.275 -31.446   8.756  0.00  0.00    -0.390 OA
ATOM     32  H   LIG    1       23.738 -31.418   7.888  0.00  0.00    +0.210 HD
ENDBRANCH  29  31
ENDBRANCH   1  29
TORSDOF 11
ENDMDL
MODEL 9
REMARK VINA RESULT:      -5.5      3.650      8.105
REMARK  Name = *****
REMARK                            x       y       z     vdW  Elec       q    Type
REMARK                         _______ _______ _______ _____ _____    ______ ____
ROOT
ATOM      1  C   LIG    1       30.298 -20.918   7.899  0.00  0.00    +0.132 C 
ENDROOT
BRANCH   1   2
ATOM      2  C   LIG    1       28.862 -21.204   7.277  0.00  0.00    +0.173 C 
ATOM      3  C   LIG    1       28.536 -20.347   6.020  0.00  0.00    +0.176 C 
ATOM      4  C   LIG    1       27.074 -20.460   5.558  0.00  0.00    +0.177 C 
ATOM      5  C   LIG    1       26.117 -20.234   6.727  0.00  0.00    +0.184 C 
ATOM      6  C   LIG    1       26.477 -21.212   7.864  0.00  0.00    +0.207 C 
ATOM      7  O   LIG    1       27.844 -20.985   8.296  0.00  0.00    -0.356 OA
BRANCH   3   8
ATOM      8  O   LIG    1       28.798 -18.951   6.251  0.00  0.00    -0.387 OA
ATOM      9  H   LIG    1       29.713 -18.851   6.574  0.00  0.00    +0.210 HD
ENDBRANCH   3   8
BRANCH   4  10
ATOM     10  O   LIG    1       26.781 -19.483   4.542  0.00  0.00    -0.387 OA
ATOM     11  H   LIG    1       27.629 -19.031   4.349  0.00  0.00    +0.210 HD
ENDBRANCH   4  10
BRANCH   5  12
ATOM     12  O   LIG    1       24.759 -20.326   6.282  0.00  0.00    -0.386 OA
ATOM     13  H   LIG    1       24.304 -20.881   6.950  0.00  0.00    +0.210 HD
ENDBRANCH   5  12
BRANCH   6  14
ATOM     14  S   LIG    1       26.145 -22.961   7.398  0.00  0.00    -0.131 S 
ATOM     15  C   LIG    1       24.347 -22.928   7.415  0.00  0.00    +0.087 C 
ENDBRANCH   6  14
ENDBRANCH   1   2
BRANCH   1  17
ATOM     16  C   LIG    1       31.426 -18.893   9.068  0.00  0.00    +0.231 C 
ATOM     17  N   LIG    1       30.341 -19.533   8.485  0.00  0.00    -0.306 N 
ATOM     18  H   LIG    1       29.644 -18.884   8.127  0.00  0.00    +0.149 HD
ATOM     19  O   LIG    1       32.511 -19.411   9.214  0.00  0.00    -0.274 OA
BRANCH  16  24
ATOM     20  C   LIG    1       31.536 -16.892  12.009  0.00  0.00    +0.005 C 
ATOM     21  C   LIG    1       32.816 -16.801  11.185  0.00  0.00    +0.088 C 
ATOM     22  N   LIG    1       32.426 -16.720   9.769  0.00  0.00    -0.294 NA
ATOM     23  C   LIG    1       32.231 -15.326   9.372  0.00  0.00    +0.105 C 
ATOM     24  C   LIG    1       31.164 -17.488   9.662  0.00  0.00    +0.143 C 
ATOM     25  C   LIG    1       30.563 -17.612  11.079  0.00  0.00    +0.033 C 
BRANCH  20  26
ATOM     26  C   LIG    1       31.755 -17.591  13.364  0.00  0.00    +0.004 C 
BRANCH  26  28
ATOM     27  C   LIG    1       32.381 -15.726  15.029  0.00  0.00    +0.004 C 
ATOM     28  C   LIG    1       32.841 -16.944  14.242  0.00  0.00    -0.003 C 
ENDBRANCH  26  28
ENDBRANCH  20  26
ENDBRANCH  16  24
ENDBRANCH   1  17
BRANCH   1  29
ATOM     29  C   LIG    1       30.796 -22.073   8.839  0.00  0.00    +0.134 C 
ATOM     30  C   LIG    1       30.481 -21.952  10.334  0.00  0.00    +0.039 C 
BRANCH  29  31
ATOM     31  O   LIG    1       32.201 -22.287   8.653  0.00  0.00    -0.390 OA
ATOM     32  H   LIG    1       32.288 -23.218   8.343  0.00  0.00    +0.210 HD
ENDBRANCH  29  31
ENDBRANCH   1  29
TORSDOF 11
ENDMDL
