MODEL 1
REMARK VINA RESULT:      -8.9      0.000      0.000
REMARK  Name = *****
REMARK                            x       y       z     vdW  Elec       q    Type
REMARK                         _______ _______ _______ _____ _____    ______ ____
ROOT
ATOM      1  C   LIG    1       23.135 -20.599   5.772  0.00  0.00    +0.070 A 
ATOM      2  C   LIG    1       24.331 -20.208   5.227  0.00  0.00    +0.036 A 
ATOM      3  C   LIG    1       24.288 -19.315   4.066  0.00  0.00    +0.012 A 
ATOM      4  C   LIG    1       23.152 -18.657   3.540  0.00  0.00    +0.001 A 
ATOM      5  C   LIG    1       21.974 -18.876   4.136  0.00  0.00    +0.001 A 
ATOM      6  C   LIG    1       22.030 -19.834   5.142  0.00  0.00    +0.015 A 
ENDROOT
BRANCH   1   7
ATOM      7  C   LIG    1       23.077 -21.825   6.989  0.00  0.00    +0.340 C 
ATOM      8  O   LIG    1       23.146 -21.609   8.116  0.00  0.00    -0.245 OA
BRANCH   7   9
ATOM      9  O   LIG    1       22.430 -23.048   6.762  0.00  0.00    -0.461 OA
BRANCH   9  10
ATOM     10  C   LIG    1       23.377 -24.288   6.536  0.00  0.00    +0.232 C 
BRANCH  10  11
ATOM     11  C   LIG    1       24.966 -24.327   6.874  0.00  0.00    +0.041 C 
BRANCH  11  12
ATOM     12  C   LIG    1       25.982 -25.441   6.387  0.00  0.00    +0.003 C 
BRANCH  12  13
ATOM     13  C   LIG    1       25.724 -26.222   5.094  0.00  0.00    -0.000 C 
BRANCH  13  15
ATOM     14  C   LIG    1       24.434 -27.971   6.206  0.00  0.00    +0.004 C 
ATOM     15  C   LIG    1       25.569 -27.733   5.311  0.00  0.00    -0.003 C 
ENDBRANCH  13  15
ENDBRANCH  12  13
ENDBRANCH  11  12
ENDBRANCH  10  11
ENDBRANCH   9  10
ENDBRANCH   7   9
ENDBRANCH   1   7
BRANCH   2  16
ATOM     16  C   LIG    1       25.637 -20.824   5.516  0.00  0.00    +0.197 C 
ATOM     17  O   LIG    1       25.767 -21.927   4.966  0.00  0.00    -0.286 OA
BRANCH  16  18
ATOM     18  C   LIG    1       26.742 -20.384   6.434  0.00  0.00    +0.064 A 
ATOM     19  C   LIG    1       26.905 -20.429   7.808  0.00  0.00    +0.129 A 
ATOM     20  C   LIG    1       28.180 -20.462   8.424  0.00  0.00    +0.069 A 
ATOM     21  C   LIG    1       29.294 -19.963   7.773  0.00  0.00    +0.033 A 
ATOM     22  C   LIG    1       29.012 -19.520   6.480  0.00  0.00    +0.024 A 
ATOM     23  C   LIG    1       27.811 -19.787   5.803  0.00  0.00    +0.017 A 
BRANCH  19  24
ATOM     24  O   LIG    1       25.840 -20.397   8.682  0.00  0.00    -0.506 OA
ATOM     25  H   LIG    1       25.287 -21.159   8.348  0.00  0.00    +0.292 HD
ENDBRANCH  19  24
BRANCH  21  26
ATOM     26  N   LIG    1       30.539 -19.875   8.379  0.00  0.00    -0.330 N 
BRANCH  26  27
ATOM     27  C   LIG    1       31.135 -18.548   8.660  0.00  0.00    +0.102 C 
ATOM     28  C   LIG    1       30.223 -17.634   9.474  0.00  0.00    +0.024 C 
ENDBRANCH  26  27
BRANCH  26  29
ATOM     29  C   LIG    1       31.450 -21.028   8.504  0.00  0.00    +0.102 C 
ATOM     30  C   LIG    1       30.998 -22.120   9.458  0.00  0.00    +0.024 C 
ENDBRANCH  26  29
ENDBRANCH  21  26
ENDBRANCH  16  18
ENDBRANCH   2  16
TORSDOF 13
ENDMDL
MODEL 2
REMARK VINA RESULT:      -8.7      2.087      6.952
REMARK  Name = *****
REMARK                            x       y       z     vdW  Elec       q    Type
REMARK                         _______ _______ _______ _____ _____    ______ ____
ROOT
ATOM      1  C   LIG    1       25.251 -19.946   5.222  0.00  0.00    +0.070 A 
ATOM      2  C   LIG    1       24.153 -20.583   5.740  0.00  0.00    +0.036 A 
ATOM      3  C   LIG    1       22.832 -20.086   5.346  0.00  0.00    +0.012 A 
ATOM      4  C   LIG    1       22.547 -19.128   4.345  0.00  0.00    +0.001 A 
ATOM      5  C   LIG    1       23.580 -18.587   3.689  0.00  0.00    +0.001 A 
ATOM      6  C   LIG    1       24.818 -18.977   4.184  0.00  0.00    +0.015 A 
ENDROOT
BRANCH   1   7
ATOM      7  C   LIG    1       26.838 -20.309   5.804  0.00  0.00    +0.340 C 
ATOM      8  O   LIG    1       27.793 -20.181   5.177  0.00  0.00    -0.245 OA
BRANCH   7   9
ATOM      9  O   LIG    1       27.140 -20.265   7.172  0.00  0.00    -0.461 OA
BRANCH   9  10
ATOM     10  C   LIG    1       28.201 -21.319   7.670  0.00  0.00    +0.232 C 
BRANCH  10  11
ATOM     11  C   LIG    1       29.769 -21.005   7.960  0.00  0.00    +0.041 C 
BRANCH  11  12
ATOM     12  C   LIG    1       30.537 -19.688   7.531  0.00  0.00    +0.003 C 
BRANCH  12  13
ATOM     13  C   LIG    1       30.065 -18.314   8.021  0.00  0.00    -0.000 C 
BRANCH  13  15
ATOM     14  C   LIG    1       30.343 -17.361  10.252  0.00  0.00    +0.004 C 
ATOM     15  C   LIG    1       31.042 -17.644   8.996  0.00  0.00    -0.003 C 
ENDBRANCH  13  15
ENDBRANCH  12  13
ENDBRANCH  11  12
ENDBRANCH  10  11
ENDBRANCH   9  10
ENDBRANCH   7   9
ENDBRANCH   1   7
BRANCH   2  16
ATOM     16  C   LIG    1       24.173 -21.527   6.870  0.00  0.00    +0.197 C 
ATOM     17  O   LIG    1       24.193 -20.947   7.965  0.00  0.00    -0.286 OA
BRANCH  16  18
ATOM     18  C   LIG    1       24.285 -23.026   6.889  0.00  0.00    +0.064 A 
ATOM     19  C   LIG    1       23.385 -24.045   6.628  0.00  0.00    +0.129 A 
ATOM     20  C   LIG    1       23.794 -25.328   6.189  0.00  0.00    +0.069 A 
ATOM     21  C   LIG    1       25.066 -25.798   6.462  0.00  0.00    +0.033 A 
ATOM     22  C   LIG    1       25.859 -24.860   7.124  0.00  0.00    +0.024 A 
ATOM     23  C   LIG    1       25.520 -23.505   7.265  0.00  0.00    +0.017 A 
BRANCH  19  24
ATOM     24  O   LIG    1       22.028 -23.904   6.822  0.00  0.00    -0.506 OA
ATOM     25  H   LIG    1       21.693 -23.909   5.881  0.00  0.00    +0.292 HD
ENDBRANCH  19  24
BRANCH  21  26
ATOM     26  N   LIG    1       25.472 -27.087   6.148  0.00  0.00    -0.330 N 
BRANCH  26  27
ATOM     27  C   LIG    1       26.030 -27.384   4.808  0.00  0.00    +0.102 C 
ATOM     28  C   LIG    1       27.551 -27.275   4.747  0.00  0.00    +0.024 C 
ENDBRANCH  26  27
BRANCH  26  29
ATOM     29  C   LIG    1       25.117 -28.260   6.969  0.00  0.00    +0.102 C 
ATOM     30  C   LIG    1       24.235 -29.293   6.289  0.00  0.00    +0.024 C 
ENDBRANCH  26  29
ENDBRANCH  21  26
ENDBRANCH  16  18
ENDBRANCH   2  16
TORSDOF 13
ENDMDL
MODEL 3
REMARK VINA RESULT:      -8.1      2.539      7.718
REMARK  Name = *****
REMARK                            x       y       z     vdW  Elec       q    Type
REMARK                         _______ _______ _______ _____ _____    ______ ____
ROOT
ATOM      1  C   LIG    1       26.472 -20.165   5.536  0.00  0.00    +0.070 A 
ATOM      2  C   LIG    1       26.254 -20.641   6.803  0.00  0.00    +0.036 A 
ATOM      3  C   LIG    1       27.380 -20.622   7.739  0.00  0.00    +0.012 A 
ATOM      4  C   LIG    1       28.636 -20.001   7.548  0.00  0.00    +0.001 A 
ATOM      5  C   LIG    1       28.850 -19.377   6.383  0.00  0.00    +0.001 A 
ATOM      6  C   LIG    1       27.815 -19.536   5.470  0.00  0.00    +0.015 A 
ENDROOT
BRANCH   1   7
ATOM      7  C   LIG    1       25.279 -20.359   4.302  0.00  0.00    +0.340 C 
ATOM      8  O   LIG    1       24.777 -21.362   4.050  0.00  0.00    -0.245 OA
BRANCH   7   9
ATOM      9  O   LIG    1       24.465 -19.289   3.901  0.00  0.00    -0.461 OA
BRANCH   9  10
ATOM     10  C   LIG    1       23.030 -19.243   4.552  0.00  0.00    +0.232 C 
BRANCH  10  11
ATOM     11  C   LIG    1       21.999 -17.991   4.458  0.00  0.00    +0.041 C 
BRANCH  11  12
ATOM     12  C   LIG    1       22.359 -16.479   4.762  0.00  0.00    +0.003 C 
BRANCH  12  13
ATOM     13  C   LIG    1       23.669 -15.870   4.250  0.00  0.00    -0.000 C 
BRANCH  13  15
ATOM     14  C   LIG    1       24.921 -13.857   3.668  0.00  0.00    +0.004 C 
ATOM     15  C   LIG    1       23.698 -14.338   4.314  0.00  0.00    -0.003 C 
ENDBRANCH  13  15
ENDBRANCH  12  13
ENDBRANCH  11  12
ENDBRANCH  10  11
ENDBRANCH   9  10
ENDBRANCH   7   9
ENDBRANCH   1   7
BRANCH   2  16
ATOM     16  C   LIG    1       25.082 -21.430   7.224  0.00  0.00    +0.197 C 
ATOM     17  O   LIG    1       24.276 -20.757   7.881  0.00  0.00    -0.286 OA
BRANCH  16  18
ATOM     18  C   LIG    1       24.790 -22.897   7.079  0.00  0.00    +0.064 A 
ATOM     19  C   LIG    1       23.649 -23.606   6.745  0.00  0.00    +0.129 A 
ATOM     20  C   LIG    1       23.697 -24.894   6.157  0.00  0.00    +0.069 A 
ATOM     21  C   LIG    1       24.799 -25.711   6.332  0.00  0.00    +0.033 A 
ATOM     22  C   LIG    1       25.819 -25.097   7.061  0.00  0.00    +0.024 A 
ATOM     23  C   LIG    1       25.855 -23.726   7.357  0.00  0.00    +0.017 A 
BRANCH  19  24
ATOM     24  O   LIG    1       22.381 -23.133   7.002  0.00  0.00    -0.506 OA
ATOM     25  H   LIG    1       21.957 -23.202   6.100  0.00  0.00    +0.292 HD
ENDBRANCH  19  24
BRANCH  21  26
ATOM     26  N   LIG    1       24.843 -27.018   5.868  0.00  0.00    -0.330 N 
BRANCH  26  27
ATOM     27  C   LIG    1       24.420 -28.133   6.747  0.00  0.00    +0.102 C 
ATOM     28  C   LIG    1       24.131 -29.426   5.990  0.00  0.00    +0.024 C 
ENDBRANCH  26  27
BRANCH  26  29
ATOM     29  C   LIG    1       25.564 -27.406   4.641  0.00  0.00    +0.102 C 
ATOM     30  C   LIG    1       27.079 -27.407   4.743  0.00  0.00    +0.024 C 
ENDBRANCH  26  29
ENDBRANCH  21  26
ENDBRANCH  16  18
ENDBRANCH   2  16
TORSDOF 13
ENDMDL
MODEL 4
REMARK VINA RESULT:      -7.7      3.266      7.645
REMARK  Name = *****
REMARK                            x       y       z     vdW  Elec       q    Type
REMARK                         _______ _______ _______ _____ _____    ______ ____
ROOT
ATOM      1  C   LIG    1       24.301 -22.571   7.141  0.00  0.00    +0.070 A 
ATOM      2  C   LIG    1       25.375 -23.330   6.753  0.00  0.00    +0.036 A 
ATOM      3  C   LIG    1       26.711 -22.851   7.116  0.00  0.00    +0.012 A 
ATOM      4  C   LIG    1       27.025 -21.778   7.982  0.00  0.00    +0.001 A 
ATOM      5  C   LIG    1       26.008 -21.098   8.523  0.00  0.00    +0.001 A 
ATOM      6  C   LIG    1       24.762 -21.489   8.048  0.00  0.00    +0.015 A 
ENDROOT
BRANCH   1   7
ATOM      7  C   LIG    1       22.712 -22.929   6.565  0.00  0.00    +0.340 C 
ATOM      8  O   LIG    1       22.128 -23.878   6.850  0.00  0.00    -0.245 OA
BRANCH   7   9
ATOM      9  O   LIG    1       21.831 -21.910   6.175  0.00  0.00    -0.461 OA
BRANCH   9  10
ATOM     10  C   LIG    1       22.284 -21.058   4.928  0.00  0.00    +0.232 C 
BRANCH  10  11
ATOM     11  C   LIG    1       22.770 -19.508   4.980  0.00  0.00    +0.041 C 
BRANCH  11  12
ATOM     12  C   LIG    1       23.578 -18.760   3.842  0.00  0.00    +0.003 C 
BRANCH  12  13
ATOM     13  C   LIG    1       25.035 -19.132   3.545  0.00  0.00    -0.000 C 
BRANCH  13  15
ATOM     14  C   LIG    1       26.780 -19.766   5.131  0.00  0.00    +0.004 C 
ATOM     15  C   LIG    1       25.578 -20.248   4.447  0.00  0.00    -0.003 C 
ENDBRANCH  13  15
ENDBRANCH  12  13
ENDBRANCH  11  12
ENDBRANCH  10  11
ENDBRANCH   9  10
ENDBRANCH   7   9
ENDBRANCH   1   7
BRANCH   2  16
ATOM     16  C   LIG    1       25.330 -24.421   5.765  0.00  0.00    +0.197 C 
ATOM     17  O   LIG    1       25.116 -24.006   4.617  0.00  0.00    -0.286 OA
BRANCH  16  18
ATOM     18  C   LIG    1       25.388 -25.911   5.953  0.00  0.00    +0.064 A 
ATOM     19  C   LIG    1       26.422 -26.792   6.218  0.00  0.00    +0.129 A 
ATOM     20  C   LIG    1       26.218 -28.034   6.868  0.00  0.00    +0.069 A 
ATOM     21  C   LIG    1       24.984 -28.658   6.830  0.00  0.00    +0.033 A 
ATOM     22  C   LIG    1       24.015 -27.904   6.165  0.00  0.00    +0.024 A 
ATOM     23  C   LIG    1       24.179 -26.556   5.809  0.00  0.00    +0.017 A 
BRANCH  19  24
ATOM     24  O   LIG    1       27.721 -26.549   5.828  0.00  0.00    -0.506 OA
ATOM     25  H   LIG    1       28.162 -27.415   6.062  0.00  0.00    +0.292 HD
ENDBRANCH  19  24
BRANCH  21  26
ATOM     26  N   LIG    1       24.768 -29.923   7.357  0.00  0.00    -0.330 N 
BRANCH  26  27
ATOM     27  C   LIG    1       24.911 -30.155   8.813  0.00  0.00    +0.102 C 
ATOM     28  C   LIG    1       23.581 -30.144   9.563  0.00  0.00    +0.024 C 
ENDBRANCH  26  27
BRANCH  26  29
ATOM     29  C   LIG    1       24.683 -31.134   6.520  0.00  0.00    +0.102 C 
ATOM     30  C   LIG    1       25.992 -31.601   5.907  0.00  0.00    +0.024 C 
ENDBRANCH  26  29
ENDBRANCH  21  26
ENDBRANCH  16  18
ENDBRANCH   2  16
TORSDOF 13
ENDMDL
MODEL 5
REMARK VINA RESULT:      -7.7      1.443      2.679
REMARK  Name = *****
REMARK                            x       y       z     vdW  Elec       q    Type
REMARK                         _______ _______ _______ _____ _____    ______ ____
ROOT
ATOM      1  C   LIG    1       23.094 -21.950   5.885  0.00  0.00    +0.070 A 
ATOM      2  C   LIG    1       23.596 -20.814   6.464  0.00  0.00    +0.036 A 
ATOM      3  C   LIG    1       23.235 -19.528   5.861  0.00  0.00    +0.012 A 
ATOM      4  C   LIG    1       22.275 -19.303   4.847  0.00  0.00    +0.001 A 
ATOM      5  C   LIG    1       21.631 -20.367   4.353  0.00  0.00    +0.001 A 
ATOM      6  C   LIG    1       22.099 -21.579   4.847  0.00  0.00    +0.015 A 
ENDROOT
BRANCH   1   7
ATOM      7  C   LIG    1       23.645 -23.512   6.380  0.00  0.00    +0.340 C 
ATOM      8  O   LIG    1       22.952 -24.337   6.779  0.00  0.00    -0.245 OA
BRANCH   7   9
ATOM      9  O   LIG    1       24.820 -24.069   5.856  0.00  0.00    -0.461 OA
BRANCH   9  10
ATOM     10  C   LIG    1       25.582 -25.071   6.806  0.00  0.00    +0.232 C 
BRANCH  10  11
ATOM     11  C   LIG    1       26.134 -26.536   6.372  0.00  0.00    +0.041 C 
BRANCH  11  12
ATOM     12  C   LIG    1       25.339 -27.898   6.517  0.00  0.00    +0.003 C 
BRANCH  12  13
ATOM     13  C   LIG    1       25.382 -28.691   7.828  0.00  0.00    -0.000 C 
BRANCH  13  15
ATOM     14  C   LIG    1       24.688 -30.971   7.294  0.00  0.00    +0.004 C 
ATOM     15  C   LIG    1       24.261 -29.733   7.950  0.00  0.00    -0.003 C 
ENDBRANCH  13  15
ENDBRANCH  12  13
ENDBRANCH  11  12
ENDBRANCH  10  11
ENDBRANCH   9  10
ENDBRANCH   7   9
ENDBRANCH   1   7
BRANCH   2  16
ATOM     16  C   LIG    1       24.688 -20.775   7.452  0.00  0.00    +0.197 C 
ATOM     17  O   LIG    1       24.270 -20.601   8.606  0.00  0.00    -0.286 OA
BRANCH  16  18
ATOM     18  C   LIG    1       26.178 -20.799   7.262  0.00  0.00    +0.064 A 
ATOM     19  C   LIG    1       27.016 -20.281   6.289  0.00  0.00    +0.129 A 
ATOM     20  C   LIG    1       28.369 -19.951   6.545  0.00  0.00    +0.069 A 
ATOM     21  C   LIG    1       29.063 -20.560   7.576  0.00  0.00    +0.033 A 
ATOM     22  C   LIG    1       28.269 -21.432   8.322  0.00  0.00    +0.024 A 
ATOM     23  C   LIG    1       26.870 -21.496   8.228  0.00  0.00    +0.017 A 
BRANCH  19  24
ATOM     24  O   LIG    1       26.611 -20.093   4.985  0.00  0.00    -0.506 OA
ATOM     25  H   LIG    1       27.464 -20.249   4.489  0.00  0.00    +0.292 HD
ENDBRANCH  19  24
BRANCH  21  26
ATOM     26  N   LIG    1       30.417 -20.349   7.795  0.00  0.00    -0.330 N 
BRANCH  26  27
ATOM     27  C   LIG    1       31.084 -20.964   8.965  0.00  0.00    +0.102 C 
ATOM     28  C   LIG    1       31.555 -22.394   8.713  0.00  0.00    +0.024 C 
ENDBRANCH  26  27
BRANCH  26  29
ATOM     29  C   LIG    1       31.188 -19.306   7.091  0.00  0.00    +0.102 C 
ATOM     30  C   LIG    1       31.865 -18.279   7.981  0.00  0.00    +0.024 C 
ENDBRANCH  26  29
ENDBRANCH  21  26
ENDBRANCH  16  18
ENDBRANCH   2  16
TORSDOF 13
ENDMDL
MODEL 6
REMARK VINA RESULT:      -7.7      2.519      7.463
REMARK  Name = *****
REMARK                            x       y       z     vdW  Elec       q    Type
REMARK                         _______ _______ _______ _____ _____    ______ ____
ROOT
ATOM      1  C   LIG    1       25.449 -20.851   5.945  0.00  0.00    +0.070 A 
ATOM      2  C   LIG    1       24.647 -21.828   5.414  0.00  0.00    +0.036 A 
ATOM      3  C   LIG    1       23.967 -21.535   4.150  0.00  0.00    +0.012 A 
ATOM      4  C   LIG    1       24.177 -20.418   3.309  0.00  0.00    +0.001 A 
ATOM      5  C   LIG    1       25.073 -19.504   3.700  0.00  0.00    +0.001 A 
ATOM      6  C   LIG    1       25.594 -19.744   4.966  0.00  0.00    +0.015 A 
ENDROOT
BRANCH   1   7
ATOM      7  C   LIG    1       26.106 -21.014   7.535  0.00  0.00    +0.340 C 
ATOM      8  O   LIG    1       25.498 -20.852   8.497  0.00  0.00    -0.245 OA
BRANCH   7   9
ATOM      9  O   LIG    1       27.209 -21.842   7.787  0.00  0.00    -0.461 OA
BRANCH   9  10
ATOM     10  C   LIG    1       28.622 -21.152   7.664  0.00  0.00    +0.232 C 
BRANCH  10  11
ATOM     11  C   LIG    1       28.931 -19.796   6.824  0.00  0.00    +0.041 C 
BRANCH  11  12
ATOM     12  C   LIG    1       30.353 -19.115   6.669  0.00  0.00    +0.003 C 
BRANCH  12  13
ATOM     13  C   LIG    1       31.310 -19.027   7.863  0.00  0.00    -0.000 C 
BRANCH  13  15
ATOM     14  C   LIG    1       30.397 -17.229   9.239  0.00  0.00    +0.004 C 
ATOM     15  C   LIG    1       30.612 -18.677   9.183  0.00  0.00    -0.003 C 
ENDBRANCH  13  15
ENDBRANCH  12  13
ENDBRANCH  11  12
ENDBRANCH  10  11
ENDBRANCH   9  10
ENDBRANCH   7   9
ENDBRANCH   1   7
BRANCH   2  16
ATOM     16  C   LIG    1       24.181 -23.027   6.132  0.00  0.00    +0.197 C 
ATOM     17  O   LIG    1       23.289 -22.764   6.951  0.00  0.00    -0.286 OA
BRANCH  16  18
ATOM     18  C   LIG    1       24.687 -24.441   6.102  0.00  0.00    +0.064 A 
ATOM     19  C   LIG    1       25.890 -25.023   6.465  0.00  0.00    +0.129 A 
ATOM     20  C   LIG    1       25.992 -26.381   6.856  0.00  0.00    +0.069 A 
ATOM     21  C   LIG    1       25.055 -27.310   6.440  0.00  0.00    +0.033 A 
ATOM     22  C   LIG    1       24.024 -26.741   5.691  0.00  0.00    +0.024 A 
ATOM     23  C   LIG    1       23.798 -25.360   5.588  0.00  0.00    +0.017 A 
BRANCH  19  24
ATOM     24  O   LIG    1       27.086 -24.340   6.426  0.00  0.00    -0.506 OA
ATOM     25  H   LIG    1       26.845 -23.552   5.862  0.00  0.00    +0.292 HD
ENDBRANCH  19  24
BRANCH  21  26
ATOM     26  N   LIG    1       25.175 -28.666   6.708  0.00  0.00    -0.330 N 
BRANCH  26  27
ATOM     27  C   LIG    1       24.685 -29.662   5.727  0.00  0.00    +0.102 C 
ATOM     28  C   LIG    1       25.642 -30.833   5.523  0.00  0.00    +0.024 C 
ENDBRANCH  26  27
BRANCH  26  29
ATOM     29  C   LIG    1       25.501 -29.191   8.047  0.00  0.00    +0.102 C 
ATOM     30  C   LIG    1       24.353 -29.851   8.790  0.00  0.00    +0.024 C 
ENDBRANCH  26  29
ENDBRANCH  21  26
ENDBRANCH  16  18
ENDBRANCH   2  16
TORSDOF 13
ENDMDL
MODEL 7
REMARK VINA RESULT:      -7.3      2.571      7.557
REMARK  Name = *****
REMARK                            x       y       z     vdW  Elec       q    Type
REMARK                         _______ _______ _______ _____ _____    ______ ____
ROOT
ATOM      1  C   LIG    1       24.617 -20.963   7.174  0.00  0.00    +0.070 A 
ATOM      2  C   LIG    1       24.741 -21.987   6.269  0.00  0.00    +0.036 A 
ATOM      3  C   LIG    1       23.755 -22.060   5.189  0.00  0.00    +0.012 A 
ATOM      4  C   LIG    1       22.782 -21.089   4.857  0.00  0.00    +0.001 A 
ATOM      5  C   LIG    1       22.721 -19.986   5.612  0.00  0.00    +0.001 A 
ATOM      6  C   LIG    1       23.574 -20.015   6.708  0.00  0.00    +0.015 A 
ENDROOT
BRANCH   1   7
ATOM      7  C   LIG    1       25.586 -20.927   8.605  0.00  0.00    +0.340 C 
ATOM      8  O   LIG    1       25.660 -21.801   9.348  0.00  0.00    -0.245 OA
BRANCH   7   9
ATOM      9  O   LIG    1       26.720 -20.108   8.696  0.00  0.00    -0.461 OA
BRANCH   9  10
ATOM     10  C   LIG    1       27.979 -20.593   7.880  0.00  0.00    +0.232 C 
BRANCH  10  11
ATOM     11  C   LIG    1       28.977 -19.627   7.037  0.00  0.00    +0.041 C 
BRANCH  11  12
ATOM     12  C   LIG    1       30.552 -19.575   7.190  0.00  0.00    +0.003 C 
BRANCH  12  13
ATOM     13  C   LIG    1       31.209 -18.605   8.179  0.00  0.00    -0.000 C 
BRANCH  13  15
ATOM     14  C   LIG    1       30.552 -17.769  10.376  0.00  0.00    +0.004 C 
ATOM     15  C   LIG    1       30.202 -17.746   8.954  0.00  0.00    -0.003 C 
ENDBRANCH  13  15
ENDBRANCH  12  13
ENDBRANCH  11  12
ENDBRANCH  10  11
ENDBRANCH   9  10
ENDBRANCH   7   9
ENDBRANCH   1   7
BRANCH   2  16
ATOM     16  C   LIG    1       25.591 -23.177   6.445  0.00  0.00    +0.197 C 
ATOM     17  O   LIG    1       26.796 -22.912   6.332  0.00  0.00    -0.286 OA
BRANCH  16  18
ATOM     18  C   LIG    1       25.223 -24.623   6.617  0.00  0.00    +0.064 A 
ATOM     19  C   LIG    1       24.061 -25.338   6.382  0.00  0.00    +0.129 A 
ATOM     20  C   LIG    1       24.063 -26.727   6.104  0.00  0.00    +0.069 A 
ATOM     21  C   LIG    1       25.106 -27.531   6.526  0.00  0.00    +0.033 A 
ATOM     22  C   LIG    1       26.122 -26.813   7.159  0.00  0.00    +0.024 A 
ATOM     23  C   LIG    1       26.223 -25.413   7.140  0.00  0.00    +0.017 A 
BRANCH  19  24
ATOM     24  O   LIG    1       22.810 -24.763   6.448  0.00  0.00    -0.506 OA
ATOM     25  H   LIG    1       22.718 -24.603   7.429  0.00  0.00    +0.292 HD
ENDBRANCH  19  24
BRANCH  21  26
ATOM     26  N   LIG    1       25.099 -28.910   6.372  0.00  0.00    -0.330 N 
BRANCH  26  27
ATOM     27  C   LIG    1       25.295 -29.789   7.548  0.00  0.00    +0.102 C 
ATOM     28  C   LIG    1       24.054 -29.910   8.429  0.00  0.00    +0.024 C 
ENDBRANCH  26  27
BRANCH  26  29
ATOM     29  C   LIG    1       25.196 -29.568   5.056  0.00  0.00    +0.102 C 
ATOM     30  C   LIG    1       25.649 -31.018   5.079  0.00  0.00    +0.024 C 
ENDBRANCH  26  29
ENDBRANCH  21  26
ENDBRANCH  16  18
ENDBRANCH   2  16
TORSDOF 13
ENDMDL
MODEL 8
REMARK VINA RESULT:      -7.2      5.220      9.355
REMARK  Name = *****
REMARK                            x       y       z     vdW  Elec       q    Type
REMARK                         _______ _______ _______ _____ _____    ______ ____
ROOT
ATOM      1  C   LIG    1       25.102 -29.815   6.507  0.00  0.00    +0.070 A 
ATOM      2  C   LIG    1       24.861 -30.617   7.593  0.00  0.00    +0.036 A 
ATOM      3  C   LIG    1       24.761 -32.060   7.362  0.00  0.00    +0.012 A 
ATOM      4  C   LIG    1       25.063 -32.754   6.167  0.00  0.00    +0.001 A 
ATOM      5  C   LIG    1       25.462 -32.033   5.113  0.00  0.00    +0.001 A 
ATOM      6  C   LIG    1       25.410 -30.661   5.326  0.00  0.00    +0.015 A 
ENDROOT
BRANCH   1   7
ATOM      7  C   LIG    1       25.007 -28.095   6.641  0.00  0.00    +0.340 C 
ATOM      8  O   LIG    1       25.870 -27.435   7.017  0.00  0.00    -0.245 OA
BRANCH   7   9
ATOM      9  O   LIG    1       24.133 -27.348   5.838  0.00  0.00    -0.461 OA
BRANCH   9  10
ATOM     10  C   LIG    1       24.446 -25.806   5.741  0.00  0.00    +0.232 C 
BRANCH  10  11
ATOM     11  C   LIG    1       23.638 -24.635   6.527  0.00  0.00    +0.041 C 
BRANCH  11  12
ATOM     12  C   LIG    1       24.116 -23.133   6.682  0.00  0.00    +0.003 C 
BRANCH  12  13
ATOM     13  C   LIG    1       23.205 -22.087   7.334  0.00  0.00    -0.000 C 
BRANCH  13  15
ATOM     14  C   LIG    1       22.893 -20.232   5.777  0.00  0.00    +0.004 C 
ATOM     15  C   LIG    1       23.594 -20.642   6.997  0.00  0.00    -0.003 C 
ENDBRANCH  13  15
ENDBRANCH  12  13
ENDBRANCH  11  12
ENDBRANCH  10  11
ENDBRANCH   9  10
ENDBRANCH   7   9
ENDBRANCH   1   7
BRANCH   2  16
ATOM     16  C   LIG    1       24.409 -30.145   8.913  0.00  0.00    +0.197 C 
ATOM     17  O   LIG    1       23.176 -30.186   9.029  0.00  0.00    -0.286 OA
BRANCH  16  18
ATOM     18  C   LIG    1       25.182 -29.537  10.049  0.00  0.00    +0.064 A 
ATOM     19  C   LIG    1       26.375 -28.838  10.114  0.00  0.00    +0.129 A 
ATOM     20  C   LIG    1       26.663 -27.916  11.151  0.00  0.00    +0.069 A 
ATOM     21  C   LIG    1       26.037 -28.016  12.381  0.00  0.00    +0.033 A 
ATOM     22  C   LIG    1       25.091 -29.041  12.425  0.00  0.00    +0.024 A 
ATOM     23  C   LIG    1       24.620 -29.725  11.293  0.00  0.00    +0.017 A 
BRANCH  19  24
ATOM     24  O   LIG    1       27.393 -29.021   9.203  0.00  0.00    -0.506 OA
ATOM     25  H   LIG    1       26.986 -29.692   8.585  0.00  0.00    +0.292 HD
ENDBRANCH  19  24
BRANCH  21  26
ATOM     26  N   LIG    1       26.367 -27.205  13.457  0.00  0.00    -0.330 N 
BRANCH  26  27
ATOM     27  C   LIG    1       26.071 -25.755  13.413  0.00  0.00    +0.102 C 
ATOM     28  C   LIG    1       24.632 -25.417  13.794  0.00  0.00    +0.024 C 
ENDBRANCH  26  27
BRANCH  26  29
ATOM     29  C   LIG    1       27.264 -27.644  14.543  0.00  0.00    +0.102 C 
ATOM     30  C   LIG    1       28.228 -28.762  14.185  0.00  0.00    +0.024 C 
ENDBRANCH  26  29
ENDBRANCH  21  26
ENDBRANCH  16  18
ENDBRANCH   2  16
TORSDOF 13
ENDMDL
MODEL 9
REMARK VINA RESULT:      -7.2      2.204      6.880
REMARK  Name = *****
REMARK                            x       y       z     vdW  Elec       q    Type
REMARK                         _______ _______ _______ _____ _____    ______ ____
ROOT
ATOM      1  C   LIG    1       24.612 -20.138   5.527  0.00  0.00    +0.070 A 
ATOM      2  C   LIG    1       23.668 -21.103   5.770  0.00  0.00    +0.036 A 
ATOM      3  C   LIG    1       22.311 -20.865   5.273  0.00  0.00    +0.012 A 
ATOM      4  C   LIG    1       21.890 -19.828   4.409  0.00  0.00    +0.001 A 
ATOM      5  C   LIG    1       22.809 -18.943   4.005  0.00  0.00    +0.001 A 
ATOM      6  C   LIG    1       24.050 -19.118   4.606  0.00  0.00    +0.015 A 
ENDROOT
BRANCH   1   7
ATOM      7  C   LIG    1       26.171 -20.221   6.267  0.00  0.00    +0.340 C 
ATOM      8  O   LIG    1       26.346 -20.552   7.354  0.00  0.00    -0.245 OA
BRANCH   7   9
ATOM      9  O   LIG    1       27.331 -20.417   5.503  0.00  0.00    -0.461 OA
BRANCH   9  10
ATOM     10  C   LIG    1       28.324 -19.193   5.447  0.00  0.00    +0.232 C 
BRANCH  10  11
ATOM     11  C   LIG    1       29.797 -19.151   6.130  0.00  0.00    +0.041 C 
BRANCH  11  12
ATOM     12  C   LIG    1       30.143 -18.497   7.531  0.00  0.00    +0.003 C 
BRANCH  12  13
ATOM     13  C   LIG    1       30.283 -19.366   8.785  0.00  0.00    -0.000 C 
BRANCH  13  15
ATOM     14  C   LIG    1       30.988 -21.682   9.095  0.00  0.00    +0.004 C 
ATOM     15  C   LIG    1       31.460 -20.347   8.721  0.00  0.00    -0.003 C 
ENDBRANCH  13  15
ENDBRANCH  12  13
ENDBRANCH  11  12
ENDBRANCH  10  11
ENDBRANCH   9  10
ENDBRANCH   7   9
ENDBRANCH   1   7
BRANCH   2  16
ATOM     16  C   LIG    1       23.817 -22.215   6.725  0.00  0.00    +0.197 C 
ATOM     17  O   LIG    1       23.421 -21.914   7.860  0.00  0.00    -0.286 OA
BRANCH  16  18
ATOM     18  C   LIG    1       24.459 -23.563   6.560  0.00  0.00    +0.064 A 
ATOM     19  C   LIG    1       25.743 -24.032   6.778  0.00  0.00    +0.129 A 
ATOM     20  C   LIG    1       26.019 -25.391   7.071  0.00  0.00    +0.069 A 
ATOM     21  C   LIG    1       25.146 -26.390   6.681  0.00  0.00    +0.033 A 
ATOM     22  C   LIG    1       23.996 -25.895   6.063  0.00  0.00    +0.024 A 
ATOM     23  C   LIG    1       23.623 -24.542   6.069  0.00  0.00    +0.017 A 
BRANCH  19  24
ATOM     24  O   LIG    1       26.855 -23.224   6.677  0.00  0.00    -0.506 OA
ATOM     25  H   LIG    1       27.562 -23.890   6.444  0.00  0.00    +0.292 HD
ENDBRANCH  19  24
BRANCH  21  26
ATOM     26  N   LIG    1       25.427 -27.739   6.850  0.00  0.00    -0.330 N 
BRANCH  26  27
ATOM     27  C   LIG    1       26.136 -28.203   8.065  0.00  0.00    +0.102 C 
ATOM     28  C   LIG    1       25.433 -29.359   8.772  0.00  0.00    +0.024 C 
ENDBRANCH  26  27
BRANCH  26  29
ATOM     29  C   LIG    1       25.322 -28.720   5.754  0.00  0.00    +0.102 C 
ATOM     30  C   LIG    1       23.979 -29.418   5.625  0.00  0.00    +0.024 C 
ENDBRANCH  26  29
ENDBRANCH  21  26
ENDBRANCH  16  18
ENDBRANCH   2  16
TORSDOF 13
ENDMDL
