MODEL 1
REMARK VINA RESULT:      -5.2      0.000      0.000
REMARK  Name = *****
REMARK                            x       y       z     vdW  Elec       q    Type
REMARK                         _______ _______ _______ _____ _____    ______ ____
ROOT
ATOM      1  C   LIG    1       25.607 -31.770   7.876  0.00  0.00    +0.230 C 
ATOM      2  C   LIG    1       24.505 -32.016   8.990  0.00  0.00    +0.014 C 
ATOM      3  C   LIG    1       23.111 -32.136   8.339  0.00  0.00    +0.015 C 
ATOM      4  C   LIG    1       24.683 -30.794   9.935  0.00  0.00    +0.007 C 
ATOM      5  C   LIG    1       24.586 -31.009  11.461  0.00  0.00    -0.003 C 
ATOM      6  C   LIG    1       23.468 -31.977  11.860  0.00  0.00    -0.001 C 
ATOM      7  C   LIG    1       23.677 -33.319  11.078  0.00  0.00    +0.005 C 
ATOM      8  C   LIG    1       21.977 -31.341  12.054  0.00  0.00    -0.021 C 
ATOM      9  C   LIG    1       21.030 -31.687  10.881  0.00  0.00    +0.012 C 
ATOM     10  C   LIG    1       21.942 -29.759  12.173  0.00  0.00    -0.001 C 
ATOM     11  C   LIG    1       21.403 -29.251  13.511  0.00  0.00    +0.054 C 
ATOM     12  C   LIG    1       20.015 -29.829  13.749  0.00  0.00    +0.225 C 
ATOM     13  C   LIG    1       20.166 -31.325  14.129  0.00  0.00    +0.108 C 
ATOM     14  C   LIG    1       23.205 -28.961  11.849  0.00  0.00    +0.004 C 
ATOM     15  C   LIG    1       21.316 -32.037  13.326  0.00  0.00    +0.065 C 
ATOM     16  C   LIG    1       24.466 -29.695  12.231  0.00  0.00    +0.004 C 
ATOM     17  C   LIG    1       26.051 -30.178   9.582  0.00  0.00    +0.062 C 
ATOM     18  C   LIG    1       24.696 -33.267   9.882  0.00  0.00    +0.011 C 
ATOM     19  C   LIG    1       26.194 -30.315   8.075  0.00  0.00    +0.108 C 
ENDROOT
BRANCH  13  20
ATOM     20  N   LIG    1       18.755 -32.135  14.187  0.00  0.00    +0.246 N 
ATOM     21  C   LIG    1       17.885 -31.778  12.955  0.00  0.00    +0.133 C 
ATOM     22  C   LIG    1       16.509 -32.436  12.996  0.00  0.00    +0.051 C 
ATOM     23  C   LIG    1       15.777 -32.101  14.287  0.00  0.00    +0.010 C 
ATOM     24  C   LIG    1       16.600 -32.506  15.500  0.00  0.00    +0.051 C 
ATOM     25  C   LIG    1       17.985 -31.865  15.483  0.00  0.00    +0.133 C 
ATOM     26  C   LIG    1       19.076 -33.649  14.086  0.00  0.00    +0.193 C 
ENDBRANCH  13  20
BRANCH  19  27
ATOM     27  N   LIG    1       25.556 -29.060   7.252  0.00  0.00    +0.246 N 
ATOM     28  C   LIG    1       25.842 -29.250   5.729  0.00  0.00    +0.133 C 
ATOM     29  C   LIG    1       25.342 -28.076   4.881  0.00  0.00    +0.051 C 
ATOM     30  C   LIG    1       25.881 -26.740   5.372  0.00  0.00    +0.010 C 
ATOM     31  C   LIG    1       25.587 -26.539   6.849  0.00  0.00    +0.051 C 
ATOM     32  C   LIG    1       26.102 -27.708   7.672  0.00  0.00    +0.133 C 
ATOM     33  C   LIG    1       24.027 -29.072   7.448  0.00  0.00    +0.193 C 
ENDBRANCH  19  27
BRANCH   1  34
ATOM     34  O   LIG    1       25.211 -31.922   6.511  0.00  0.00    -0.455 OA
BRANCH  34  36
ATOM     35  C   LIG    1       27.110 -33.279   6.378  0.00  0.00    +0.136 C 
ATOM     36  C   LIG    1       25.788 -32.912   5.793  0.00  0.00    +0.304 C 
ATOM     37  O   LIG    1       25.209 -33.524   4.882  0.00  0.00    -0.251 OA
ENDBRANCH  34  36
ENDBRANCH   1  34
BRANCH  12  38
ATOM     38  O   LIG    1       19.350 -29.079  14.787  0.00  0.00    -0.456 OA
BRANCH  38  39
ATOM     39  C   LIG    1       18.360 -28.245  14.334  0.00  0.00    +0.304 C 
ATOM     40  O   LIG    1       17.234 -28.600  14.039  0.00  0.00    -0.251 OA
ATOM     41  C   LIG    1       18.807 -26.816  14.436  0.00  0.00    +0.136 C 
ENDBRANCH  38  39
ENDBRANCH  12  38
TORSDOF 6
ENDMDL
MODEL 2
REMARK VINA RESULT:      -4.1      1.385      9.513
REMARK  Name = *****
REMARK                            x       y       z     vdW  Elec       q    Type
REMARK                         _______ _______ _______ _____ _____    ______ ____
ROOT
ATOM      1  C   LIG    1       20.198 -29.110  15.044  0.00  0.00    +0.230 C 
ATOM      2  C   LIG    1       21.167 -29.148  13.789  0.00  0.00    +0.014 C 
ATOM      3  C   LIG    1       20.427 -28.642  12.532  0.00  0.00    +0.015 C 
ATOM      4  C   LIG    1       21.609 -30.638  13.732  0.00  0.00    +0.007 C 
ATOM      5  C   LIG    1       23.079 -30.969  13.397  0.00  0.00    -0.003 C 
ATOM      6  C   LIG    1       23.655 -30.082  12.288  0.00  0.00    -0.001 C 
ATOM      7  C   LIG    1       23.459 -28.584  12.705  0.00  0.00    +0.005 C 
ATOM      8  C   LIG    1       23.401 -30.566  10.750  0.00  0.00    -0.021 C 
ATOM      9  C   LIG    1       22.323 -29.719  10.034  0.00  0.00    +0.012 C 
ATOM     10  C   LIG    1       22.921 -32.072  10.600  0.00  0.00    -0.001 C 
ATOM     11  C   LIG    1       23.894 -32.956   9.817  0.00  0.00    +0.054 C 
ATOM     12  C   LIG    1       24.141 -32.342   8.446  0.00  0.00    +0.225 C 
ATOM     13  C   LIG    1       25.063 -31.106   8.622  0.00  0.00    +0.108 C 
ATOM     14  C   LIG    1       22.497 -32.844  11.849  0.00  0.00    +0.004 C 
ATOM     15  C   LIG    1       24.740 -30.296   9.930  0.00  0.00    +0.065 C 
ATOM     16  C   LIG    1       23.287 -32.447  13.071  0.00  0.00    +0.004 C 
ATOM     17  C   LIG    1       21.239 -31.244  15.101  0.00  0.00    +0.062 C 
ATOM     18  C   LIG    1       22.474 -28.327  13.904  0.00  0.00    +0.011 C 
ATOM     19  C   LIG    1       19.922 -30.598  15.500  0.00  0.00    +0.108 C 
ENDROOT
BRANCH  13  20
ATOM     20  N   LIG    1       25.227 -30.211   7.272  0.00  0.00    +0.246 N 
ATOM     21  C   LIG    1       25.731 -28.790   7.633  0.00  0.00    +0.133 C 
ATOM     22  C   LIG    1       25.819 -27.872   6.418  0.00  0.00    +0.051 C 
ATOM     23  C   LIG    1       24.488 -27.801   5.684  0.00  0.00    +0.010 C 
ATOM     24  C   LIG    1       24.019 -29.187   5.272  0.00  0.00    +0.051 C 
ATOM     25  C   LIG    1       23.926 -30.131   6.468  0.00  0.00    +0.133 C 
ATOM     26  C   LIG    1       26.329 -30.870   6.400  0.00  0.00    +0.193 C 
ENDBRANCH  13  20
BRANCH  19  27
ATOM     27  N   LIG    1       18.617 -31.395  14.934  0.00  0.00    +0.246 N 
ATOM     28  C   LIG    1       18.653 -31.390  13.373  0.00  0.00    +0.133 C 
ATOM     29  C   LIG    1       17.421 -32.055  12.750  0.00  0.00    +0.051 C 
ATOM     30  C   LIG    1       16.120 -31.456  13.265  0.00  0.00    +0.010 C 
ATOM     31  C   LIG    1       16.070 -31.477  14.783  0.00  0.00    +0.051 C 
ATOM     32  C   LIG    1       17.293 -30.801  15.380  0.00  0.00    +0.133 C 
ATOM     33  C   LIG    1       18.698 -32.862  15.401  0.00  0.00    +0.193 C 
ENDBRANCH  19  27
BRANCH   1  34
ATOM     34  O   LIG    1       18.946 -28.437  14.890  0.00  0.00    -0.455 OA
BRANCH  34  36
ATOM     35  C   LIG    1       17.609 -26.546  14.569  0.00  0.00    +0.136 C 
ATOM     36  C   LIG    1       18.938 -27.088  14.978  0.00  0.00    +0.304 C 
ATOM     37  O   LIG    1       19.859 -26.430  15.486  0.00  0.00    -0.251 OA
ENDBRANCH  34  36
ENDBRANCH   1  34
BRANCH  12  38
ATOM     38  O   LIG    1       24.731 -33.328   7.573  0.00  0.00    -0.456 OA
BRANCH  38  39
ATOM     39  C   LIG    1       24.024 -33.557   6.422  0.00  0.00    +0.304 C 
ATOM     40  O   LIG    1       24.517 -33.676   5.315  0.00  0.00    -0.251 OA
ATOM     41  C   LIG    1       22.584 -33.825   6.748  0.00  0.00    +0.136 C 
ENDBRANCH  38  39
ENDBRANCH  12  38
TORSDOF 6
ENDMDL
