MODEL 1
REMARK VINA RESULT:       8.0      0.000      0.000
REMARK  Name = *****
REMARK                            x       y       z     vdW  Elec       q    Type
REMARK                         _______ _______ _______ _____ _____    ______ ____
ROOT
ATOM      1  C   LIG    1       25.134 -14.201   5.769  0.00  0.00    +0.015 C 
ATOM      2  C   LIG    1       25.325 -14.362   4.252  0.00  0.00    +0.009 C 
ATOM      3  C   LIG    1       26.043 -13.114   3.632  0.00  0.00    +0.132 C 
ATOM      4  C   LIG    1       25.738 -13.230   2.131  0.00  0.00    +0.043 C 
ATOM      5  C   LIG    1       24.398 -13.968   2.037  0.00  0.00    +0.007 C 
ATOM      6  C   LIG    1       23.981 -14.322   3.483  0.00  0.00    +0.002 C 
ATOM      7  C   LIG    1       23.098 -15.587   3.547  0.00  0.00    +0.002 C 
ATOM      8  C   LIG    1       22.160 -15.593   4.782  0.00  0.00    +0.045 C 
ATOM      9  C   LIG    1       22.103 -16.861   5.643  0.00  0.00    +0.193 C 
ATOM     10  F   LIG    1       22.925 -16.646   6.715  0.00  0.00    -0.241 F 
ATOM     11  C   LIG    1       22.496 -18.160   4.998  0.00  0.00    -0.023 C 
ATOM     12  C   LIG    1       22.902 -18.140   3.539  0.00  0.00    +0.016 C 
ATOM     13  C   LIG    1       21.624 -18.039   2.662  0.00  0.00    +0.020 C 
ATOM     14  C   LIG    1       23.551 -19.439   3.096  0.00  0.00    -0.012 C 
ATOM     15  C   LIG    1       23.630 -20.543   3.857  0.00  0.00    +0.047 C 
ATOM     16  C   LIG    1       23.096 -20.555   5.239  0.00  0.00    +0.179 C 
ATOM     17  O   LIG    1       23.088 -21.570   5.914  0.00  0.00    -0.288 OA
ATOM     18  C   LIG    1       22.584 -19.275   5.764  0.00  0.00    +0.053 C 
ATOM     19  C   LIG    1       23.867 -16.911   3.319  0.00  0.00    +0.035 C 
ATOM     20  C   LIG    1       25.181 -16.947   4.151  0.00  0.00    +0.120 C 
ATOM     21  C   LIG    1       26.054 -15.694   3.959  0.00  0.00    +0.042 C 
ENDROOT
BRANCH   3  22
ATOM     22  O   LIG    1       25.385 -11.925   4.089  0.00  0.00    -0.380 OA
ATOM     23  H   LIG    1       24.420 -12.058   4.008  0.00  0.00    +0.211 HD
ENDBRANCH   3  22
BRANCH   3  24
ATOM     24  C   LIG    1       27.562 -13.045   3.909  0.00  0.00    +0.190 C 
ATOM     25  O   LIG    1       28.408 -13.215   3.025  0.00  0.00    -0.292 OA
BRANCH  24  26
ATOM     26  C   LIG    1       27.991 -12.675   5.321  0.00  0.00    +0.233 C 
BRANCH  26  27
ATOM     27  O   LIG    1       29.127 -11.822   5.275  0.00  0.00    -0.387 OA
ATOM     28  H   LIG    1       29.807 -12.238   5.839  0.00  0.00    +0.210 HD
ENDBRANCH  26  27
ENDBRANCH  24  26
ENDBRANCH   3  24
BRANCH  20  29
ATOM     29  O   LIG    1       25.981 -18.071   3.786  0.00  0.00    -0.391 OA
ATOM     30  H   LIG    1       26.151 -18.602   4.582  0.00  0.00    +0.210 HD
ENDBRANCH  20  29
TORSDOF 5
ENDMDL
MODEL 2
REMARK VINA RESULT:       9.2      2.206      6.705
REMARK  Name = *****
REMARK                            x       y       z     vdW  Elec       q    Type
REMARK                         _______ _______ _______ _____ _____    ______ ____
ROOT
ATOM      1  C   LIG    1       25.821 -19.036   5.727  0.00  0.00    +0.015 C 
ATOM      2  C   LIG    1       25.044 -19.073   4.401  0.00  0.00    +0.009 C 
ATOM      3  C   LIG    1       24.671 -20.541   3.998  0.00  0.00    +0.132 C 
ATOM      4  C   LIG    1       24.339 -20.432   2.503  0.00  0.00    +0.043 C 
ATOM      5  C   LIG    1       25.172 -19.257   1.979  0.00  0.00    +0.007 C 
ATOM      6  C   LIG    1       25.924 -18.666   3.193  0.00  0.00    +0.002 C 
ATOM      7  C   LIG    1       26.228 -17.162   3.021  0.00  0.00    +0.002 C 
ATOM      8  C   LIG    1       27.476 -16.714   3.824  0.00  0.00    +0.045 C 
ATOM      9  C   LIG    1       27.366 -15.455   4.693  0.00  0.00    +0.193 C 
ATOM     10  F   LIG    1       27.137 -15.880   5.973  0.00  0.00    -0.241 F 
ATOM     11  C   LIG    1       26.310 -14.449   4.332  0.00  0.00    -0.023 C 
ATOM     12  C   LIG    1       25.438 -14.729   3.126  0.00  0.00    +0.016 C 
ATOM     13  C   LIG    1       26.245 -14.411   1.837  0.00  0.00    +0.020 C 
ATOM     14  C   LIG    1       24.238 -13.803   3.046  0.00  0.00    -0.012 C 
ATOM     15  C   LIG    1       24.037 -12.753   3.861  0.00  0.00    +0.047 C 
ATOM     16  C   LIG    1       24.992 -12.440   4.948  0.00  0.00    +0.179 C 
ATOM     17  O   LIG    1       24.867 -11.447   5.645  0.00  0.00    -0.288 OA
ATOM     18  C   LIG    1       26.099 -13.392   5.155  0.00  0.00    +0.053 C 
ATOM     19  C   LIG    1       24.995 -16.241   3.186  0.00  0.00    +0.035 C 
ATOM     20  C   LIG    1       24.165 -16.636   4.442  0.00  0.00    +0.120 C 
ATOM     21  C   LIG    1       23.818 -18.134   4.492  0.00  0.00    +0.042 C 
ENDROOT
BRANCH   3  22
ATOM     22  O   LIG    1       25.843 -21.361   4.096  0.00  0.00    -0.380 OA
ATOM     23  H   LIG    1       26.628 -20.791   3.970  0.00  0.00    +0.211 HD
ENDBRANCH   3  22
BRANCH   3  24
ATOM     24  C   LIG    1       23.503 -21.150   4.806  0.00  0.00    +0.190 C 
ATOM     25  O   LIG    1       22.435 -21.486   4.283  0.00  0.00    -0.292 OA
BRANCH  24  26
ATOM     26  C   LIG    1       23.744 -21.402   6.288  0.00  0.00    +0.233 C 
BRANCH  26  27
ATOM     27  O   LIG    1       23.083 -20.411   7.062  0.00  0.00    -0.387 OA
ATOM     28  H   LIG    1       22.844 -19.692   6.445  0.00  0.00    +0.210 HD
ENDBRANCH  26  27
ENDBRANCH  24  26
ENDBRANCH   3  24
BRANCH  20  29
ATOM     29  O   LIG    1       22.929 -15.922   4.477  0.00  0.00    -0.391 OA
ATOM     30  H   LIG    1       23.098 -15.025   4.810  0.00  0.00    +0.210 HD
ENDBRANCH  20  29
TORSDOF 5
ENDMDL
