MODEL 1
REMARK VINA RESULT:      -6.1      0.000      0.000
REMARK  Name = *****
REMARK                            x       y       z     vdW  Elec       q    Type
REMARK                         _______ _______ _______ _____ _____    ______ ____
ROOT
ATOM      1  C   LIG    1       26.171 -15.107   3.205  0.00  0.00    +0.094 C 
ENDROOT
BRANCH   1   2
ATOM      2  C   LIG    1       25.318 -13.846   3.158  0.00  0.00    -0.038 A 
ATOM      3  C   LIG    1       25.304 -13.060   1.995  0.00  0.00    +0.004 A 
ATOM      4  C   LIG    1       24.581 -11.865   1.953  0.00  0.00    +0.000 A 
ATOM      5  C   LIG    1       23.855 -11.447   3.066  0.00  0.00    +0.000 A 
ATOM      6  C   LIG    1       23.844 -12.225   4.218  0.00  0.00    +0.000 A 
ATOM      7  C   LIG    1       24.563 -13.420   4.261  0.00  0.00    +0.004 A 
ENDBRANCH   1   2
BRANCH   1   8
ATOM      8  C   LIG    1       27.473 -14.887   3.999  0.00  0.00    +0.245 C 
BRANCH   8   9
ATOM      9  O   LIG    1       27.544 -13.568   4.562  0.00  0.00    -0.450 OA
BRANCH   9  13
ATOM     10  N   LIG    1       28.877 -11.982   5.303  0.00  0.00    -0.295 N 
ATOM     11  H   LIG    1       28.089 -11.793   5.899  0.00  0.00    +0.148 HD
ATOM     12  H   LIG    1       29.557 -11.259   5.123  0.00  0.00    +0.148 HD
ATOM     13  C   LIG    1       28.713 -12.916   4.336  0.00  0.00    +0.398 C 
ATOM     14  O   LIG    1       29.475 -13.073   3.404  0.00  0.00    -0.227 OA
ENDBRANCH   9  13
ENDBRANCH   8   9
ENDBRANCH   1   8
BRANCH   1  15
ATOM     15  C   LIG    1       25.368 -16.354   3.629  0.00  0.00    +0.245 C 
BRANCH  15  16
ATOM     16  O   LIG    1       25.968 -17.595   3.217  0.00  0.00    -0.450 OA
BRANCH  16  17
ATOM     17  C   LIG    1       25.288 -18.718   3.540  0.00  0.00    +0.398 C 
ATOM     18  O   LIG    1       24.085 -18.908   3.428  0.00  0.00    -0.227 OA
ATOM     19  N   LIG    1       26.134 -19.668   3.994  0.00  0.00    -0.295 N 
ATOM     20  H   LIG    1       25.757 -20.584   4.191  0.00  0.00    +0.148 HD
ATOM     21  H   LIG    1       27.128 -19.509   3.998  0.00  0.00    +0.148 HD
ENDBRANCH  16  17
ENDBRANCH  15  16
ENDBRANCH   1  15
TORSDOF 7
ENDMDL
MODEL 2
REMARK VINA RESULT:      -5.8      0.400      4.895
REMARK  Name = *****
REMARK                            x       y       z     vdW  Elec       q    Type
REMARK                         _______ _______ _______ _____ _____    ______ ____
ROOT
ATOM      1  C   LIG    1       26.017 -15.055   3.867  0.00  0.00    +0.094 C 
ENDROOT
BRANCH   1   2
ATOM      2  C   LIG    1       25.223 -13.811   3.497  0.00  0.00    -0.038 A 
ATOM      3  C   LIG    1       25.302 -13.299   2.192  0.00  0.00    +0.004 A 
ATOM      4  C   LIG    1       24.634 -12.121   1.847  0.00  0.00    +0.000 A 
ATOM      5  C   LIG    1       23.869 -11.447   2.797  0.00  0.00    +0.000 A 
ATOM      6  C   LIG    1       23.766 -11.952   4.088  0.00  0.00    +0.000 A 
ATOM      7  C   LIG    1       24.430 -13.129   4.433  0.00  0.00    +0.004 A 
ENDBRANCH   1   2
BRANCH   1   8
ATOM      8  C   LIG    1       25.743 -16.218   2.895  0.00  0.00    +0.245 C 
BRANCH   8   9
ATOM      9  O   LIG    1       26.253 -17.466   3.389  0.00  0.00    -0.450 OA
BRANCH   9  13
ATOM     10  N   LIG    1       25.948 -19.617   3.737  0.00  0.00    -0.295 N 
ATOM     11  H   LIG    1       26.932 -19.646   3.531  0.00  0.00    +0.148 HD
ATOM     12  H   LIG    1       25.386 -20.447   3.627  0.00  0.00    +0.148 HD
ATOM     13  C   LIG    1       25.316 -18.430   3.576  0.00  0.00    +0.398 C 
ATOM     14  O   LIG    1       24.109 -18.297   3.549  0.00  0.00    -0.227 OA
ENDBRANCH   9  13
ENDBRANCH   8   9
ENDBRANCH   1   8
BRANCH   1  15
ATOM     15  C   LIG    1       27.513 -14.759   4.101  0.00  0.00    +0.245 C 
BRANCH  15  16
ATOM     16  O   LIG    1       27.754 -13.542   4.829  0.00  0.00    -0.450 OA
BRANCH  16  17
ATOM     17  C   LIG    1       28.808 -12.803   4.415  0.00  0.00    +0.398 C 
ATOM     18  O   LIG    1       29.457 -12.957   3.390  0.00  0.00    -0.227 OA
ATOM     19  N   LIG    1       29.056 -11.803   5.289  0.00  0.00    -0.295 N 
ATOM     20  H   LIG    1       29.770 -11.130   5.048  0.00  0.00    +0.148 HD
ATOM     21  H   LIG    1       28.453 -11.654   6.081  0.00  0.00    +0.148 HD
ENDBRANCH  16  17
ENDBRANCH  15  16
ENDBRANCH   1  15
TORSDOF 7
ENDMDL
MODEL 3
REMARK VINA RESULT:      -5.7      3.248      7.500
REMARK  Name = *****
REMARK                            x       y       z     vdW  Elec       q    Type
REMARK                         _______ _______ _______ _____ _____    ______ ____
ROOT
ATOM      1  C   LIG    1       25.578 -19.455   3.771  0.00  0.00    +0.094 C 
ENDROOT
BRANCH   1   2
ATOM      2  C   LIG    1       26.475 -19.786   4.956  0.00  0.00    -0.038 A 
ATOM      3  C   LIG    1       27.778 -19.265   5.006  0.00  0.00    +0.004 A 
ATOM      4  C   LIG    1       28.641 -19.608   6.050  0.00  0.00    +0.000 A 
ATOM      5  C   LIG    1       28.211 -20.463   7.062  0.00  0.00    +0.000 A 
ATOM      6  C   LIG    1       26.916 -20.971   7.035  0.00  0.00    +0.000 A 
ATOM      7  C   LIG    1       26.053 -20.628   5.995  0.00  0.00    +0.004 A 
ENDBRANCH   1   2
BRANCH   1   8
ATOM      8  C   LIG    1       24.387 -20.428   3.667  0.00  0.00    +0.245 C 
BRANCH   8   9
ATOM      9  O   LIG    1       23.161 -19.828   4.112  0.00  0.00    -0.450 OA
BRANCH   9  13
ATOM     10  N   LIG    1       21.818 -21.432   4.794  0.00  0.00    -0.295 N 
ATOM     11  H   LIG    1       21.625 -21.496   3.808  0.00  0.00    +0.148 HD
ATOM     12  H   LIG    1       21.150 -21.785   5.461  0.00  0.00    +0.148 HD
ATOM     13  C   LIG    1       22.606 -20.411   5.205  0.00  0.00    +0.398 C 
ATOM     14  O   LIG    1       22.725 -20.065   6.363  0.00  0.00    -0.227 OA
ENDBRANCH   9  13
ENDBRANCH   8   9
ENDBRANCH   1   8
BRANCH   1  15
ATOM     15  C   LIG    1       25.188 -17.964   3.716  0.00  0.00    +0.245 C 
BRANCH  15  16
ATOM     16  O   LIG    1       26.119 -17.150   2.979  0.00  0.00    -0.450 OA
BRANCH  16  17
ATOM     17  C   LIG    1       26.286 -15.886   3.429  0.00  0.00    +0.398 C 
ATOM     18  O   LIG    1       25.430 -15.017   3.514  0.00  0.00    -0.227 OA
ATOM     19  N   LIG    1       27.562 -15.691   3.825  0.00  0.00    -0.295 N 
ATOM     20  H   LIG    1       27.794 -14.809   4.259  0.00  0.00    +0.148 HD
ATOM     21  H   LIG    1       28.222 -16.451   3.818  0.00  0.00    +0.148 HD
ENDBRANCH  16  17
ENDBRANCH  15  16
ENDBRANCH   1  15
TORSDOF 7
ENDMDL
MODEL 4
REMARK VINA RESULT:      -5.5      2.667      5.408
REMARK  Name = *****
REMARK                            x       y       z     vdW  Elec       q    Type
REMARK                         _______ _______ _______ _____ _____    ______ ____
ROOT
ATOM      1  C   LIG    1       25.214 -15.823   3.355  0.00  0.00    +0.094 C 
ENDROOT
BRANCH   1   2
ATOM      2  C   LIG    1       24.731 -17.240   3.627  0.00  0.00    -0.038 A 
ATOM      3  C   LIG    1       25.604 -18.322   3.428  0.00  0.00    +0.004 A 
ATOM      4  C   LIG    1       25.163 -19.635   3.607  0.00  0.00    +0.000 A 
ATOM      5  C   LIG    1       23.850 -19.885   4.000  0.00  0.00    +0.000 A 
ATOM      6  C   LIG    1       22.979 -18.823   4.220  0.00  0.00    +0.000 A 
ATOM      7  C   LIG    1       23.419 -17.511   4.043  0.00  0.00    +0.004 A 
ENDBRANCH   1   2
BRANCH   1   8
ATOM      8  C   LIG    1       24.337 -14.774   4.065  0.00  0.00    +0.245 C 
BRANCH   8   9
ATOM      9  O   LIG    1       23.864 -13.765   3.161  0.00  0.00    -0.450 OA
BRANCH   9  13
ATOM     10  N   LIG    1       23.831 -11.645   2.572  0.00  0.00    -0.295 N 
ATOM     11  H   LIG    1       23.840 -12.047   1.650  0.00  0.00    +0.148 HD
ATOM     12  H   LIG    1       24.143 -10.696   2.711  0.00  0.00    +0.148 HD
ATOM     13  C   LIG    1       23.977 -12.492   3.618  0.00  0.00    +0.398 C 
ATOM     14  O   LIG    1       24.227 -12.138   4.753  0.00  0.00    -0.227 OA
ENDBRANCH   9  13
ENDBRANCH   8   9
ENDBRANCH   1   8
BRANCH   1  15
ATOM     15  C   LIG    1       26.729 -15.653   3.593  0.00  0.00    +0.245 C 
BRANCH  15  16
ATOM     16  O   LIG    1       27.263 -14.425   3.066  0.00  0.00    -0.450 OA
BRANCH  16  17
ATOM     17  C   LIG    1       27.781 -13.567   3.974  0.00  0.00    +0.398 C 
ATOM     18  O   LIG    1       27.354 -13.338   5.097  0.00  0.00    -0.227 OA
ATOM     19  N   LIG    1       28.899 -12.985   3.488  0.00  0.00    -0.295 N 
ATOM     20  H   LIG    1       29.426 -12.384   4.105  0.00  0.00    +0.148 HD
ATOM     21  H   LIG    1       29.270 -13.256   2.593  0.00  0.00    +0.148 HD
ENDBRANCH  16  17
ENDBRANCH  15  16
ENDBRANCH   1  15
TORSDOF 7
ENDMDL
MODEL 5
REMARK VINA RESULT:      -5.4      3.237      6.213
REMARK  Name = *****
REMARK                            x       y       z     vdW  Elec       q    Type
REMARK                         _______ _______ _______ _____ _____    ______ ____
ROOT
ATOM      1  C   LIG    1       25.529 -19.227   4.252  0.00  0.00    +0.094 C 
ENDROOT
BRANCH   1   2
ATOM      2  C   LIG    1       26.463 -19.875   5.264  0.00  0.00    -0.038 A 
ATOM      3  C   LIG    1       27.828 -19.544   5.261  0.00  0.00    +0.004 A 
ATOM      4  C   LIG    1       28.716 -20.175   6.136  0.00  0.00    +0.000 A 
ATOM      5  C   LIG    1       28.251 -21.134   7.033  0.00  0.00    +0.000 A 
ATOM      6  C   LIG    1       26.899 -21.457   7.062  0.00  0.00    +0.000 A 
ATOM      7  C   LIG    1       26.011 -20.827   6.190  0.00  0.00    +0.004 A 
ENDBRANCH   1   2
BRANCH   1   8
ATOM      8  C   LIG    1       26.269 -18.215   3.358  0.00  0.00    +0.245 C 
BRANCH   8   9
ATOM      9  O   LIG    1       25.719 -16.893   3.470  0.00  0.00    -0.450 OA
BRANCH   9  13
ATOM     10  N   LIG    1       27.645 -16.038   4.102  0.00  0.00    -0.295 N 
ATOM     11  H   LIG    1       27.541 -16.712   4.842  0.00  0.00    +0.148 HD
ATOM     12  H   LIG    1       28.242 -15.237   4.232  0.00  0.00    +0.148 HD
ATOM     13  C   LIG    1       26.603 -15.888   3.250  0.00  0.00    +0.398 C 
ATOM     14  O   LIG    1       26.485 -14.961   2.474  0.00  0.00    -0.227 OA
ENDBRANCH   9  13
ENDBRANCH   8   9
ENDBRANCH   1   8
BRANCH   1  15
ATOM     15  C   LIG    1       24.680 -20.258   3.480  0.00  0.00    +0.245 C 
BRANCH  15  16
ATOM     16  O   LIG    1       23.262 -20.039   3.591  0.00  0.00    -0.450 OA
BRANCH  16  17
ATOM     17  C   LIG    1       22.732 -20.205   4.824  0.00  0.00    +0.398 C 
ATOM     18  O   LIG    1       22.427 -19.327   5.619  0.00  0.00    -0.227 OA
ATOM     19  N   LIG    1       22.535 -21.517   5.080  0.00  0.00    -0.295 N 
ATOM     20  H   LIG    1       22.067 -21.767   5.939  0.00  0.00    +0.148 HD
ATOM     21  H   LIG    1       22.720 -22.210   4.373  0.00  0.00    +0.148 HD
ENDBRANCH  16  17
ENDBRANCH  15  16
ENDBRANCH   1  15
TORSDOF 7
ENDMDL
MODEL 6
REMARK VINA RESULT:      -5.4      3.363      6.156
REMARK  Name = *****
REMARK                            x       y       z     vdW  Elec       q    Type
REMARK                         _______ _______ _______ _____ _____    ______ ____
ROOT
ATOM      1  C   LIG    1       26.208 -19.302   4.158  0.00  0.00    +0.094 C 
ENDROOT
BRANCH   1   2
ATOM      2  C   LIG    1       25.043 -19.965   4.879  0.00  0.00    -0.038 A 
ATOM      3  C   LIG    1       23.736 -19.795   4.392  0.00  0.00    +0.004 A 
ATOM      4  C   LIG    1       22.645 -20.338   5.075  0.00  0.00    +0.000 A 
ATOM      5  C   LIG    1       22.845 -21.069   6.244  0.00  0.00    +0.000 A 
ATOM      6  C   LIG    1       24.134 -21.263   6.728  0.00  0.00    +0.000 A 
ATOM      7  C   LIG    1       25.225 -20.722   6.046  0.00  0.00    +0.004 A 
ENDBRANCH   1   2
BRANCH   1   8
ATOM      8  C   LIG    1       25.756 -18.063   3.361  0.00  0.00    +0.245 C 
BRANCH   8   9
ATOM      9  O   LIG    1       26.800 -17.084   3.249  0.00  0.00    -0.450 OA
BRANCH   9  13
ATOM     10  N   LIG    1       27.513 -15.035   3.613  0.00  0.00    -0.295 N 
ATOM     11  H   LIG    1       28.397 -15.509   3.699  0.00  0.00    +0.148 HD
ATOM     12  H   LIG    1       27.385 -14.129   4.038  0.00  0.00    +0.148 HD
ATOM     13  C   LIG    1       26.408 -15.805   3.479  0.00  0.00    +0.398 C 
ATOM     14  O   LIG    1       25.272 -15.396   3.610  0.00  0.00    -0.227 OA
ENDBRANCH   9  13
ENDBRANCH   8   9
ENDBRANCH   1   8
BRANCH   1  15
ATOM     15  C   LIG    1       27.419 -19.058   5.082  0.00  0.00    +0.245 C 
BRANCH  15  16
ATOM     16  O   LIG    1       28.085 -20.266   5.493  0.00  0.00    -0.450 OA
BRANCH  16  17
ATOM     17  C   LIG    1       29.019 -20.127   6.460  0.00  0.00    +0.398 C 
ATOM     18  O   LIG    1       29.474 -19.080   6.899  0.00  0.00    -0.227 OA
ATOM     19  N   LIG    1       29.390 -21.336   6.935  0.00  0.00    -0.295 N 
ATOM     20  H   LIG    1       30.025 -21.362   7.720  0.00  0.00    +0.148 HD
ATOM     21  H   LIG    1       28.938 -22.174   6.610  0.00  0.00    +0.148 HD
ENDBRANCH  16  17
ENDBRANCH  15  16
ENDBRANCH   1  15
TORSDOF 7
ENDMDL
MODEL 7
REMARK VINA RESULT:      -5.1      2.389      5.326
REMARK  Name = *****
REMARK                            x       y       z     vdW  Elec       q    Type
REMARK                         _______ _______ _______ _____ _____    ______ ____
ROOT
ATOM      1  C   LIG    1       25.911 -15.160   3.457  0.00  0.00    +0.094 C 
ENDROOT
BRANCH   1   2
ATOM      2  C   LIG    1       26.956 -14.179   3.971  0.00  0.00    -0.038 A 
ATOM      3  C   LIG    1       26.851 -13.673   5.276  0.00  0.00    +0.004 A 
ATOM      4  C   LIG    1       27.760 -12.722   5.746  0.00  0.00    +0.000 A 
ATOM      5  C   LIG    1       28.791 -12.274   4.924  0.00  0.00    +0.000 A 
ATOM      6  C   LIG    1       28.919 -12.781   3.635  0.00  0.00    +0.000 A 
ATOM      7  C   LIG    1       28.014 -13.732   3.165  0.00  0.00    +0.004 A 
ENDBRANCH   1   2
BRANCH   1   8
ATOM      8  C   LIG    1       26.377 -16.621   3.607  0.00  0.00    +0.245 C 
BRANCH   8   9
ATOM      9  O   LIG    1       25.566 -17.526   2.843  0.00  0.00    -0.450 OA
BRANCH   9  13
ATOM     10  N   LIG    1       26.114 -19.311   4.007  0.00  0.00    -0.295 N 
ATOM     11  H   LIG    1       27.027 -19.094   3.644  0.00  0.00    +0.148 HD
ATOM     12  H   LIG    1       25.905 -20.248   4.317  0.00  0.00    +0.148 HD
ATOM     13  C   LIG    1       25.073 -18.579   3.543  0.00  0.00    +0.398 C 
ATOM     14  O   LIG    1       23.907 -18.878   3.697  0.00  0.00    -0.227 OA
ENDBRANCH   9  13
ENDBRANCH   8   9
ENDBRANCH   1   8
BRANCH   1  15
ATOM     15  C   LIG    1       24.503 -14.880   4.021  0.00  0.00    +0.245 C 
BRANCH  15  16
ATOM     16  O   LIG    1       23.707 -14.019   3.186  0.00  0.00    -0.450 OA
BRANCH  16  17
ATOM     17  C   LIG    1       23.924 -12.692   3.328  0.00  0.00    +0.398 C 
ATOM     18  O   LIG    1       23.907 -12.050   4.369  0.00  0.00    -0.227 OA
ATOM     19  N   LIG    1       24.209 -12.130   2.133  0.00  0.00    -0.295 N 
ATOM     20  H   LIG    1       24.472 -11.155   2.119  0.00  0.00    +0.148 HD
ATOM     21  H   LIG    1       24.296 -12.699   1.307  0.00  0.00    +0.148 HD
ENDBRANCH  16  17
ENDBRANCH  15  16
ENDBRANCH   1  15
TORSDOF 7
ENDMDL
MODEL 8
REMARK VINA RESULT:      -5.1      2.673      5.220
REMARK  Name = *****
REMARK                            x       y       z     vdW  Elec       q    Type
REMARK                         _______ _______ _______ _____ _____    ______ ____
ROOT
ATOM      1  C   LIG    1       24.700 -15.550   4.128  0.00  0.00    +0.094 C 
ENDROOT
BRANCH   1   2
ATOM      2  C   LIG    1       24.060 -16.929   4.052  0.00  0.00    -0.038 A 
ATOM      3  C   LIG    1       22.710 -17.089   4.402  0.00  0.00    +0.004 A 
ATOM      4  C   LIG    1       22.119 -18.355   4.403  0.00  0.00    +0.000 A 
ATOM      5  C   LIG    1       22.865 -19.475   4.042  0.00  0.00    +0.000 A 
ATOM      6  C   LIG    1       24.198 -19.330   3.674  0.00  0.00    +0.000 A 
ATOM      7  C   LIG    1       24.789 -18.066   3.671  0.00  0.00    +0.004 A 
ENDBRANCH   1   2
BRANCH   1   8
ATOM      8  C   LIG    1       25.880 -15.413   3.147  0.00  0.00    +0.245 C 
BRANCH   8   9
ATOM      9  O   LIG    1       27.101 -15.065   3.817  0.00  0.00    -0.450 OA
BRANCH   9  13
ATOM     10  N   LIG    1       26.899 -13.379   2.417  0.00  0.00    -0.295 N 
ATOM     11  H   LIG    1       26.166 -13.960   2.045  0.00  0.00    +0.148 HD
ATOM     12  H   LIG    1       27.323 -12.671   1.838  0.00  0.00    +0.148 HD
ATOM     13  C   LIG    1       27.673 -13.909   3.394  0.00  0.00    +0.398 C 
ATOM     14  O   LIG    1       28.728 -13.433   3.762  0.00  0.00    -0.227 OA
ENDBRANCH   9  13
ENDBRANCH   8   9
ENDBRANCH   1   8
BRANCH   1  15
ATOM     15  C   LIG    1       23.666 -14.408   4.045  0.00  0.00    +0.245 C 
BRANCH  15  16
ATOM     16  O   LIG    1       23.887 -13.508   2.944  0.00  0.00    -0.450 OA
BRANCH  16  17
ATOM     17  C   LIG    1       23.885 -12.191   3.247  0.00  0.00    +0.398 C 
ATOM     18  O   LIG    1       23.860 -11.692   4.363  0.00  0.00    -0.227 OA
ATOM     19  N   LIG    1       23.950 -11.447   2.121  0.00  0.00    -0.295 N 
ATOM     20  H   LIG    1       24.038 -10.446   2.218  0.00  0.00    +0.148 HD
ATOM     21  H   LIG    1       24.052 -11.888   1.222  0.00  0.00    +0.148 HD
ENDBRANCH  16  17
ENDBRANCH  15  16
ENDBRANCH   1  15
TORSDOF 7
ENDMDL
MODEL 9
REMARK VINA RESULT:      -5.0      3.297      6.291
REMARK  Name = *****
REMARK                            x       y       z     vdW  Elec       q    Type
REMARK                         _______ _______ _______ _____ _____    ______ ____
ROOT
ATOM      1  C   LIG    1       25.650 -18.909   4.441  0.00  0.00    +0.094 C 
ENDROOT
BRANCH   1   2
ATOM      2  C   LIG    1       24.253 -19.502   4.546  0.00  0.00    -0.038 A 
ATOM      3  C   LIG    1       23.153 -18.779   4.055  0.00  0.00    +0.004 A 
ATOM      4  C   LIG    1       21.854 -19.274   4.200  0.00  0.00    +0.000 A 
ATOM      5  C   LIG    1       21.638 -20.500   4.825  0.00  0.00    +0.000 A 
ATOM      6  C   LIG    1       22.719 -21.236   5.298  0.00  0.00    +0.000 A 
ATOM      7  C   LIG    1       24.016 -20.745   5.153  0.00  0.00    +0.004 A 
ENDBRANCH   1   2
BRANCH   1   8
ATOM      8  C   LIG    1       26.741 -19.992   4.555  0.00  0.00    +0.245 C 
BRANCH   8   9
ATOM      9  O   LIG    1       27.335 -20.024   5.861  0.00  0.00    -0.450 OA
BRANCH   9  13
ATOM     10  N   LIG    1       29.341 -20.641   6.520  0.00  0.00    -0.295 N 
ATOM     11  H   LIG    1       28.813 -21.358   6.988  0.00  0.00    +0.148 HD
ATOM     12  H   LIG    1       30.264 -20.400   6.849  0.00  0.00    +0.148 HD
ATOM     13  C   LIG    1       28.642 -19.660   5.901  0.00  0.00    +0.398 C 
ATOM     14  O   LIG    1       29.127 -18.617   5.514  0.00  0.00    -0.227 OA
ENDBRANCH   9  13
ENDBRANCH   8   9
ENDBRANCH   1   8
BRANCH   1  15
ATOM     15  C   LIG    1       25.810 -17.969   3.228  0.00  0.00    +0.245 C 
BRANCH  15  16
ATOM     16  O   LIG    1       26.890 -17.029   3.364  0.00  0.00    -0.450 OA
BRANCH  16  17
ATOM     17  C   LIG    1       26.532 -15.735   3.522  0.00  0.00    +0.398 C 
ATOM     18  O   LIG    1       25.397 -15.282   3.536  0.00  0.00    -0.227 OA
ATOM     19  N   LIG    1       27.625 -14.962   3.708  0.00  0.00    -0.295 N 
ATOM     20  H   LIG    1       27.484 -13.985   3.921  0.00  0.00    +0.148 HD
ATOM     21  H   LIG    1       28.540 -15.376   3.773  0.00  0.00    +0.148 HD
ENDBRANCH  16  17
ENDBRANCH  15  16
ENDBRANCH   1  15
TORSDOF 7
ENDMDL
