MODEL 1
REMARK VINA RESULT:      -6.2      0.000      0.000
REMARK  Name = *****
REMARK                            x       y       z     vdW  Elec       q    Type
REMARK                         _______ _______ _______ _____ _____    ______ ____
ROOT
ATOM      1  C   LIG    1       25.470 -14.399   3.745  0.00  0.00    -0.030 A 
ATOM      2  C   LIG    1       25.095 -15.680   3.292  0.00  0.00    +0.050 A 
ATOM      3  C   LIG    1       25.978 -16.760   3.343  0.00  0.00    +0.129 A 
ATOM      4  C   LIG    1       27.293 -16.535   3.756  0.00  0.00    +0.046 A 
ATOM      5  C   LIG    1       27.685 -15.270   4.209  0.00  0.00    +0.004 A 
ATOM      6  C   LIG    1       26.769 -14.214   4.238  0.00  0.00    +0.005 A 
ENDROOT
BRANCH   1   8
ATOM      7  C   LIG    1       24.379 -12.565   5.059  0.00  0.00    +0.024 C 
ATOM      8  C   LIG    1       24.416 -13.302   3.718  0.00  0.00    +0.124 C 
BRANCH   8   9
ATOM      9  C   LIG    1       24.517 -12.309   2.565  0.00  0.00    +0.312 C 
ATOM     10  O   LIG    1       25.472 -12.213   1.816  0.00  0.00    -0.250 OA
BRANCH   9  11
ATOM     11  O   LIG    1       23.463 -11.460   2.478  0.00  0.00    -0.480 OA
ATOM     12  H   LIG    1       22.803 -11.568   3.189  0.00  0.00    +0.295 HD
ENDBRANCH   9  11
ENDBRANCH   8   9
ENDBRANCH   1   8
BRANCH   3  13
ATOM     13  O   LIG    1       25.661 -18.032   2.921  0.00  0.00    -0.456 OA
BRANCH  13  14
ATOM     14  C   LIG    1       24.863 -18.859   3.689  0.00  0.00    +0.128 A 
ATOM     15  C   LIG    1       25.532 -19.826   4.449  0.00  0.00    +0.046 A 
ATOM     16  C   LIG    1       24.821 -20.684   5.295  0.00  0.00    +0.004 A 
ATOM     17  C   LIG    1       23.440 -20.552   5.423  0.00  0.00    +0.000 A 
ATOM     18  C   LIG    1       22.769 -19.574   4.688  0.00  0.00    +0.004 A 
ATOM     19  C   LIG    1       23.476 -18.735   3.817  0.00  0.00    +0.046 A 
ENDBRANCH  13  14
ENDBRANCH   3  13
TORSDOF 5
ENDMDL
MODEL 2
REMARK VINA RESULT:      -6.0      2.013      2.984
REMARK  Name = *****
REMARK                            x       y       z     vdW  Elec       q    Type
REMARK                         _______ _______ _______ _____ _____    ______ ____
ROOT
ATOM      1  C   LIG    1       25.183 -15.331   3.567  0.00  0.00    -0.030 A 
ATOM      2  C   LIG    1       25.221 -16.732   3.409  0.00  0.00    +0.050 A 
ATOM      3  C   LIG    1       24.134 -17.535   3.754  0.00  0.00    +0.129 A 
ATOM      4  C   LIG    1       23.026 -16.944   4.367  0.00  0.00    +0.046 A 
ATOM      5  C   LIG    1       22.970 -15.554   4.533  0.00  0.00    +0.004 A 
ATOM      6  C   LIG    1       24.027 -14.746   4.103  0.00  0.00    +0.005 A 
ENDROOT
BRANCH   1   8
ATOM      7  C   LIG    1       25.938 -13.340   2.246  0.00  0.00    +0.024 C 
ATOM      8  C   LIG    1       26.388 -14.532   3.094  0.00  0.00    +0.124 C 
BRANCH   8   9
ATOM      9  C   LIG    1       27.355 -14.078   4.182  0.00  0.00    +0.312 C 
ATOM     10  O   LIG    1       27.037 -13.826   5.330  0.00  0.00    -0.250 OA
BRANCH   9  11
ATOM     11  O   LIG    1       28.627 -13.897   3.746  0.00  0.00    -0.480 OA
ATOM     12  H   LIG    1       29.014 -14.679   3.308  0.00  0.00    +0.295 HD
ENDBRANCH   9  11
ENDBRANCH   8   9
ENDBRANCH   1   8
BRANCH   3  13
ATOM     13  O   LIG    1       24.115 -18.906   3.614  0.00  0.00    -0.456 OA
BRANCH  13  14
ATOM     14  C   LIG    1       24.162 -19.735   4.719  0.00  0.00    +0.128 A 
ATOM     15  C   LIG    1       25.431 -20.196   5.087  0.00  0.00    +0.046 A 
ATOM     16  C   LIG    1       25.596 -21.005   6.217  0.00  0.00    +0.004 A 
ATOM     17  C   LIG    1       24.498 -21.321   7.015  0.00  0.00    +0.000 A 
ATOM     18  C   LIG    1       23.234 -20.843   6.669  0.00  0.00    +0.004 A 
ATOM     19  C   LIG    1       23.063 -20.059   5.521  0.00  0.00    +0.046 A 
ENDBRANCH  13  14
ENDBRANCH   3  13
TORSDOF 5
ENDMDL
MODEL 3
REMARK VINA RESULT:      -5.8      2.079      5.983
REMARK  Name = *****
REMARK                            x       y       z     vdW  Elec       q    Type
REMARK                         _______ _______ _______ _____ _____    ______ ____
ROOT
ATOM      1  C   LIG    1       25.211 -19.109   3.949  0.00  0.00    -0.030 A 
ATOM      2  C   LIG    1       25.431 -17.818   3.429  0.00  0.00    +0.050 A 
ATOM      3  C   LIG    1       26.657 -17.168   3.584  0.00  0.00    +0.129 A 
ATOM      4  C   LIG    1       27.646 -17.773   4.362  0.00  0.00    +0.046 A 
ATOM      5  C   LIG    1       27.446 -19.055   4.888  0.00  0.00    +0.004 A 
ATOM      6  C   LIG    1       26.248 -19.737   4.653  0.00  0.00    +0.005 A 
ENDROOT
BRANCH   1   8
ATOM      7  C   LIG    1       23.994 -21.290   3.739  0.00  0.00    +0.024 C 
ATOM      8  C   LIG    1       23.868 -19.767   3.666  0.00  0.00    +0.124 C 
BRANCH   8   9
ATOM      9  C   LIG    1       22.698 -19.286   4.519  0.00  0.00    +0.312 C 
ATOM     10  O   LIG    1       21.876 -18.461   4.165  0.00  0.00    -0.250 OA
BRANCH   9  11
ATOM     11  O   LIG    1       22.683 -19.805   5.772  0.00  0.00    -0.480 OA
ATOM     12  H   LIG    1       22.888 -19.160   6.475  0.00  0.00    +0.295 HD
ENDBRANCH   9  11
ENDBRANCH   8   9
ENDBRANCH   1   8
BRANCH   3  13
ATOM     13  O   LIG    1       26.928 -15.911   3.090  0.00  0.00    -0.456 OA
BRANCH  13  14
ATOM     14  C   LIG    1       26.007 -14.886   3.208  0.00  0.00    +0.128 A 
ATOM     15  C   LIG    1       26.160 -13.818   2.316  0.00  0.00    +0.046 A 
ATOM     16  C   LIG    1       25.254 -12.751   2.321  0.00  0.00    +0.004 A 
ATOM     17  C   LIG    1       24.164 -12.765   3.188  0.00  0.00    +0.000 A 
ATOM     18  C   LIG    1       23.991 -13.839   4.062  0.00  0.00    +0.004 A 
ATOM     19  C   LIG    1       24.913 -14.893   4.079  0.00  0.00    +0.046 A 
ENDBRANCH  13  14
ENDBRANCH   3  13
TORSDOF 5
ENDMDL
MODEL 4
REMARK VINA RESULT:      -5.8      1.066      1.858
REMARK  Name = *****
REMARK                            x       y       z     vdW  Elec       q    Type
REMARK                         _______ _______ _______ _____ _____    ______ ____
ROOT
ATOM      1  C   LIG    1       26.041 -14.284   3.523  0.00  0.00    -0.030 A 
ATOM      2  C   LIG    1       25.505 -15.508   3.073  0.00  0.00    +0.050 A 
ATOM      3  C   LIG    1       26.163 -16.718   3.298  0.00  0.00    +0.129 A 
ATOM      4  C   LIG    1       27.427 -16.698   3.890  0.00  0.00    +0.046 A 
ATOM      5  C   LIG    1       27.977 -15.492   4.343  0.00  0.00    +0.004 A 
ATOM      6  C   LIG    1       27.272 -14.294   4.194  0.00  0.00    +0.005 A 
ENDROOT
BRANCH   1   8
ATOM      7  C   LIG    1       24.682 -12.987   1.863  0.00  0.00    +0.024 C 
ATOM      8  C   LIG    1       25.216 -13.025   3.297  0.00  0.00    +0.124 C 
BRANCH   8   9
ATOM      9  C   LIG    1       24.087 -12.781   4.293  0.00  0.00    +0.312 C 
ATOM     10  O   LIG    1       23.754 -11.685   4.706  0.00  0.00    -0.250 OA
BRANCH   9  11
ATOM     11  O   LIG    1       23.512 -13.917   4.760  0.00  0.00    -0.480 OA
ATOM     12  H   LIG    1       23.017 -14.420   4.086  0.00  0.00    +0.295 HD
ENDBRANCH   9  11
ENDBRANCH   8   9
ENDBRANCH   1   8
BRANCH   3  13
ATOM     13  O   LIG    1       25.682 -17.942   2.887  0.00  0.00    -0.456 OA
BRANCH  13  14
ATOM     14  C   LIG    1       24.974 -18.756   3.751  0.00  0.00    +0.128 A 
ATOM     15  C   LIG    1       23.594 -18.533   3.812  0.00  0.00    +0.046 A 
ATOM     16  C   LIG    1       22.778 -19.331   4.622  0.00  0.00    +0.004 A 
ATOM     17  C   LIG    1       23.331 -20.388   5.342  0.00  0.00    +0.000 A 
ATOM     18  C   LIG    1       24.702 -20.632   5.266  0.00  0.00    +0.004 A 
ATOM     19  C   LIG    1       25.524 -19.815   4.480  0.00  0.00    +0.046 A 
ENDBRANCH  13  14
ENDBRANCH   3  13
TORSDOF 5
ENDMDL
MODEL 5
REMARK VINA RESULT:      -5.7      2.288      6.354
REMARK  Name = *****
REMARK                            x       y       z     vdW  Elec       q    Type
REMARK                         _______ _______ _______ _____ _____    ______ ____
ROOT
ATOM      1  C   LIG    1       25.089 -20.291   5.225  0.00  0.00    -0.030 A 
ATOM      2  C   LIG    1       25.009 -19.248   4.281  0.00  0.00    +0.050 A 
ATOM      3  C   LIG    1       26.133 -18.505   3.917  0.00  0.00    +0.129 A 
ATOM      4  C   LIG    1       27.338 -18.737   4.584  0.00  0.00    +0.046 A 
ATOM      5  C   LIG    1       27.438 -19.768   5.525  0.00  0.00    +0.004 A 
ATOM      6  C   LIG    1       26.328 -20.567   5.819  0.00  0.00    +0.005 A 
ENDROOT
BRANCH   1   8
ATOM      7  C   LIG    1       23.804 -21.570   6.955  0.00  0.00    +0.024 C 
ATOM      8  C   LIG    1       23.826 -21.093   5.502  0.00  0.00    +0.124 C 
BRANCH   8   9
ATOM      9  C   LIG    1       22.511 -20.408   5.145  0.00  0.00    +0.312 C 
ATOM     10  O   LIG    1       22.282 -19.223   5.306  0.00  0.00    -0.250 OA
BRANCH   9  11
ATOM     11  O   LIG    1       21.555 -21.256   4.691  0.00  0.00    -0.480 OA
ATOM     12  H   LIG    1       21.904 -22.088   4.317  0.00  0.00    +0.295 HD
ENDBRANCH   9  11
ENDBRANCH   8   9
ENDBRANCH   1   8
BRANCH   3  13
ATOM     13  O   LIG    1       26.113 -17.480   2.996  0.00  0.00    -0.456 OA
BRANCH  13  14
ATOM     14  C   LIG    1       26.087 -16.159   3.402  0.00  0.00    +0.128 A 
ATOM     15  C   LIG    1       24.827 -15.641   3.725  0.00  0.00    +0.046 A 
ATOM     16  C   LIG    1       24.695 -14.328   4.191  0.00  0.00    +0.004 A 
ATOM     17  C   LIG    1       25.826 -13.537   4.379  0.00  0.00    +0.000 A 
ATOM     18  C   LIG    1       27.087 -14.055   4.082  0.00  0.00    +0.004 A 
ATOM     19  C   LIG    1       27.218 -15.359   3.588  0.00  0.00    +0.046 A 
ENDBRANCH  13  14
ENDBRANCH   3  13
TORSDOF 5
ENDMDL
MODEL 6
REMARK VINA RESULT:      -5.3      2.598      6.865
REMARK  Name = *****
REMARK                            x       y       z     vdW  Elec       q    Type
REMARK                         _______ _______ _______ _____ _____    ______ ____
ROOT
ATOM      1  C   LIG    1       27.127 -19.428   4.723  0.00  0.00    -0.030 A 
ATOM      2  C   LIG    1       27.173 -18.176   4.078  0.00  0.00    +0.050 A 
ATOM      3  C   LIG    1       26.038 -17.616   3.488  0.00  0.00    +0.129 A 
ATOM      4  C   LIG    1       24.860 -18.366   3.450  0.00  0.00    +0.046 A 
ATOM      5  C   LIG    1       24.795 -19.612   4.085  0.00  0.00    +0.004 A 
ATOM      6  C   LIG    1       25.912 -20.126   4.751  0.00  0.00    +0.005 A 
ENDROOT
BRANCH   1   8
ATOM      7  C   LIG    1       29.264 -18.738   5.837  0.00  0.00    +0.024 C 
ATOM      8  C   LIG    1       28.396 -19.921   5.401  0.00  0.00    +0.124 C 
BRANCH   8   9
ATOM      9  C   LIG    1       28.197 -20.892   6.561  0.00  0.00    +0.312 C 
ATOM     10  O   LIG    1       27.121 -21.161   7.062  0.00  0.00    -0.250 OA
BRANCH   9  11
ATOM     11  O   LIG    1       29.354 -21.394   7.061  0.00  0.00    -0.480 OA
ATOM     12  H   LIG    1       29.421 -22.367   7.013  0.00  0.00    +0.295 HD
ENDBRANCH   9  11
ENDBRANCH   8   9
ENDBRANCH   1   8
BRANCH   3  13
ATOM     13  O   LIG    1       26.026 -16.395   2.851  0.00  0.00    -0.456 OA
BRANCH  13  14
ATOM     14  C   LIG    1       25.907 -15.219   3.569  0.00  0.00    +0.128 A 
ATOM     15  C   LIG    1       24.607 -14.723   3.724  0.00  0.00    +0.046 A 
ATOM     16  C   LIG    1       24.372 -13.564   4.472  0.00  0.00    +0.004 A 
ATOM     17  C   LIG    1       25.429 -12.917   5.108  0.00  0.00    +0.000 A 
ATOM     18  C   LIG    1       26.723 -13.420   4.979  0.00  0.00    +0.004 A 
ATOM     19  C   LIG    1       26.965 -14.563   4.206  0.00  0.00    +0.046 A 
ENDBRANCH  13  14
ENDBRANCH   3  13
TORSDOF 5
ENDMDL
MODEL 7
REMARK VINA RESULT:      -5.0      1.865      2.546
REMARK  Name = *****
REMARK                            x       y       z     vdW  Elec       q    Type
REMARK                         _______ _______ _______ _____ _____    ______ ____
ROOT
ATOM      1  C   LIG    1       26.994 -15.570   3.691  0.00  0.00    -0.030 A 
ATOM      2  C   LIG    1       25.971 -16.398   3.186  0.00  0.00    +0.050 A 
ATOM      3  C   LIG    1       25.968 -17.775   3.412  0.00  0.00    +0.129 A 
ATOM      4  C   LIG    1       27.059 -18.353   4.064  0.00  0.00    +0.046 A 
ATOM      5  C   LIG    1       28.086 -17.548   4.572  0.00  0.00    +0.004 A 
ATOM      6  C   LIG    1       28.037 -16.159   4.419  0.00  0.00    +0.005 A 
ENDROOT
BRANCH   1   8
ATOM      7  C   LIG    1       25.417 -13.624   3.612  0.00  0.00    +0.024 C 
ATOM      8  C   LIG    1       26.872 -14.072   3.457  0.00  0.00    +0.124 C 
BRANCH   8   9
ATOM      9  C   LIG    1       27.794 -13.190   4.294  0.00  0.00    +0.312 C 
ATOM     10  O   LIG    1       28.875 -12.771   3.923  0.00  0.00    -0.250 OA
BRANCH   9  11
ATOM     11  O   LIG    1       27.341 -12.961   5.551  0.00  0.00    -0.480 OA
ATOM     12  H   LIG    1       27.137 -13.770   6.056  0.00  0.00    +0.295 HD
ENDBRANCH   9  11
ENDBRANCH   8   9
ENDBRANCH   1   8
BRANCH   3  13
ATOM     13  O   LIG    1       24.990 -18.628   2.948  0.00  0.00    -0.456 OA
BRANCH  13  14
ATOM     14  C   LIG    1       24.276 -19.432   3.817  0.00  0.00    +0.128 A 
ATOM     15  C   LIG    1       23.021 -18.951   4.208  0.00  0.00    +0.046 A 
ATOM     16  C   LIG    1       22.198 -19.708   5.049  0.00  0.00    +0.004 A 
ATOM     17  C   LIG    1       22.605 -20.972   5.470  0.00  0.00    +0.000 A 
ATOM     18  C   LIG    1       23.843 -21.469   5.064  0.00  0.00    +0.004 A 
ATOM     19  C   LIG    1       24.681 -20.700   4.247  0.00  0.00    +0.046 A 
ENDBRANCH  13  14
ENDBRANCH   3  13
TORSDOF 5
ENDMDL
MODEL 8
REMARK VINA RESULT:      -4.9      1.099      1.605
REMARK  Name = *****
REMARK                            x       y       z     vdW  Elec       q    Type
REMARK                         _______ _______ _______ _____ _____    ______ ____
ROOT
ATOM      1  C   LIG    1       25.814 -15.610   3.435  0.00  0.00    -0.030 A 
ATOM      2  C   LIG    1       25.243 -16.890   3.288  0.00  0.00    +0.050 A 
ATOM      3  C   LIG    1       25.951 -18.047   3.618  0.00  0.00    +0.129 A 
ATOM      4  C   LIG    1       27.289 -17.933   4.001  0.00  0.00    +0.046 A 
ATOM      5  C   LIG    1       27.875 -16.670   4.152  0.00  0.00    +0.004 A 
ATOM      6  C   LIG    1       27.132 -15.511   3.906  0.00  0.00    +0.005 A 
ENDROOT
BRANCH   1   8
ATOM      7  C   LIG    1       24.290 -13.870   4.399  0.00  0.00    +0.024 C 
ATOM      8  C   LIG    1       24.940 -14.405   3.122  0.00  0.00    +0.124 C 
BRANCH   8   9
ATOM      9  C   LIG    1       25.617 -13.274   2.353  0.00  0.00    +0.312 C 
ATOM     10  O   LIG    1       25.093 -12.208   2.087  0.00  0.00    -0.250 OA
BRANCH   9  11
ATOM     11  O   LIG    1       26.860 -13.580   1.907  0.00  0.00    -0.480 OA
ATOM     12  H   LIG    1       26.886 -14.325   1.277  0.00  0.00    +0.295 HD
ENDBRANCH   9  11
ENDBRANCH   8   9
ENDBRANCH   1   8
BRANCH   3  13
ATOM     13  O   LIG    1       25.439 -19.321   3.500  0.00  0.00    -0.456 OA
BRANCH  13  14
ATOM     14  C   LIG    1       24.680 -19.879   4.512  0.00  0.00    +0.128 A 
ATOM     15  C   LIG    1       25.395 -20.466   5.563  0.00  0.00    +0.046 A 
ATOM     16  C   LIG    1       24.724 -21.020   6.659  0.00  0.00    +0.004 A 
ATOM     17  C   LIG    1       23.335 -20.950   6.735  0.00  0.00    +0.000 A 
ATOM     18  C   LIG    1       22.617 -20.344   5.703  0.00  0.00    +0.004 A 
ATOM     19  C   LIG    1       23.286 -19.817   4.591  0.00  0.00    +0.046 A 
ENDBRANCH  13  14
ENDBRANCH   3  13
TORSDOF 5
ENDMDL
MODEL 9
REMARK VINA RESULT:      -4.9      2.079      6.814
REMARK  Name = *****
REMARK                            x       y       z     vdW  Elec       q    Type
REMARK                         _______ _______ _______ _____ _____    ______ ____
ROOT
ATOM      1  C   LIG    1       23.466 -19.459   4.427  0.00  0.00    -0.030 A 
ATOM      2  C   LIG    1       24.497 -18.728   3.803  0.00  0.00    +0.050 A 
ATOM      3  C   LIG    1       24.426 -17.341   3.665  0.00  0.00    +0.129 A 
ATOM      4  C   LIG    1       23.261 -16.682   4.062  0.00  0.00    +0.046 A 
ATOM      5  C   LIG    1       22.225 -17.391   4.683  0.00  0.00    +0.004 A 
ATOM      6  C   LIG    1       22.341 -18.768   4.899  0.00  0.00    +0.005 A 
ENDROOT
BRANCH   1   8
ATOM      7  C   LIG    1       24.225 -21.572   3.313  0.00  0.00    +0.024 C 
ATOM      8  C   LIG    1       23.665 -20.958   4.598  0.00  0.00    +0.124 C 
BRANCH   8   9
ATOM      9  C   LIG    1       24.500 -21.385   5.802  0.00  0.00    +0.312 C 
ATOM     10  O   LIG    1       24.070 -21.508   6.934  0.00  0.00    -0.250 OA
BRANCH   9  11
ATOM     11  O   LIG    1       25.817 -21.551   5.525  0.00  0.00    -0.480 OA
ATOM     12  H   LIG    1       26.002 -22.246   4.865  0.00  0.00    +0.295 HD
ENDBRANCH   9  11
ENDBRANCH   8   9
ENDBRANCH   1   8
BRANCH   3  13
ATOM     13  O   LIG    1       25.407 -16.577   3.071  0.00  0.00    -0.456 OA
BRANCH  13  14
ATOM     14  C   LIG    1       25.852 -15.407   3.658  0.00  0.00    +0.128 A 
ATOM     15  C   LIG    1       27.239 -15.224   3.687  0.00  0.00    +0.046 A 
ATOM     16  C   LIG    1       27.793 -14.053   4.219  0.00  0.00    +0.004 A 
ATOM     17  C   LIG    1       26.961 -13.037   4.684  0.00  0.00    +0.000 A 
ATOM     18  C   LIG    1       25.577 -13.202   4.634  0.00  0.00    +0.004 A 
ATOM     19  C   LIG    1       25.022 -14.386   4.131  0.00  0.00    +0.046 A 
ENDBRANCH  13  14
ENDBRANCH   3  13
TORSDOF 5
ENDMDL
