MODEL 1
REMARK VINA RESULT:      -3.6      0.000      0.000
REMARK  Name = *****
REMARK                            x       y       z     vdW  Elec       q    Type
REMARK                         _______ _______ _______ _____ _____    ______ ____
ROOT
ATOM      1  C   LIG    1       26.462 -13.745   5.140  0.00  0.00    +0.170 C 
ENDROOT
BRANCH   1   2
ATOM      2  O   LIG    1       27.139 -13.467   6.372  0.00  0.00    -0.386 OA
ATOM      3  H   LIG    1       28.101 -13.457   6.201  0.00  0.00    +0.210 HD
ENDBRANCH   1   2
BRANCH   1   4
ATOM      4  C   LIG    1       25.839 -12.431   4.577  0.00  0.00    +0.164 C 
BRANCH   4   6
ATOM      5  C   LIG    1       24.210 -12.222   2.699  0.00  0.00    +0.192 C 
ATOM      6  N   LIG    1       24.333 -12.531   4.193  0.00  0.00    +0.239 N 
ATOM      7  C   LIG    1       23.801 -13.935   4.438  0.00  0.00    +0.192 C 
ATOM      8  C   LIG    1       23.490 -11.516   4.955  0.00  0.00    +0.192 C 
ENDBRANCH   4   6
ENDBRANCH   1   4
BRANCH   1   9
ATOM      9  C   LIG    1       27.488 -14.373   4.183  0.00  0.00    +0.157 C 
BRANCH   9  10
ATOM     10  C   LIG    1       26.839 -14.956   2.961  0.00  0.00    +0.307 C 
ATOM     11  O   LIG    1       26.802 -14.386   1.876  0.00  0.00    -0.251 OA
BRANCH  10  12
ATOM     12  O   LIG    1       26.316 -16.173   3.152  0.00  0.00    -0.480 OA
ATOM     13  H   LIG    1       25.390 -16.307   2.849  0.00  0.00    +0.295 HD
ENDBRANCH  10  12
ENDBRANCH   9  10
ENDBRANCH   1   9
TORSDOF 6
ENDMDL
MODEL 2
REMARK VINA RESULT:      -3.5      0.103      1.290
REMARK  Name = *****
REMARK                            x       y       z     vdW  Elec       q    Type
REMARK                         _______ _______ _______ _____ _____    ______ ____
ROOT
ATOM      1  C   LIG    1       26.529 -13.686   5.104  0.00  0.00    +0.170 C 
ENDROOT
BRANCH   1   2
ATOM      2  O   LIG    1       27.226 -13.413   6.326  0.00  0.00    -0.386 OA
ATOM      3  H   LIG    1       26.794 -13.910   7.047  0.00  0.00    +0.210 HD
ENDBRANCH   1   2
BRANCH   1   4
ATOM      4  C   LIG    1       25.828 -12.388   4.600  0.00  0.00    +0.164 C 
BRANCH   4   6
ATOM      5  C   LIG    1       23.488 -11.569   4.879  0.00  0.00    +0.192 C 
ATOM      6  N   LIG    1       24.356 -12.579   4.126  0.00  0.00    +0.239 N 
ATOM      7  C   LIG    1       24.225 -12.307   2.635  0.00  0.00    +0.192 C 
ATOM      8  C   LIG    1       23.839 -13.976   4.447  0.00  0.00    +0.192 C 
ENDBRANCH   4   6
ENDBRANCH   1   4
BRANCH   1   9
ATOM      9  C   LIG    1       27.558 -14.232   4.101  0.00  0.00    +0.157 C 
BRANCH   9  10
ATOM     10  C   LIG    1       26.904 -14.897   2.925  0.00  0.00    +0.307 C 
ATOM     11  O   LIG    1       26.829 -14.385   1.812  0.00  0.00    -0.251 OA
BRANCH  10  12
ATOM     12  O   LIG    1       26.423 -16.118   3.188  0.00  0.00    -0.480 OA
ATOM     13  H   LIG    1       26.971 -16.879   2.896  0.00  0.00    +0.295 HD
ENDBRANCH  10  12
ENDBRANCH   9  10
ENDBRANCH   1   9
TORSDOF 6
ENDMDL
MODEL 3
REMARK VINA RESULT:      -3.5      0.085      1.306
REMARK  Name = *****
REMARK                            x       y       z     vdW  Elec       q    Type
REMARK                         _______ _______ _______ _____ _____    ______ ____
ROOT
ATOM      1  C   LIG    1       26.457 -13.688   5.095  0.00  0.00    +0.170 C 
ENDROOT
BRANCH   1   2
ATOM      2  O   LIG    1       27.129 -13.458   6.340  0.00  0.00    -0.386 OA
ATOM      3  H   LIG    1       27.486 -14.309   6.662  0.00  0.00    +0.210 HD
ENDBRANCH   1   2
BRANCH   1   4
ATOM      4  C   LIG    1       25.832 -12.353   4.585  0.00  0.00    +0.164 C 
BRANCH   4   6
ATOM      5  C   LIG    1       23.853 -13.868   4.469  0.00  0.00    +0.192 C 
ATOM      6  N   LIG    1       24.339 -12.453   4.150  0.00  0.00    +0.239 N 
ATOM      7  C   LIG    1       23.480 -11.465   4.924  0.00  0.00    +0.192 C 
ATOM      8  C   LIG    1       24.174 -12.223   2.652  0.00  0.00    +0.192 C 
ENDBRANCH   4   6
ENDBRANCH   1   4
BRANCH   1   9
ATOM      9  C   LIG    1       27.489 -14.271   4.117  0.00  0.00    +0.157 C 
BRANCH   9  10
ATOM     10  C   LIG    1       26.840 -14.872   2.903  0.00  0.00    +0.307 C 
ATOM     11  O   LIG    1       26.792 -14.311   1.814  0.00  0.00    -0.251 OA
BRANCH  10  12
ATOM     12  O   LIG    1       26.333 -16.094   3.106  0.00  0.00    -0.480 OA
ATOM     13  H   LIG    1       26.894 -16.726   3.607  0.00  0.00    +0.295 HD
ENDBRANCH  10  12
ENDBRANCH   9  10
ENDBRANCH   1   9
TORSDOF 6
ENDMDL
MODEL 4
REMARK VINA RESULT:      -3.4      6.484      7.442
REMARK  Name = *****
REMARK                            x       y       z     vdW  Elec       q    Type
REMARK                         _______ _______ _______ _____ _____    ______ ____
ROOT
ATOM      1  C   LIG    1       25.618 -20.173   5.025  0.00  0.00    +0.170 C 
ENDROOT
BRANCH   1   2
ATOM      2  O   LIG    1       26.350 -20.155   3.793  0.00  0.00    -0.386 OA
ATOM      3  H   LIG    1       26.189 -20.998   3.324  0.00  0.00    +0.210 HD
ENDBRANCH   1   2
BRANCH   1   4
ATOM      4  C   LIG    1       24.400 -21.137   4.895  0.00  0.00    +0.164 C 
BRANCH   4   6
ATOM      5  C   LIG    1       21.953 -21.568   5.128  0.00  0.00    +0.192 C 
ATOM      6  N   LIG    1       23.080 -20.618   5.540  0.00  0.00    +0.239 N 
ATOM      7  C   LIG    1       23.178 -20.620   7.058  0.00  0.00    +0.192 C 
ATOM      8  C   LIG    1       22.724 -19.221   5.044  0.00  0.00    +0.192 C 
ENDBRANCH   4   6
ENDBRANCH   1   4
BRANCH   1   9
ATOM      9  C   LIG    1       26.595 -20.596   6.133  0.00  0.00    +0.157 C 
BRANCH   9  10
ATOM     10  C   LIG    1       27.988 -20.095   5.881  0.00  0.00    +0.307 C 
ATOM     11  O   LIG    1       28.996 -20.674   6.272  0.00  0.00    -0.251 OA
BRANCH  10  12
ATOM     12  O   LIG    1       28.039 -18.965   5.167  0.00  0.00    -0.480 OA
ATOM     13  H   LIG    1       27.235 -18.735   4.650  0.00  0.00    +0.295 HD
ENDBRANCH  10  12
ENDBRANCH   9  10
ENDBRANCH   1   9
TORSDOF 6
ENDMDL
MODEL 5
REMARK VINA RESULT:      -3.3      1.746      2.559
REMARK  Name = *****
REMARK                            x       y       z     vdW  Elec       q    Type
REMARK                         _______ _______ _______ _____ _____    ______ ____
ROOT
ATOM      1  C   LIG    1       26.482 -13.836   4.877  0.00  0.00    +0.170 C 
ENDROOT
BRANCH   1   2
ATOM      2  O   LIG    1       26.854 -13.674   6.251  0.00  0.00    -0.386 OA
ATOM      3  H   LIG    1       27.147 -12.752   6.387  0.00  0.00    +0.210 HD
ENDBRANCH   1   2
BRANCH   1   4
ATOM      4  C   LIG    1       25.782 -12.539   4.368  0.00  0.00    +0.164 C 
BRANCH   4   6
ATOM      5  C   LIG    1       23.852 -14.072   3.979  0.00  0.00    +0.192 C 
ATOM      6  N   LIG    1       24.512 -12.778   3.498  0.00  0.00    +0.239 N 
ATOM      7  C   LIG    1       23.516 -11.640   3.666  0.00  0.00    +0.192 C 
ATOM      8  C   LIG    1       24.864 -12.947   2.025  0.00  0.00    +0.192 C 
ENDBRANCH   4   6
ENDBRANCH   1   4
BRANCH   1   9
ATOM      9  C   LIG    1       27.760 -14.168   4.091  0.00  0.00    +0.157 C 
BRANCH   9  10
ATOM     10  C   LIG    1       28.723 -13.015   4.066  0.00  0.00    +0.307 C 
ATOM     11  O   LIG    1       28.833 -12.205   4.980  0.00  0.00    -0.251 OA
BRANCH  10  12
ATOM     12  O   LIG    1       29.475 -12.958   2.960  0.00  0.00    -0.480 OA
ATOM     13  H   LIG    1       30.307 -13.481   2.967  0.00  0.00    +0.295 HD
ENDBRANCH  10  12
ENDBRANCH   9  10
ENDBRANCH   1   9
TORSDOF 6
ENDMDL
MODEL 6
REMARK VINA RESULT:      -3.1      2.484      4.286
REMARK  Name = *****
REMARK                            x       y       z     vdW  Elec       q    Type
REMARK                         _______ _______ _______ _____ _____    ______ ____
ROOT
ATOM      1  C   LIG    1       25.042 -13.919   3.016  0.00  0.00    +0.170 C 
ENDROOT
BRANCH   1   2
ATOM      2  O   LIG    1       24.320 -13.548   1.835  0.00  0.00    -0.386 OA
ATOM      3  H   LIG    1       24.927 -13.602   1.070  0.00  0.00    +0.210 HD
ENDBRANCH   1   2
BRANCH   1   4
ATOM      4  C   LIG    1       26.422 -13.194   3.033  0.00  0.00    +0.164 C 
BRANCH   4   6
ATOM      5  C   LIG    1       28.827 -13.184   3.700  0.00  0.00    +0.192 C 
ATOM      6  N   LIG    1       27.458 -13.782   4.038  0.00  0.00    +0.239 N 
ATOM      7  C   LIG    1       27.107 -13.398   5.467  0.00  0.00    +0.192 C 
ATOM      8  C   LIG    1       27.563 -15.297   3.916  0.00  0.00    +0.192 C 
ENDBRANCH   4   6
ENDBRANCH   1   4
BRANCH   1   9
ATOM      9  C   LIG    1       24.164 -13.552   4.223  0.00  0.00    +0.157 C 
BRANCH   9  10
ATOM     10  C   LIG    1       23.825 -12.090   4.253  0.00  0.00    +0.307 C 
ATOM     11  O   LIG    1       23.511 -11.447   3.256  0.00  0.00    -0.251 OA
BRANCH  10  12
ATOM     12  O   LIG    1       23.873 -11.545   5.474  0.00  0.00    -0.480 OA
ATOM     13  H   LIG    1       24.762 -11.470   5.887  0.00  0.00    +0.295 HD
ENDBRANCH  10  12
ENDBRANCH   9  10
ENDBRANCH   1   9
TORSDOF 6
ENDMDL
MODEL 7
REMARK VINA RESULT:      -3.1      2.474      4.139
REMARK  Name = *****
REMARK                            x       y       z     vdW  Elec       q    Type
REMARK                         _______ _______ _______ _____ _____    ______ ____
ROOT
ATOM      1  C   LIG    1       24.093 -14.374   4.118  0.00  0.00    +0.170 C 
ENDROOT
BRANCH   1   2
ATOM      2  O   LIG    1       23.076 -15.297   4.525  0.00  0.00    -0.386 OA
ATOM      3  H   LIG    1       22.457 -15.427   3.780  0.00  0.00    +0.210 HD
ENDBRANCH   1   2
BRANCH   1   4
ATOM      4  C   LIG    1       25.363 -15.159   3.670  0.00  0.00    +0.164 C 
BRANCH   4   6
ATOM      5  C   LIG    1       27.780 -15.477   4.200  0.00  0.00    +0.192 C 
ATOM      6  N   LIG    1       26.712 -14.419   3.916  0.00  0.00    +0.239 N 
ATOM      7  C   LIG    1       27.133 -13.632   2.684  0.00  0.00    +0.192 C 
ATOM      8  C   LIG    1       26.633 -13.493   5.123  0.00  0.00    +0.192 C 
ENDBRANCH   4   6
ENDBRANCH   1   4
BRANCH   1   9
ATOM      9  C   LIG    1       23.503 -13.508   2.994  0.00  0.00    +0.157 C 
BRANCH   9  10
ATOM     10  C   LIG    1       23.836 -12.054   3.165  0.00  0.00    +0.307 C 
ATOM     11  O   LIG    1       23.773 -11.467   4.241  0.00  0.00    -0.251 OA
BRANCH  10  12
ATOM     12  O   LIG    1       24.234 -11.450   2.039  0.00  0.00    -0.480 OA
ATOM     13  H   LIG    1       24.455 -12.036   1.281  0.00  0.00    +0.295 HD
ENDBRANCH  10  12
ENDBRANCH   9  10
ENDBRANCH   1   9
TORSDOF 6
ENDMDL
MODEL 8
REMARK VINA RESULT:      -2.8      2.686      3.792
REMARK  Name = *****
REMARK                            x       y       z     vdW  Elec       q    Type
REMARK                         _______ _______ _______ _____ _____    ______ ____
ROOT
ATOM      1  C   LIG    1       26.495 -16.824   3.786  0.00  0.00    +0.170 C 
ENDROOT
BRANCH   1   2
ATOM      2  O   LIG    1       27.823 -17.313   4.009  0.00  0.00    -0.386 OA
ATOM      3  H   LIG    1       27.915 -18.177   3.563  0.00  0.00    +0.210 HD
ENDBRANCH   1   2
BRANCH   1   4
ATOM      4  C   LIG    1       26.558 -15.482   2.995  0.00  0.00    +0.164 C 
BRANCH   4   6
ATOM      5  C   LIG    1       25.764 -13.140   2.663  0.00  0.00    +0.192 C 
ATOM      6  N   LIG    1       25.839 -14.281   3.680  0.00  0.00    +0.239 N 
ATOM      7  C   LIG    1       24.422 -14.656   4.086  0.00  0.00    +0.192 C 
ATOM      8  C   LIG    1       26.614 -13.781   4.894  0.00  0.00    +0.192 C 
ENDBRANCH   4   6
ENDBRANCH   1   4
BRANCH   1   9
ATOM      9  C   LIG    1       25.722 -17.919   3.035  0.00  0.00    +0.157 C 
BRANCH   9  10
ATOM     10  C   LIG    1       25.427 -19.104   3.910  0.00  0.00    +0.307 C 
ATOM     11  O   LIG    1       24.295 -19.426   4.254  0.00  0.00    -0.251 OA
BRANCH  10  12
ATOM     12  O   LIG    1       26.513 -19.800   4.268  0.00  0.00    -0.480 OA
ATOM     13  H   LIG    1       26.502 -20.763   4.074  0.00  0.00    +0.295 HD
ENDBRANCH  10  12
ENDBRANCH   9  10
ENDBRANCH   1   9
TORSDOF 6
ENDMDL
MODEL 9
REMARK VINA RESULT:      -2.8      6.566      7.567
REMARK  Name = *****
REMARK                            x       y       z     vdW  Elec       q    Type
REMARK                         _______ _______ _______ _____ _____    ______ ____
ROOT
ATOM      1  C   LIG    1       25.753 -20.258   5.296  0.00  0.00    +0.170 C 
ENDROOT
BRANCH   1   2
ATOM      2  O   LIG    1       26.464 -20.088   4.064  0.00  0.00    -0.386 OA
ATOM      3  H   LIG    1       26.353 -19.164   3.767  0.00  0.00    +0.210 HD
ENDBRANCH   1   2
BRANCH   1   4
ATOM      4  C   LIG    1       24.541 -21.214   5.073  0.00  0.00    +0.164 C 
BRANCH   4   6
ATOM      5  C   LIG    1       23.160 -20.439   7.000  0.00  0.00    +0.192 C 
ATOM      6  N   LIG    1       23.158 -20.626   5.481  0.00  0.00    +0.239 N 
ATOM      7  C   LIG    1       22.930 -19.270   4.831  0.00  0.00    +0.192 C 
ATOM      8  C   LIG    1       22.018 -21.572   5.125  0.00  0.00    +0.192 C 
ENDBRANCH   4   6
ENDBRANCH   1   4
BRANCH   1   9
ATOM      9  C   LIG    1       26.752 -20.798   6.332  0.00  0.00    +0.157 C 
BRANCH   9  10
ATOM     10  C   LIG    1       28.147 -20.301   6.085  0.00  0.00    +0.307 C 
ATOM     11  O   LIG    1       28.403 -19.160   5.712  0.00  0.00    -0.251 OA
BRANCH  10  12
ATOM     12  O   LIG    1       29.099 -21.209   6.330  0.00  0.00    -0.480 OA
ATOM     13  H   LIG    1       28.986 -22.089   5.909  0.00  0.00    +0.295 HD
ENDBRANCH  10  12
ENDBRANCH   9  10
ENDBRANCH   1   9
TORSDOF 6
ENDMDL
