MODEL 1
REMARK VINA RESULT:       3.3      0.000      0.000
REMARK  Name = *****
REMARK                            x       y       z     vdW  Elec       q    Type
REMARK                         _______ _______ _______ _____ _____    ______ ____
ROOT
ATOM      1  N   LIG    1       27.088 -14.523   3.532  0.00  0.00    +0.251 N 
ATOM      2  C   LIG    1       25.930 -14.582   2.478  0.00  0.00    +0.162 C 
ATOM      3  C   LIG    1       25.137 -13.270   2.387  0.00  0.00    +0.210 C 
ATOM      4  O   LIG    1       26.003 -12.180   2.078  0.00  0.00    -0.369 OA
ATOM      5  C   LIG    1       26.964 -11.980   3.115  0.00  0.00    +0.210 C 
ATOM      6  C   LIG    1       27.868 -13.210   3.306  0.00  0.00    +0.162 C 
ENDROOT
BRANCH   1   7
ATOM      7  C   LIG    1       28.067 -15.758   3.334  0.00  0.00    +0.171 C 
BRANCH   7  11
ATOM      8  C   LIG    1       27.398 -19.515   5.507  0.00  0.00    +0.163 A 
ATOM      9  C   LIG    1       28.525 -18.710   5.805  0.00  0.00    +0.162 A 
ATOM     10  C   LIG    1       28.679 -17.498   5.107  0.00  0.00    +0.059 A 
ATOM     11  C   LIG    1       27.803 -17.067   4.076  0.00  0.00    +0.015 A 
ATOM     12  C   LIG    1       26.665 -17.874   3.850  0.00  0.00    +0.030 A 
ATOM     13 BR   LIG    1       25.262 -17.387   2.666  0.00  0.00    -0.050 Br
ATOM     14  C   LIG    1       26.490 -19.070   4.542  0.00  0.00    +0.065 A 
BRANCH   8  16
ATOM     15  C   LIG    1       26.075 -20.851   6.965  0.00  0.00    +0.277 C 
ATOM     16  O   LIG    1       27.087 -20.751   5.980  0.00  0.00    -0.491 OA
ENDBRANCH   8  16
BRANCH   9  17
ATOM     17  O   LIG    1       29.409 -19.131   6.760  0.00  0.00    -0.491 OA
ATOM     18  C   LIG    1       29.475 -20.533   7.062  0.00  0.00    +0.277 C 
ENDBRANCH   9  17
ENDBRANCH   7  11
ENDBRANCH   1   7
BRANCH   1  19
ATOM     19  C   LIG    1       26.391 -14.620   4.935  0.00  0.00    +0.162 C 
BRANCH  19  20
ATOM     20  C   LIG    1       24.854 -14.505   5.019  0.00  0.00    +0.210 C 
BRANCH  20  21
ATOM     21  O   LIG    1       24.163 -15.620   4.445  0.00  0.00    -0.374 OA
BRANCH  21  22
ATOM     22  C   LIG    1       22.749 -15.557   4.751  0.00  0.00    +0.160 C 
BRANCH  22  23
ATOM     23  C   LIG    1       22.288 -16.876   5.381  0.00  0.00    +0.032 C 
BRANCH  23  24
ATOM     24  C   LIG    1       22.259 -18.130   4.467  0.00  0.00    -0.005 C 
ATOM     25  C   LIG    1       23.161 -19.269   4.982  0.00  0.00    -0.002 C 
ATOM     26  C   LIG    1       23.339 -20.485   3.956  0.00  0.00    -0.029 C 
ATOM     27  C   LIG    1       21.937 -20.929   4.533  0.00  0.00    -0.005 C 
ATOM     28  C   LIG    1       20.736 -20.179   3.937  0.00  0.00    +0.004 C 
ATOM     29  C   LIG    1       24.542 -21.396   4.274  0.00  0.00    +0.011 C 
ATOM     30  C   LIG    1       23.354 -20.237   2.442  0.00  0.00    +0.011 C 
ATOM     31  C   LIG    1       22.381 -20.287   5.877  0.00  0.00    +0.008 C 
ATOM     32  C   LIG    1       20.830 -18.663   4.203  0.00  0.00    +0.004 C 
ENDBRANCH  23  24
ENDBRANCH  22  23
ENDBRANCH  21  22
ENDBRANCH  20  21
ENDBRANCH  19  20
ENDBRANCH   1  19
TORSDOF 10
ENDMDL
MODEL 2
REMARK VINA RESULT:       3.5      2.112      5.120
REMARK  Name = *****
REMARK                            x       y       z     vdW  Elec       q    Type
REMARK                         _______ _______ _______ _____ _____    ______ ____
ROOT
ATOM      1  N   LIG    1       26.729 -13.724   3.413  0.00  0.00    +0.251 N 
ATOM      2  C   LIG    1       26.971 -13.668   4.959  0.00  0.00    +0.162 C 
ATOM      3  C   LIG    1       28.457 -13.545   5.328  0.00  0.00    +0.210 C 
ATOM      4  O   LIG    1       29.032 -12.391   4.717  0.00  0.00    -0.369 OA
ATOM      5  C   LIG    1       28.993 -12.492   3.293  0.00  0.00    +0.210 C 
ATOM      6  C   LIG    1       27.553 -12.591   2.762  0.00  0.00    +0.162 C 
ENDROOT
BRANCH   1   7
ATOM      7  C   LIG    1       25.188 -13.504   3.095  0.00  0.00    +0.171 C 
BRANCH   7  11
ATOM      8  C   LIG    1       22.133 -15.300   5.688  0.00  0.00    +0.163 A 
ATOM      9  C   LIG    1       22.755 -16.075   4.678  0.00  0.00    +0.162 A 
ATOM     10  C   LIG    1       23.752 -15.466   3.894  0.00  0.00    +0.059 A 
ATOM     11  C   LIG    1       24.127 -14.102   4.017  0.00  0.00    +0.015 A 
ATOM     12  C   LIG    1       23.519 -13.384   5.072  0.00  0.00    +0.030 A 
ATOM     13 BR   LIG    1       24.016 -11.614   5.548  0.00  0.00    -0.050 Br
ATOM     14  C   LIG    1       22.540 -13.975   5.866  0.00  0.00    +0.065 A 
BRANCH   8  16
ATOM     15  C   LIG    1       20.319 -14.594   7.055  0.00  0.00    +0.277 C 
ATOM     16  O   LIG    1       21.097 -15.638   6.501  0.00  0.00    -0.491 OA
ENDBRANCH   8  16
BRANCH   9  17
ATOM     17  O   LIG    1       22.374 -17.377   4.508  0.00  0.00    -0.491 OA
ATOM     18  C   LIG    1       21.205 -17.652   3.721  0.00  0.00    +0.277 C 
ENDBRANCH   9  17
ENDBRANCH   7  11
ENDBRANCH   1   7
BRANCH   1  19
ATOM     19  C   LIG    1       27.161 -15.166   2.965  0.00  0.00    +0.162 C 
BRANCH  19  20
ATOM     20  C   LIG    1       27.111 -16.316   3.993  0.00  0.00    +0.210 C 
BRANCH  20  21
ATOM     21  O   LIG    1       28.389 -16.905   4.256  0.00  0.00    -0.374 OA
BRANCH  21  22
ATOM     22  C   LIG    1       28.246 -18.087   5.082  0.00  0.00    +0.160 C 
BRANCH  22  23
ATOM     23  C   LIG    1       27.180 -19.017   4.491  0.00  0.00    +0.032 C 
BRANCH  23  24
ATOM     24  C   LIG    1       26.022 -19.456   5.426  0.00  0.00    -0.005 C 
ATOM     25  C   LIG    1       24.788 -19.964   4.653  0.00  0.00    -0.002 C 
ATOM     26  C   LIG    1       23.494 -20.209   5.563  0.00  0.00    -0.029 C 
ATOM     27  C   LIG    1       24.220 -21.572   5.897  0.00  0.00    -0.005 C 
ATOM     28  C   LIG    1       25.335 -21.460   6.946  0.00  0.00    +0.004 C 
ATOM     29  C   LIG    1       22.179 -20.298   4.763  0.00  0.00    +0.011 C 
ATOM     30  C   LIG    1       23.215 -19.321   6.783  0.00  0.00    +0.011 C 
ATOM     31  C   LIG    1       24.804 -21.515   4.457  0.00  0.00    +0.008 C 
ATOM     32  C   LIG    1       26.451 -20.501   6.484  0.00  0.00    +0.004 C 
ENDBRANCH  23  24
ENDBRANCH  22  23
ENDBRANCH  21  22
ENDBRANCH  20  21
ENDBRANCH  19  20
ENDBRANCH   1  19
TORSDOF 10
ENDMDL
MODEL 3
REMARK VINA RESULT:       3.7      2.031      5.971
REMARK  Name = *****
REMARK                            x       y       z     vdW  Elec       q    Type
REMARK                         _______ _______ _______ _____ _____    ______ ____
ROOT
ATOM      1  N   LIG    1       23.476 -18.229   3.480  0.00  0.00    +0.251 N 
ATOM      2  C   LIG    1       23.279 -18.219   5.034  0.00  0.00    +0.162 C 
ATOM      3  C   LIG    1       21.819 -17.982   5.449  0.00  0.00    +0.210 C 
ATOM      4  O   LIG    1       20.966 -18.968   4.870  0.00  0.00    -0.369 OA
ATOM      5  C   LIG    1       20.981 -18.885   3.445  0.00  0.00    +0.210 C 
ATOM      6  C   LIG    1       22.385 -19.135   2.869  0.00  0.00    +0.162 C 
ENDROOT
BRANCH   1   7
ATOM      7  C   LIG    1       24.909 -18.812   3.118  0.00  0.00    +0.171 C 
BRANCH   7  11
ATOM      8  C   LIG    1       27.378 -20.768   6.177  0.00  0.00    +0.163 A 
ATOM      9  C   LIG    1       27.856 -19.616   5.506  0.00  0.00    +0.162 A 
ATOM     10  C   LIG    1       27.015 -19.003   4.558  0.00  0.00    +0.059 A 
ATOM     11  C   LIG    1       25.741 -19.511   4.191  0.00  0.00    +0.015 A 
ATOM     12  C   LIG    1       25.285 -20.630   4.924  0.00  0.00    +0.030 A 
ATOM     13 BR   LIG    1       23.536 -21.349   4.743  0.00  0.00    -0.050 Br
ATOM     14  C   LIG    1       26.098 -21.240   5.875  0.00  0.00    +0.065 A 
BRANCH   8  16
ATOM     15  C   LIG    1       29.448 -21.557   7.044  0.00  0.00    +0.277 C 
ATOM     16  O   LIG    1       28.033 -21.572   7.056  0.00  0.00    -0.491 OA
ENDBRANCH   8  16
BRANCH   9  17
ATOM     17  O   LIG    1       29.101 -19.137   5.808  0.00  0.00    -0.491 OA
ATOM     18  C   LIG    1       29.396 -17.764   5.515  0.00  0.00    +0.277 C 
ENDBRANCH   9  17
ENDBRANCH   7  11
ENDBRANCH   1   7
BRANCH   1  19
ATOM     19  C   LIG    1       23.387 -16.727   3.029  0.00  0.00    +0.162 C 
BRANCH  19  20
ATOM     20  C   LIG    1       23.354 -15.623   4.106  0.00  0.00    +0.210 C 
BRANCH  20  21
ATOM     21  O   LIG    1       23.072 -14.320   3.583  0.00  0.00    -0.374 OA
BRANCH  21  22
ATOM     22  C   LIG    1       23.466 -13.295   4.526  0.00  0.00    +0.160 C 
BRANCH  22  23
ATOM     23  C   LIG    1       24.320 -12.232   3.823  0.00  0.00    +0.032 C 
BRANCH  23  24
ATOM     24  C   LIG    1       25.798 -12.595   3.517  0.00  0.00    -0.005 C 
ATOM     25  C   LIG    1       26.692 -12.575   4.773  0.00  0.00    -0.002 C 
ATOM     26  C   LIG    1       28.257 -12.716   4.470  0.00  0.00    -0.029 C 
ATOM     27  C   LIG    1       27.908 -14.254   4.376  0.00  0.00    -0.005 C 
ATOM     28  C   LIG    1       27.282 -14.685   3.042  0.00  0.00    +0.004 C 
ATOM     29  C   LIG    1       29.160 -12.278   5.641  0.00  0.00    +0.011 C 
ATOM     30  C   LIG    1       28.865 -12.123   3.192  0.00  0.00    +0.011 C 
ATOM     31  C   LIG    1       26.810 -13.983   5.442  0.00  0.00    +0.008 C 
ATOM     32  C   LIG    1       25.956 -13.944   2.775  0.00  0.00    +0.004 C 
ENDBRANCH  23  24
ENDBRANCH  22  23
ENDBRANCH  21  22
ENDBRANCH  20  21
ENDBRANCH  19  20
ENDBRANCH   1  19
TORSDOF 10
ENDMDL
MODEL 4
REMARK VINA RESULT:       5.2      1.905      5.742
REMARK  Name = *****
REMARK                            x       y       z     vdW  Elec       q    Type
REMARK                         _______ _______ _______ _____ _____    ______ ____
ROOT
ATOM      1  N   LIG    1       26.603 -19.690   4.389  0.00  0.00    +0.251 N 
ATOM      2  C   LIG    1       25.979 -19.207   5.743  0.00  0.00    +0.162 C 
ATOM      3  C   LIG    1       26.378 -20.092   6.934  0.00  0.00    +0.210 C 
ATOM      4  O   LIG    1       27.797 -20.152   7.062  0.00  0.00    -0.369 OA
ATOM      5  C   LIG    1       28.389 -20.760   5.913  0.00  0.00    +0.210 C 
ATOM      6  C   LIG    1       28.104 -19.962   4.629  0.00  0.00    +0.162 C 
ENDROOT
BRANCH   1   7
ATOM      7  C   LIG    1       26.442 -18.561   3.283  0.00  0.00    +0.171 C 
BRANCH   7  11
ATOM      8  C   LIG    1       27.150 -14.337   4.251  0.00  0.00    +0.163 A 
ATOM      9  C   LIG    1       25.959 -14.726   3.589  0.00  0.00    +0.162 A 
ATOM     10  C   LIG    1       25.761 -16.095   3.330  0.00  0.00    +0.059 A 
ATOM     11  C   LIG    1       26.714 -17.101   3.639  0.00  0.00    +0.015 A 
ATOM     12  C   LIG    1       27.861 -16.673   4.345  0.00  0.00    +0.030 A 
ATOM     13 BR   LIG    1       29.166 -17.869   5.035  0.00  0.00    -0.050 Br
ATOM     14  C   LIG    1       28.067 -15.323   4.621  0.00  0.00    +0.065 A 
BRANCH   8  16
ATOM     15  C   LIG    1       28.844 -12.688   3.983  0.00  0.00    +0.277 C 
ATOM     16  O   LIG    1       27.598 -13.083   4.526  0.00  0.00    -0.491 OA
ENDBRANCH   8  16
BRANCH   9  17
ATOM     17  O   LIG    1       25.048 -13.768   3.237  0.00  0.00    -0.491 OA
ATOM     18  C   LIG    1       25.283 -13.007   2.043  0.00  0.00    +0.277 C 
ENDBRANCH   9  17
ENDBRANCH   7  11
ENDBRANCH   1   7
BRANCH   1  19
ATOM     19  C   LIG    1       25.781 -20.961   3.971  0.00  0.00    +0.162 C 
BRANCH  19  20
ATOM     20  C   LIG    1       24.490 -20.780   3.145  0.00  0.00    +0.210 C 
BRANCH  20  21
ATOM     21  O   LIG    1       23.304 -21.181   3.840  0.00  0.00    -0.374 OA
BRANCH  21  22
ATOM     22  C   LIG    1       23.616 -21.572   5.199  0.00  0.00    +0.160 C 
BRANCH  22  23
ATOM     23  C   LIG    1       22.918 -20.634   6.191  0.00  0.00    +0.032 C 
BRANCH  23  24
ATOM     24  C   LIG    1       22.068 -19.477   5.599  0.00  0.00    -0.005 C 
ATOM     25  C   LIG    1       22.928 -18.310   5.076  0.00  0.00    -0.002 C 
ATOM     26  C   LIG    1       22.093 -17.005   4.671  0.00  0.00    -0.029 C 
ATOM     27  C   LIG    1       21.841 -17.812   3.336  0.00  0.00    -0.005 C 
ATOM     28  C   LIG    1       20.743 -18.881   3.435  0.00  0.00    +0.004 C 
ATOM     29  C   LIG    1       22.949 -15.727   4.560  0.00  0.00    +0.011 C 
ATOM     30  C   LIG    1       20.817 -16.623   5.433  0.00  0.00    +0.011 C 
ATOM     31  C   LIG    1       23.247 -18.441   3.551  0.00  0.00    +0.008 C 
ATOM     32  C   LIG    1       21.081 -19.942   4.501  0.00  0.00    +0.004 C 
ENDBRANCH  23  24
ENDBRANCH  22  23
ENDBRANCH  21  22
ENDBRANCH  20  21
ENDBRANCH  19  20
ENDBRANCH   1  19
TORSDOF 10
ENDMDL
MODEL 5
REMARK VINA RESULT:       5.8      2.567      6.532
REMARK  Name = *****
REMARK                            x       y       z     vdW  Elec       q    Type
REMARK                         _______ _______ _______ _____ _____    ______ ____
ROOT
ATOM      1  N   LIG    1       23.260 -20.548   4.845  0.00  0.00    +0.251 N 
ATOM      2  C   LIG    1       22.241 -21.567   5.459  0.00  0.00    +0.162 C 
ATOM      3  C   LIG    1       20.787 -21.275   5.056  0.00  0.00    +0.210 C 
ATOM      4  O   LIG    1       20.652 -21.268   3.637  0.00  0.00    -0.369 OA
ATOM      5  C   LIG    1       21.432 -20.224   3.053  0.00  0.00    +0.210 C 
ATOM      6  C   LIG    1       22.933 -20.397   3.343  0.00  0.00    +0.162 C 
ENDROOT
BRANCH   1   7
ATOM      7  C   LIG    1       24.742 -21.096   5.009  0.00  0.00    +0.171 C 
BRANCH   7  11
ATOM      8  C   LIG    1       28.104 -18.293   4.660  0.00  0.00    +0.163 A 
ATOM      9  C   LIG    1       26.933 -18.100   3.887  0.00  0.00    +0.162 A 
ATOM     10  C   LIG    1       25.868 -19.005   4.057  0.00  0.00    +0.059 A 
ATOM     11  C   LIG    1       25.925 -20.135   4.915  0.00  0.00    +0.015 A 
ATOM     12  C   LIG    1       27.091 -20.256   5.705  0.00  0.00    +0.030 A 
ATOM     13 BR   LIG    1       27.297 -21.570   7.061  0.00  0.00    -0.050 Br
ATOM     14  C   LIG    1       28.149 -19.362   5.558  0.00  0.00    +0.065 A 
BRANCH   8  16
ATOM     15  C   LIG    1       29.267 -16.237   4.942  0.00  0.00    +0.277 C 
ATOM     16  O   LIG    1       29.279 -17.612   4.606  0.00  0.00    -0.491 OA
ENDBRANCH   8  16
BRANCH   9  17
ATOM     17  O   LIG    1       26.875 -17.046   3.017  0.00  0.00    -0.491 OA
ATOM     18  C   LIG    1       25.974 -15.967   3.309  0.00  0.00    +0.277 C 
ENDBRANCH   9  17
ENDBRANCH   7  11
ENDBRANCH   1   7
BRANCH   1  19
ATOM     19  C   LIG    1       23.091 -19.225   5.673  0.00  0.00    +0.162 C 
BRANCH  19  20
ATOM     20  C   LIG    1       22.225 -18.085   5.097  0.00  0.00    +0.210 C 
BRANCH  20  21
ATOM     21  O   LIG    1       22.910 -17.274   4.137  0.00  0.00    -0.374 OA
BRANCH  21  22
ATOM     22  C   LIG    1       22.421 -15.911   4.177  0.00  0.00    +0.160 C 
BRANCH  22  23
ATOM     23  C   LIG    1       22.943 -15.201   5.432  0.00  0.00    +0.032 C 
BRANCH  23  24
ATOM     24  C   LIG    1       23.911 -14.006   5.221  0.00  0.00    -0.005 C 
ATOM     25  C   LIG    1       24.548 -13.991   3.818  0.00  0.00    -0.002 C 
ATOM     26  C   LIG    1       25.720 -12.916   3.637  0.00  0.00    -0.029 C 
ATOM     27  C   LIG    1       24.515 -11.916   3.429  0.00  0.00    -0.005 C 
ATOM     28  C   LIG    1       23.845 -11.447   4.728  0.00  0.00    +0.004 C 
ATOM     29  C   LIG    1       26.624 -13.180   2.415  0.00  0.00    +0.011 C 
ATOM     30  C   LIG    1       26.646 -12.561   4.808  0.00  0.00    +0.011 C 
ATOM     31  C   LIG    1       23.741 -13.113   2.807  0.00  0.00    +0.008 C 
ATOM     32  C   LIG    1       23.265 -12.633   5.525  0.00  0.00    +0.004 C 
ENDBRANCH  23  24
ENDBRANCH  22  23
ENDBRANCH  21  22
ENDBRANCH  20  21
ENDBRANCH  19  20
ENDBRANCH   1  19
TORSDOF 10
ENDMDL
MODEL 6
REMARK VINA RESULT:       6.3      2.256      5.403
REMARK  Name = *****
REMARK                            x       y       z     vdW  Elec       q    Type
REMARK                         _______ _______ _______ _____ _____    ______ ____
ROOT
ATOM      1  N   LIG    1       26.892 -13.605   3.589  0.00  0.00    +0.251 N 
ATOM      2  C   LIG    1       26.999 -13.418   5.141  0.00  0.00    +0.162 C 
ATOM      3  C   LIG    1       28.442 -13.197   5.618  0.00  0.00    +0.210 C 
ATOM      4  O   LIG    1       29.019 -12.068   4.965  0.00  0.00    -0.369 OA
ATOM      5  C   LIG    1       29.106 -12.280   3.556  0.00  0.00    +0.210 C 
ATOM      6  C   LIG    1       27.721 -12.487   2.919  0.00  0.00    +0.162 C 
ENDROOT
BRANCH   1   7
ATOM      7  C   LIG    1       25.376 -13.483   3.130  0.00  0.00    +0.171 C 
BRANCH   7  11
ATOM      8  C   LIG    1       22.167 -13.857   6.105  0.00  0.00    +0.163 A 
ATOM      9  C   LIG    1       22.747 -12.593   5.837  0.00  0.00    +0.162 A 
ATOM     10  C   LIG    1       23.748 -12.516   4.851  0.00  0.00    +0.059 A 
ATOM     11  C   LIG    1       24.254 -13.644   4.154  0.00  0.00    +0.015 A 
ATOM     12  C   LIG    1       23.610 -14.875   4.415  0.00  0.00    +0.030 A 
ATOM     13 BR   LIG    1       23.984 -16.471   3.454  0.00  0.00    -0.050 Br
ATOM     14  C   LIG    1       22.608 -14.966   5.378  0.00  0.00    +0.065 A 
BRANCH   8  16
ATOM     15  C   LIG    1       20.435 -15.319   6.829  0.00  0.00    +0.277 C 
ATOM     16  O   LIG    1       21.259 -14.191   7.060  0.00  0.00    -0.491 OA
ENDBRANCH   8  16
BRANCH   9  17
ATOM     17  O   LIG    1       22.309 -11.499   6.533  0.00  0.00    -0.491 OA
ATOM     18  C   LIG    1       20.931 -11.448   6.930  0.00  0.00    +0.277 C 
ENDBRANCH   9  17
ENDBRANCH   7  11
ENDBRANCH   1   7
BRANCH   1  19
ATOM     19  C   LIG    1       27.418 -15.055   3.297  0.00  0.00    +0.162 C 
BRANCH  19  20
ATOM     20  C   LIG    1       27.212 -16.155   4.359  0.00  0.00    +0.210 C 
BRANCH  20  21
ATOM     21  O   LIG    1       27.260 -17.483   3.827  0.00  0.00    -0.374 OA
BRANCH  21  22
ATOM     22  C   LIG    1       27.841 -18.398   4.788  0.00  0.00    +0.160 C 
BRANCH  22  23
ATOM     23  C   LIG    1       27.109 -19.745   4.742  0.00  0.00    +0.032 C 
BRANCH  23  24
ATOM     24  C   LIG    1       25.711 -19.817   5.412  0.00  0.00    -0.005 C 
ATOM     25  C   LIG    1       24.573 -20.054   4.399  0.00  0.00    -0.002 C 
ATOM     26  C   LIG    1       23.102 -19.907   5.013  0.00  0.00    -0.029 C 
ATOM     27  C   LIG    1       23.368 -21.382   5.514  0.00  0.00    -0.005 C 
ATOM     28  C   LIG    1       24.236 -21.478   6.777  0.00  0.00    +0.004 C 
ATOM     29  C   LIG    1       21.999 -19.722   3.951  0.00  0.00    +0.011 C 
ATOM     30  C   LIG    1       22.817 -18.897   6.133  0.00  0.00    +0.011 C 
ATOM     31  C   LIG    1       24.229 -21.571   4.234  0.00  0.00    +0.008 C 
ATOM     32  C   LIG    1       25.631 -20.861   6.552  0.00  0.00    +0.004 C 
ENDBRANCH  23  24
ENDBRANCH  22  23
ENDBRANCH  21  22
ENDBRANCH  20  21
ENDBRANCH  19  20
ENDBRANCH   1  19
TORSDOF 10
ENDMDL
