MODEL 1
REMARK VINA RESULT:       0.7      0.000      0.000
REMARK  Name = *****
REMARK                            x       y       z     vdW  Elec       q    Type
REMARK                         _______ _______ _______ _____ _____    ______ ____
ROOT
ATOM      1  N   LIG    1       26.242 -17.872   4.419  0.00  0.00    -0.301 N 
ATOM      2  H   LIG    1       25.295 -18.017   4.760  0.00  0.00    +0.150 HD
ATOM      3  C   LIG    1       27.253 -18.662   4.922  0.00  0.00    +0.232 C 
ATOM      4  O   LIG    1       28.397 -18.584   4.468  0.00  0.00    -0.275 OA
ENDROOT
BRANCH   1  10
ATOM      5  C   LIG    1       25.587 -13.990   5.953  0.00  0.00    +0.025 C 
ATOM      6  C   LIG    1       24.956 -13.867   4.555  0.00  0.00    +0.042 C 
ATOM      7  CA  LIG    1       26.048 -13.615   3.482  0.00  0.00    +0.201 C 
ATOM      8  N   LIG    1       26.387 -14.907   2.869  0.00  0.00    -0.271 N 
ATOM      9  C   LIG    1       25.361 -15.971   2.867  0.00  0.00    +0.165 C 
ATOM     10  CA  LIG    1       26.480 -16.978   3.244  0.00  0.00    +0.190 C 
ATOM     11  C   LIG    1       27.320 -15.703   3.487  0.00  0.00    +0.240 C 
ATOM     12  O   LIG    1       28.312 -15.399   4.111  0.00  0.00    -0.273 OA
ATOM     13  S   LIG    1       24.167 -15.504   4.162  0.00  0.00    -0.127 S 
ATOM     14  C   LIG    1       23.839 -12.821   4.620  0.00  0.00    +0.025 C 
BRANCH   7  15
ATOM     15  C   LIG    1       25.702 -12.602   2.386  0.00  0.00    +0.327 C 
ATOM     16  O   LIG    1       24.616 -12.534   1.826  0.00  0.00    -0.249 OA
BRANCH  15  17
ATOM     17  OXT LIG    1       26.700 -11.728   2.109  0.00  0.00    -0.479 OA
ATOM     18  HXT LIG    1       26.469 -10.832   2.427  0.00  0.00    +0.295 HD
ENDBRANCH  15  17
ENDBRANCH   7  15
ENDBRANCH   1  10
BRANCH   3  19
ATOM     19  C   LIG    1       26.922 -19.512   6.148  0.00  0.00    +0.213 C 
BRANCH  19  20
ATOM     20  C   LIG    1       25.604 -20.261   5.977  0.00  0.00    -0.025 A 
ATOM     21  C   LIG    1       25.236 -20.818   4.742  0.00  0.00    +0.005 A 
ATOM     22  C   LIG    1       24.010 -21.474   4.598  0.00  0.00    +0.000 A 
ATOM     23  C   LIG    1       23.128 -21.559   5.673  0.00  0.00    +0.000 A 
ATOM     24  C   LIG    1       23.480 -21.009   6.903  0.00  0.00    +0.000 A 
ATOM     25  C   LIG    1       24.720 -20.384   7.062  0.00  0.00    +0.005 A 
ENDBRANCH  19  20
BRANCH  19  26
ATOM     26  C   LIG    1       28.067 -20.413   6.619  0.00  0.00    +0.321 C 
ATOM     27  O   LIG    1       27.920 -21.572   6.987  0.00  0.00    -0.250 OA
BRANCH  26  28
ATOM     28  O   LIG    1       29.278 -19.812   6.741  0.00  0.00    -0.480 OA
ATOM     29  H   LIG    1       29.747 -20.002   7.585  0.00  0.00    +0.295 HD
ENDBRANCH  26  28
ENDBRANCH  19  26
ENDBRANCH   3  19
TORSDOF 7
ENDMDL
MODEL 2
REMARK VINA RESULT:       0.7      2.156      2.664
REMARK  Name = *****
REMARK                            x       y       z     vdW  Elec       q    Type
REMARK                         _______ _______ _______ _____ _____    ______ ____
ROOT
ATOM      1  N   LIG    1       25.085 -17.573   4.128  0.00  0.00    -0.301 N 
ATOM      2  H   LIG    1       24.423 -17.083   4.723  0.00  0.00    +0.150 HD
ATOM      3  C   LIG    1       25.036 -18.950   4.079  0.00  0.00    +0.232 C 
ATOM      4  O   LIG    1       25.757 -19.577   3.299  0.00  0.00    -0.275 OA
ENDROOT
BRANCH   1  10
ATOM      5  C   LIG    1       26.104 -14.074   6.266  0.00  0.00    +0.025 C 
ATOM      6  C   LIG    1       25.878 -13.505   4.855  0.00  0.00    +0.042 C 
ATOM      7  CA  LIG    1       27.133 -13.724   3.968  0.00  0.00    +0.201 C 
ATOM      8  N   LIG    1       26.917 -14.938   3.170  0.00  0.00    -0.271 N 
ATOM      9  C   LIG    1       25.526 -15.335   2.864  0.00  0.00    +0.165 C 
ATOM     10  CA  LIG    1       25.934 -16.801   3.168  0.00  0.00    +0.190 C 
ATOM     11  C   LIG    1       27.222 -16.154   3.728  0.00  0.00    +0.240 C 
ATOM     12  O   LIG    1       28.105 -16.458   4.500  0.00  0.00    -0.273 OA
ATOM     13  S   LIG    1       24.489 -14.471   4.088  0.00  0.00    -0.127 S 
ATOM     14  C   LIG    1       25.409 -12.051   4.990  0.00  0.00    +0.025 C 
BRANCH   7  15
ATOM     15  C   LIG    1       27.523 -12.564   3.045  0.00  0.00    +0.327 C 
ATOM     16  O   LIG    1       26.787 -12.079   2.197  0.00  0.00    -0.249 OA
BRANCH  15  17
ATOM     17  OXT LIG    1       28.762 -12.068   3.278  0.00  0.00    -0.479 OA
ATOM     18  HXT LIG    1       29.381 -12.789   3.512  0.00  0.00    +0.295 HD
ENDBRANCH  15  17
ENDBRANCH   7  15
ENDBRANCH   1  10
BRANCH   3  19
ATOM     19  C   LIG    1       24.170 -19.649   5.126  0.00  0.00    +0.213 C 
BRANCH  19  20
ATOM     20  C   LIG    1       22.710 -19.727   4.690  0.00  0.00    -0.025 A 
ATOM     21  C   LIG    1       21.978 -20.920   4.802  0.00  0.00    +0.005 A 
ATOM     22  C   LIG    1       20.650 -20.978   4.369  0.00  0.00    +0.000 A 
ATOM     23  C   LIG    1       20.048 -19.861   3.796  0.00  0.00    +0.000 A 
ATOM     24  C   LIG    1       20.764 -18.672   3.677  0.00  0.00    +0.000 A 
ATOM     25  C   LIG    1       22.079 -18.597   4.142  0.00  0.00    +0.005 A 
ENDBRANCH  19  20
BRANCH  19  26
ATOM     26  C   LIG    1       24.725 -20.991   5.609  0.00  0.00    +0.321 C 
ATOM     27  O   LIG    1       24.471 -21.485   6.700  0.00  0.00    -0.250 OA
BRANCH  26  28
ATOM     28  O   LIG    1       25.651 -21.570   4.803  0.00  0.00    -0.480 OA
ATOM     29  H   LIG    1       25.930 -22.473   5.080  0.00  0.00    +0.295 HD
ENDBRANCH  26  28
ENDBRANCH  19  26
ENDBRANCH   3  19
TORSDOF 7
ENDMDL
MODEL 3
REMARK VINA RESULT:       1.0      1.877      2.825
REMARK  Name = *****
REMARK                            x       y       z     vdW  Elec       q    Type
REMARK                         _______ _______ _______ _____ _____    ______ ____
ROOT
ATOM      1  N   LIG    1       25.456 -17.639   3.800  0.00  0.00    -0.301 N 
ATOM      2  H   LIG    1       25.221 -17.375   4.754  0.00  0.00    +0.150 HD
ATOM      3  C   LIG    1       25.260 -18.946   3.409  0.00  0.00    +0.232 C 
ATOM      4  O   LIG    1       25.442 -19.286   2.237  0.00  0.00    -0.275 OA
ENDROOT
BRANCH   1  10
ATOM      5  C   LIG    1       25.437 -14.067   6.057  0.00  0.00    +0.025 C 
ATOM      6  C   LIG    1       24.793 -13.592   4.743  0.00  0.00    +0.042 C 
ATOM      7  CA  LIG    1       25.880 -13.298   3.675  0.00  0.00    +0.201 C 
ATOM      8  N   LIG    1       26.002 -14.485   2.817  0.00  0.00    -0.271 N 
ATOM      9  C   LIG    1       24.828 -15.372   2.677  0.00  0.00    +0.165 C 
ATOM     10  CA  LIG    1       25.793 -16.581   2.798  0.00  0.00    +0.190 C 
ATOM     11  C   LIG    1       26.822 -15.508   3.224  0.00  0.00    +0.240 C 
ATOM     12  O   LIG    1       27.866 -15.473   3.837  0.00  0.00    -0.273 OA
ATOM     13  S   LIG    1       23.756 -14.994   4.101  0.00  0.00    -0.127 S 
ATOM     14  C   LIG    1       23.848 -12.428   5.062  0.00  0.00    +0.025 C 
BRANCH   7  15
ATOM     15  C   LIG    1       25.659 -12.056   2.805  0.00  0.00    +0.327 C 
ATOM     16  O   LIG    1       24.573 -11.522   2.627  0.00  0.00    -0.249 OA
BRANCH  15  17
ATOM     17  OXT LIG    1       26.796 -11.547   2.273  0.00  0.00    -0.479 OA
ATOM     18  HXT LIG    1       26.904 -11.846   1.347  0.00  0.00    +0.295 HD
ENDBRANCH  15  17
ENDBRANCH   7  15
ENDBRANCH   1  10
BRANCH   3  19
ATOM     19  C   LIG    1       24.958 -19.960   4.512  0.00  0.00    +0.213 C 
BRANCH  19  20
ATOM     20  C   LIG    1       26.173 -20.207   5.400  0.00  0.00    -0.025 A 
ATOM     21  C   LIG    1       27.306 -19.379   5.335  0.00  0.00    +0.005 A 
ATOM     22  C   LIG    1       28.420 -19.640   6.136  0.00  0.00    +0.000 A 
ATOM     23  C   LIG    1       28.430 -20.742   6.989  0.00  0.00    +0.000 A 
ATOM     24  C   LIG    1       27.315 -21.572   7.062  0.00  0.00    +0.000 A 
ATOM     25  C   LIG    1       26.183 -21.294   6.290  0.00  0.00    +0.005 A 
ENDBRANCH  19  20
BRANCH  19  26
ATOM     26  C   LIG    1       23.683 -19.665   5.307  0.00  0.00    +0.321 C 
ATOM     27  O   LIG    1       23.418 -20.173   6.389  0.00  0.00    -0.250 OA
BRANCH  26  28
ATOM     28  O   LIG    1       22.763 -18.890   4.679  0.00  0.00    -0.480 OA
ATOM     29  H   LIG    1       21.827 -19.141   4.853  0.00  0.00    +0.295 HD
ENDBRANCH  26  28
ENDBRANCH  19  26
ENDBRANCH   3  19
TORSDOF 7
ENDMDL
