MODEL 1
REMARK VINA RESULT:      -2.3      0.000      0.000
REMARK  Name = *****
REMARK                            x       y       z     vdW  Elec       q    Type
REMARK                         _______ _______ _______ _____ _____    ______ ____
ROOT
ATOM      1  N   LIG    1       23.177 -15.686   4.594  0.00  0.00    -0.297 NA
ATOM      2  C   LIG    1       22.025 -16.581   4.818  0.00  0.00    +0.100 C 
ATOM      3  C   LIG    1       21.928 -17.772   3.837  0.00  0.00    +0.100 C 
ATOM      4  N   LIG    1       23.137 -18.615   3.802  0.00  0.00    -0.299 NA
ATOM      5  C   LIG    1       24.287 -17.731   3.486  0.00  0.00    +0.100 C 
ATOM      6  C   LIG    1       24.416 -16.484   4.407  0.00  0.00    +0.100 C 
ENDROOT
BRANCH   1   7
ATOM      7  C   LIG    1       22.970 -14.790   3.442  0.00  0.00    +0.120 C 
BRANCH   7   8
ATOM      8  C   LIG    1       23.841 -13.488   3.349  0.00  0.00    +0.162 C 
BRANCH   8   9
ATOM      9  C   LIG    1       25.310 -13.647   3.735  0.00  0.00    -0.018 A 
ATOM     10  C   LIG    1       25.823 -13.142   4.940  0.00  0.00    +0.006 A 
ATOM     11  C   LIG    1       27.156 -13.352   5.305  0.00  0.00    +0.000 A 
ATOM     12  C   LIG    1       28.004 -14.081   4.478  0.00  0.00    +0.000 A 
ATOM     13  C   LIG    1       27.522 -14.584   3.272  0.00  0.00    +0.000 A 
ATOM     14  C   LIG    1       26.188 -14.368   2.903  0.00  0.00    +0.006 A 
ENDBRANCH   8   9
BRANCH   8  15
ATOM     15  O   LIG    1       23.825 -12.976   1.998  0.00  0.00    -0.371 OA
BRANCH  15  17
ATOM     16  C   LIG    1       25.713 -11.491   1.966  0.00  0.00    +0.034 C 
ATOM     17  C   LIG    1       24.205 -11.604   1.902  0.00  0.00    +0.157 C 
ENDBRANCH  15  17
ENDBRANCH   8  15
ENDBRANCH   7   8
ENDBRANCH   1   7
BRANCH   4  18
ATOM     18  C   LIG    1       23.376 -19.351   5.071  0.00  0.00    +0.095 C 
BRANCH  18  19
ATOM     19  C   LIG    1       24.086 -20.727   4.903  0.00  0.00    +0.071 C 
ATOM     20  C   LIG    1       24.778 -20.805   3.555  0.00  0.00    +0.017 C 
BRANCH  19  21
ATOM     21  C   LIG    1       25.076 -20.925   6.044  0.00  0.00    +0.167 C 
ATOM     22  O   LIG    1       24.777 -21.572   7.060  0.00  0.00    -0.292 OA
BRANCH  21  23
ATOM     23  C   LIG    1       26.478 -20.383   5.913  0.00  0.00    +0.018 A 
ATOM     24  C   LIG    1       26.814 -19.402   4.992  0.00  0.00    +0.011 A 
ATOM     25  C   LIG    1       28.120 -18.896   4.942  0.00  0.00    +0.001 A 
ATOM     26  C   LIG    1       29.095 -19.399   5.801  0.00  0.00    +0.000 A 
ATOM     27  C   LIG    1       28.772 -20.396   6.712  0.00  0.00    +0.001 A 
ATOM     28  C   LIG    1       27.452 -20.885   6.788  0.00  0.00    +0.011 A 
ENDBRANCH  21  23
ENDBRANCH  19  21
ENDBRANCH  18  19
ENDBRANCH   4  18
TORSDOF 9
ENDMDL
MODEL 2
REMARK VINA RESULT:      -1.2      1.159      6.984
REMARK  Name = *****
REMARK                            x       y       z     vdW  Elec       q    Type
REMARK                         _______ _______ _______ _____ _____    ______ ____
ROOT
ATOM      1  N   LIG    1       24.275 -18.434   3.617  0.00  0.00    -0.297 NA
ATOM      2  C   LIG    1       23.050 -17.616   3.712  0.00  0.00    +0.100 C 
ATOM      3  C   LIG    1       23.198 -16.321   4.542  0.00  0.00    +0.100 C 
ATOM      4  N   LIG    1       24.281 -15.435   4.077  0.00  0.00    -0.299 NA
ATOM      5  C   LIG    1       25.534 -16.231   4.069  0.00  0.00    +0.100 C 
ATOM      6  C   LIG    1       25.440 -17.574   3.289  0.00  0.00    +0.100 C 
ENDROOT
BRANCH   1   7
ATOM      7  C   LIG    1       24.535 -19.192   4.854  0.00  0.00    +0.120 C 
BRANCH   7   8
ATOM      8  C   LIG    1       25.512 -20.418   4.782  0.00  0.00    +0.162 C 
BRANCH   8   9
ATOM      9  C   LIG    1       26.870 -20.220   5.452  0.00  0.00    -0.018 A 
ATOM     10  C   LIG    1       27.375 -21.131   6.395  0.00  0.00    +0.006 A 
ATOM     11  C   LIG    1       28.648 -20.967   6.951  0.00  0.00    +0.000 A 
ATOM     12  C   LIG    1       29.447 -19.895   6.570  0.00  0.00    +0.000 A 
ATOM     13  C   LIG    1       28.966 -18.973   5.645  0.00  0.00    +0.000 A 
ATOM     14  C   LIG    1       27.688 -19.133   5.092  0.00  0.00    +0.006 A 
ENDBRANCH   8   9
BRANCH   8  15
ATOM     15  O   LIG    1       24.909 -21.571   5.410  0.00  0.00    -0.371 OA
BRANCH  15  17
ATOM     16  C   LIG    1       23.101 -21.136   6.931  0.00  0.00    +0.034 C 
ATOM     17  C   LIG    1       23.488 -21.490   5.512  0.00  0.00    +0.157 C 
ENDBRANCH  15  17
ENDBRANCH   8  15
ENDBRANCH   7   8
ENDBRANCH   1   7
BRANCH   4  18
ATOM     18  C   LIG    1       24.024 -14.848   2.736  0.00  0.00    +0.095 C 
BRANCH  18  19
ATOM     19  C   LIG    1       23.743 -13.316   2.738  0.00  0.00    +0.071 C 
ATOM     20  C   LIG    1       23.013 -12.913   4.005  0.00  0.00    +0.017 C 
BRANCH  19  21
ATOM     21  C   LIG    1       25.059 -12.562   2.595  0.00  0.00    +0.167 C 
ATOM     22  O   LIG    1       25.180 -11.606   1.814  0.00  0.00    -0.292 OA
BRANCH  21  23
ATOM     23  C   LIG    1       26.229 -12.939   3.471  0.00  0.00    +0.018 A 
ATOM     24  C   LIG    1       27.469 -13.278   2.952  0.00  0.00    +0.011 A 
ATOM     25  C   LIG    1       28.538 -13.574   3.809  0.00  0.00    +0.001 A 
ATOM     26  C   LIG    1       28.349 -13.555   5.189  0.00  0.00    +0.000 A 
ATOM     27  C   LIG    1       27.105 -13.235   5.717  0.00  0.00    +0.001 A 
ATOM     28  C   LIG    1       26.035 -12.906   4.859  0.00  0.00    +0.011 A 
ENDBRANCH  21  23
ENDBRANCH  19  21
ENDBRANCH  18  19
ENDBRANCH   4  18
TORSDOF 9
ENDMDL
MODEL 3
REMARK VINA RESULT:      -0.4      2.153      4.350
REMARK  Name = *****
REMARK                            x       y       z     vdW  Elec       q    Type
REMARK                         _______ _______ _______ _____ _____    ______ ____
ROOT
ATOM      1  N   LIG    1       26.576 -15.366   3.948  0.00  0.00    -0.297 NA
ATOM      2  C   LIG    1       25.635 -16.412   3.504  0.00  0.00    +0.100 C 
ATOM      3  C   LIG    1       26.301 -17.719   3.017  0.00  0.00    +0.100 C 
ATOM      4  N   LIG    1       27.202 -18.334   4.008  0.00  0.00    -0.299 NA
ATOM      5  C   LIG    1       28.208 -17.311   4.389  0.00  0.00    +0.100 C 
ATOM      6  C   LIG    1       27.605 -15.952   4.845  0.00  0.00    +0.100 C 
ENDROOT
BRANCH   1   7
ATOM      7  C   LIG    1       27.221 -14.679   2.814  0.00  0.00    +0.120 C 
BRANCH   7   8
ATOM      8  C   LIG    1       26.841 -13.182   2.542  0.00  0.00    +0.162 C 
BRANCH   8   9
ATOM      9  C   LIG    1       25.619 -12.662   3.297  0.00  0.00    -0.018 A 
ATOM     10  C   LIG    1       25.501 -12.776   4.691  0.00  0.00    +0.006 A 
ATOM     11  C   LIG    1       24.405 -12.238   5.372  0.00  0.00    +0.000 A 
ATOM     12  C   LIG    1       23.407 -11.565   4.675  0.00  0.00    +0.000 A 
ATOM     13  C   LIG    1       23.496 -11.447   3.291  0.00  0.00    +0.000 A 
ATOM     14  C   LIG    1       24.591 -11.992   2.607  0.00  0.00    +0.006 A 
ENDBRANCH   8   9
BRANCH   8  15
ATOM     15  O   LIG    1       27.942 -12.317   2.900  0.00  0.00    -0.371 OA
BRANCH  15  17
ATOM     16  C   LIG    1       28.796 -12.221   5.143  0.00  0.00    +0.034 C 
ATOM     17  C   LIG    1       28.870 -12.917   3.802  0.00  0.00    +0.157 C 
ENDBRANCH  15  17
ENDBRANCH   8  15
ENDBRANCH   7   8
ENDBRANCH   1   7
BRANCH   4  18
ATOM     18  C   LIG    1       26.492 -18.845   5.210  0.00  0.00    +0.095 C 
BRANCH  18  19
ATOM     19  C   LIG    1       25.971 -20.307   5.088  0.00  0.00    +0.071 C 
ATOM     20  C   LIG    1       25.319 -20.747   6.385  0.00  0.00    +0.017 C 
BRANCH  19  21
ATOM     21  C   LIG    1       24.994 -20.397   3.921  0.00  0.00    +0.167 C 
ATOM     22  O   LIG    1       25.349 -20.812   2.807  0.00  0.00    -0.292 OA
BRANCH  21  23
ATOM     23  C   LIG    1       23.545 -20.040   4.138  0.00  0.00    +0.018 A 
ATOM     24  C   LIG    1       23.061 -18.752   3.966  0.00  0.00    +0.011 A 
ATOM     25  C   LIG    1       21.696 -18.481   4.132  0.00  0.00    +0.001 A 
ATOM     26  C   LIG    1       20.822 -19.503   4.498  0.00  0.00    +0.000 A 
ATOM     27  C   LIG    1       21.301 -20.793   4.691  0.00  0.00    +0.001 A 
ATOM     28  C   LIG    1       22.669 -21.076   4.494  0.00  0.00    +0.011 A 
ENDBRANCH  21  23
ENDBRANCH  19  21
ENDBRANCH  18  19
ENDBRANCH   4  18
TORSDOF 9
ENDMDL
MODEL 4
REMARK VINA RESULT:      -0.3      1.517      2.412
REMARK  Name = *****
REMARK                            x       y       z     vdW  Elec       q    Type
REMARK                         _______ _______ _______ _____ _____    ______ ____
ROOT
ATOM      1  N   LIG    1       23.801 -15.333   4.749  0.00  0.00    -0.297 NA
ATOM      2  C   LIG    1       22.450 -15.647   5.254  0.00  0.00    +0.100 C 
ATOM      3  C   LIG    1       21.643 -16.631   4.377  0.00  0.00    +0.100 C 
ATOM      4  N   LIG    1       22.328 -17.914   4.134  0.00  0.00    -0.299 NA
ATOM      5  C   LIG    1       23.653 -17.604   3.540  0.00  0.00    +0.100 C 
ATOM      6  C   LIG    1       24.500 -16.581   4.349  0.00  0.00    +0.100 C 
ENDROOT
BRANCH   1   7
ATOM      7  C   LIG    1       23.767 -14.385   3.621  0.00  0.00    +0.120 C 
BRANCH   7   8
ATOM      8  C   LIG    1       25.125 -13.995   2.938  0.00  0.00    +0.162 C 
BRANCH   8   9
ATOM      9  C   LIG    1       26.197 -13.437   3.872  0.00  0.00    -0.018 A 
ATOM     10  C   LIG    1       26.092 -13.532   5.269  0.00  0.00    +0.006 A 
ATOM     11  C   LIG    1       27.112 -13.071   6.106  0.00  0.00    +0.000 A 
ATOM     12  C   LIG    1       28.266 -12.514   5.564  0.00  0.00    +0.000 A 
ATOM     13  C   LIG    1       28.390 -12.398   4.183  0.00  0.00    +0.000 A 
ATOM     14  C   LIG    1       27.364 -12.854   3.344  0.00  0.00    +0.006 A 
ENDBRANCH   8   9
BRANCH   8  15
ATOM     15  O   LIG    1       25.706 -15.150   2.293  0.00  0.00    -0.371 OA
BRANCH  15  17
ATOM     16  C   LIG    1       27.152 -16.654   3.483  0.00  0.00    +0.034 C 
ATOM     17  C   LIG    1       27.064 -15.388   2.660  0.00  0.00    +0.157 C 
ENDBRANCH  15  17
ENDBRANCH   8  15
ENDBRANCH   7   8
ENDBRANCH   1   7
BRANCH   4  18
ATOM     18  C   LIG    1       22.484 -18.738   5.361  0.00  0.00    +0.095 C 
BRANCH  18  19
ATOM     19  C   LIG    1       22.473 -20.276   5.120  0.00  0.00    +0.071 C 
ATOM     20  C   LIG    1       21.262 -20.675   4.298  0.00  0.00    +0.017 C 
BRANCH  19  21
ATOM     21  C   LIG    1       23.768 -20.686   4.430  0.00  0.00    +0.167 C 
ATOM     22  O   LIG    1       23.794 -21.005   3.231  0.00  0.00    -0.292 OA
BRANCH  21  23
ATOM     23  C   LIG    1       25.065 -20.641   5.199  0.00  0.00    +0.018 A 
ATOM     24  C   LIG    1       25.239 -21.303   6.405  0.00  0.00    +0.011 A 
ATOM     25  C   LIG    1       26.479 -21.270   7.058  0.00  0.00    +0.001 A 
ATOM     26  C   LIG    1       27.536 -20.548   6.509  0.00  0.00    +0.000 A 
ATOM     27  C   LIG    1       27.365 -19.865   5.311  0.00  0.00    +0.001 A 
ATOM     28  C   LIG    1       26.129 -19.922   4.635  0.00  0.00    +0.011 A 
ENDBRANCH  21  23
ENDBRANCH  19  21
ENDBRANCH  18  19
ENDBRANCH   4  18
TORSDOF 9
ENDMDL
MODEL 5
REMARK VINA RESULT:      -0.0      1.368      6.986
REMARK  Name = *****
REMARK                            x       y       z     vdW  Elec       q    Type
REMARK                         _______ _______ _______ _____ _____    ______ ____
ROOT
ATOM      1  N   LIG    1       24.275 -17.862   4.488  0.00  0.00    -0.297 NA
ATOM      2  C   LIG    1       25.164 -16.767   4.051  0.00  0.00    +0.100 C 
ATOM      3  C   LIG    1       24.533 -15.787   3.035  0.00  0.00    +0.100 C 
ATOM      4  N   LIG    1       23.277 -15.172   3.501  0.00  0.00    -0.299 NA
ATOM      5  C   LIG    1       22.347 -16.274   3.856  0.00  0.00    +0.100 C 
ATOM      6  C   LIG    1       22.936 -17.324   4.840  0.00  0.00    +0.100 C 
ENDROOT
BRANCH   1   7
ATOM      7  C   LIG    1       24.148 -18.917   3.467  0.00  0.00    +0.120 C 
BRANCH   7   8
ATOM      8  C   LIG    1       24.946 -20.252   3.676  0.00  0.00    +0.162 C 
BRANCH   8   9
ATOM      9  C   LIG    1       25.946 -20.249   4.831  0.00  0.00    -0.018 A 
ATOM     10  C   LIG    1       25.692 -20.922   6.037  0.00  0.00    +0.006 A 
ATOM     11  C   LIG    1       26.646 -20.962   7.060  0.00  0.00    +0.000 A 
ATOM     12  C   LIG    1       27.878 -20.338   6.894  0.00  0.00    +0.000 A 
ATOM     13  C   LIG    1       28.150 -19.656   5.711  0.00  0.00    +0.000 A 
ATOM     14  C   LIG    1       27.192 -19.610   4.689  0.00  0.00    +0.006 A 
ENDBRANCH   8   9
BRANCH   8  15
ATOM     15  O   LIG    1       24.032 -21.342   3.928  0.00  0.00    -0.371 OA
BRANCH  15  17
ATOM     16  C   LIG    1       22.290 -21.196   5.576  0.00  0.00    +0.034 C 
ATOM     17  C   LIG    1       22.685 -20.922   4.141  0.00  0.00    +0.157 C 
ENDBRANCH  15  17
ENDBRANCH   8  15
ENDBRANCH   7   8
ENDBRANCH   1   7
BRANCH   4  18
ATOM     18  C   LIG    1       23.466 -14.254   4.655  0.00  0.00    +0.095 C 
BRANCH  18  19
ATOM     19  C   LIG    1       23.398 -12.739   4.300  0.00  0.00    +0.071 C 
ATOM     20  C   LIG    1       23.512 -11.895   5.557  0.00  0.00    +0.017 C 
BRANCH  19  21
ATOM     21  C   LIG    1       24.505 -12.404   3.308  0.00  0.00    +0.167 C 
ATOM     22  O   LIG    1       24.281 -11.745   2.281  0.00  0.00    -0.292 OA
BRANCH  21  23
ATOM     23  C   LIG    1       25.923 -12.822   3.610  0.00  0.00    +0.018 A 
ATOM     24  C   LIG    1       26.443 -12.819   4.896  0.00  0.00    +0.011 A 
ATOM     25  C   LIG    1       27.752 -13.263   5.131  0.00  0.00    +0.001 A 
ATOM     26  C   LIG    1       28.546 -13.683   4.066  0.00  0.00    +0.000 A 
ATOM     27  C   LIG    1       28.040 -13.670   2.772  0.00  0.00    +0.001 A 
ATOM     28  C   LIG    1       26.714 -13.255   2.536  0.00  0.00    +0.011 A 
ENDBRANCH  21  23
ENDBRANCH  19  21
ENDBRANCH  18  19
ENDBRANCH   4  18
TORSDOF 9
ENDMDL
MODEL 6
REMARK VINA RESULT:       0.3      2.004      4.453
REMARK  Name = *****
REMARK                            x       y       z     vdW  Elec       q    Type
REMARK                         _______ _______ _______ _____ _____    ______ ____
ROOT
ATOM      1  N   LIG    1       25.903 -17.267   3.845  0.00  0.00    -0.297 NA
ATOM      2  C   LIG    1       25.505 -17.982   2.616  0.00  0.00    +0.100 C 
ATOM      3  C   LIG    1       26.170 -19.365   2.427  0.00  0.00    +0.100 C 
ATOM      4  N   LIG    1       25.959 -20.287   3.557  0.00  0.00    -0.299 NA
ATOM      5  C   LIG    1       26.443 -19.606   4.784  0.00  0.00    +0.100 C 
ATOM      6  C   LIG    1       25.850 -18.186   5.010  0.00  0.00    +0.100 C 
ENDROOT
BRANCH   1   7
ATOM      7  C   LIG    1       27.245 -16.668   3.730  0.00  0.00    +0.120 C 
BRANCH   7   8
ATOM      8  C   LIG    1       27.350 -15.158   3.317  0.00  0.00    +0.162 C 
BRANCH   8   9
ATOM      9  C   LIG    1       26.042 -14.369   3.360  0.00  0.00    -0.018 A 
ATOM     10  C   LIG    1       25.309 -14.205   4.546  0.00  0.00    +0.006 A 
ATOM     11  C   LIG    1       24.148 -13.427   4.579  0.00  0.00    +0.000 A 
ATOM     12  C   LIG    1       23.699 -12.787   3.429  0.00  0.00    +0.000 A 
ATOM     13  C   LIG    1       24.403 -12.942   2.237  0.00  0.00    +0.000 A 
ATOM     14  C   LIG    1       25.563 -13.728   2.202  0.00  0.00    +0.006 A 
ENDBRANCH   8   9
BRANCH   8  15
ATOM     15  O   LIG    1       28.273 -14.468   4.189  0.00  0.00    -0.371 OA
BRANCH  15  17
ATOM     16  C   LIG    1       28.682 -12.182   4.804  0.00  0.00    +0.034 C 
ATOM     17  C   LIG    1       28.696 -13.201   3.686  0.00  0.00    +0.157 C 
ENDBRANCH  15  17
ENDBRANCH   8  15
ENDBRANCH   7   8
ENDBRANCH   1   7
BRANCH   4  18
ATOM     18  C   LIG    1       24.541 -20.707   3.716  0.00  0.00    +0.095 C 
BRANCH  18  19
ATOM     19  C   LIG    1       24.255 -21.572   4.978  0.00  0.00    +0.071 C 
ATOM     20  C   LIG    1       25.453 -21.563   5.910  0.00  0.00    +0.017 C 
BRANCH  19  21
ATOM     21  C   LIG    1       23.008 -21.045   5.678  0.00  0.00    +0.167 C 
ATOM     22  O   LIG    1       22.745 -21.345   6.853  0.00  0.00    -0.292 OA
BRANCH  21  23
ATOM     23  C   LIG    1       22.102 -20.080   4.953  0.00  0.00    +0.018 A 
ATOM     24  C   LIG    1       22.407 -18.734   4.813  0.00  0.00    +0.011 A 
ATOM     25  C   LIG    1       21.557 -17.888   4.088  0.00  0.00    +0.001 A 
ATOM     26  C   LIG    1       20.385 -18.392   3.527  0.00  0.00    +0.000 A 
ATOM     27  C   LIG    1       20.062 -19.735   3.680  0.00  0.00    +0.001 A 
ATOM     28  C   LIG    1       20.931 -20.596   4.381  0.00  0.00    +0.011 A 
ENDBRANCH  21  23
ENDBRANCH  19  21
ENDBRANCH  18  19
ENDBRANCH   4  18
TORSDOF 9
ENDMDL
