MODEL 1
REMARK VINA RESULT:      -6.2      0.000      0.000
REMARK  Name = *****
REMARK                            x       y       z     vdW  Elec       q    Type
REMARK                         _______ _______ _______ _____ _____    ______ ____
ROOT
ATOM      1  C   LIG    1       21.959 -17.646   4.455  0.00  0.00    +0.044 C 
ATOM      2  C   LIG    1       23.337 -18.142   4.074  0.00  0.00    -0.050 C 
ATOM      3  C   LIG    1       23.561 -19.474   4.082  0.00  0.00    +0.003 C 
ENDROOT
BRANCH   3   4
ATOM      4  C   LIG    1       24.766 -20.191   3.728  0.00  0.00    +0.001 C 
ATOM      5  C   LIG    1       25.723 -20.619   4.567  0.00  0.00    +0.003 C 
BRANCH   5   6
ATOM      6  C   LIG    1       25.761 -20.530   6.020  0.00  0.00    -0.052 C 
ATOM      7  C   LIG    1       26.909 -20.280   6.675  0.00  0.00    +0.004 C 
ATOM      8  C   LIG    1       24.497 -20.867   6.776  0.00  0.00    +0.043 C 
BRANCH   7   9
ATOM      9  C   LIG    1       28.246 -19.967   6.080  0.00  0.00    +0.183 C 
BRANCH   9  10
ATOM     10  O   LIG    1       29.173 -20.966   6.468  0.00  0.00    -0.391 OA
ATOM     11  H   LIG    1       30.003 -20.517   6.699  0.00  0.00    +0.210 HD
ENDBRANCH   9  10
ENDBRANCH   7   9
ENDBRANCH   5   6
ENDBRANCH   3   4
BRANCH   2  12
ATOM     12  C   LIG    1       24.348 -17.153   3.720  0.00  0.00    +0.003 C 
ATOM     13  C   LIG    1       24.345 -15.854   4.068  0.00  0.00    +0.004 C 
BRANCH  13  14
ATOM     14  C   LIG    1       25.394 -14.907   3.690  0.00  0.00    -0.043 C 
ATOM     15  C   LIG    1       24.935 -13.451   3.435  0.00  0.00    -0.010 C 
ATOM     16  C   LIG    1       23.678 -13.357   2.537  0.00  0.00    +0.016 C 
ATOM     17  C   LIG    1       24.614 -12.772   4.787  0.00  0.00    +0.016 C 
ATOM     18  C   LIG    1       26.040 -12.639   2.707  0.00  0.00    +0.011 C 
ATOM     19  C   LIG    1       27.411 -12.860   3.318  0.00  0.00    +0.005 C 
ATOM     20  C   LIG    1       27.798 -14.326   3.209  0.00  0.00    +0.031 C 
ATOM     21  C   LIG    1       26.688 -15.294   3.554  0.00  0.00    -0.069 C 
ATOM     22  C   LIG    1       27.170 -16.720   3.690  0.00  0.00    +0.039 C 
ENDBRANCH  13  14
ENDBRANCH   2  12
TORSDOF 6
ENDMDL
MODEL 2
REMARK VINA RESULT:      -4.1      1.181      2.313
REMARK  Name = *****
REMARK                            x       y       z     vdW  Elec       q    Type
REMARK                         _______ _______ _______ _____ _____    ______ ____
ROOT
ATOM      1  C   LIG    1       21.879 -16.280   4.850  0.00  0.00    +0.044 C 
ATOM      2  C   LIG    1       23.144 -16.905   4.302  0.00  0.00    -0.050 C 
ATOM      3  C   LIG    1       23.210 -18.251   4.225  0.00  0.00    +0.003 C 
ENDROOT
BRANCH   3   4
ATOM      4  C   LIG    1       24.281 -19.076   3.712  0.00  0.00    +0.001 C 
ATOM      5  C   LIG    1       24.941 -20.040   4.374  0.00  0.00    +0.003 C 
BRANCH   5   6
ATOM      6  C   LIG    1       24.710 -20.533   5.725  0.00  0.00    -0.052 C 
ATOM      7  C   LIG    1       25.731 -20.921   6.511  0.00  0.00    +0.004 C 
ATOM      8  C   LIG    1       23.278 -20.728   6.164  0.00  0.00    +0.043 C 
BRANCH   7   9
ATOM      9  C   LIG    1       27.194 -20.832   6.211  0.00  0.00    +0.183 C 
BRANCH   9  10
ATOM     10  O   LIG    1       27.784 -19.861   7.059  0.00  0.00    -0.391 OA
ATOM     11  H   LIG    1       27.344 -19.014   6.880  0.00  0.00    +0.210 HD
ENDBRANCH   9  10
ENDBRANCH   7   9
ENDBRANCH   5   6
ENDBRANCH   3   4
BRANCH   2  12
ATOM     12  C   LIG    1       24.223 -16.015   3.889  0.00  0.00    +0.003 C 
ATOM     13  C   LIG    1       24.374 -14.728   4.248  0.00  0.00    +0.004 C 
BRANCH  13  14
ATOM     14  C   LIG    1       25.486 -13.885   3.808  0.00  0.00    -0.043 C 
ATOM     15  C   LIG    1       26.795 -14.006   4.625  0.00  0.00    -0.010 C 
ATOM     16  C   LIG    1       26.565 -13.958   6.154  0.00  0.00    +0.016 C 
ATOM     17  C   LIG    1       27.489 -15.345   4.283  0.00  0.00    +0.016 C 
ATOM     18  C   LIG    1       27.762 -12.833   4.303  0.00  0.00    +0.011 C 
ATOM     19  C   LIG    1       27.870 -12.574   2.812  0.00  0.00    +0.005 C 
ATOM     20  C   LIG    1       26.510 -12.190   2.251  0.00  0.00    +0.031 C 
ATOM     21  C   LIG    1       25.363 -13.037   2.755  0.00  0.00    -0.069 C 
ATOM     22  C   LIG    1       24.080 -12.807   1.991  0.00  0.00    +0.039 C 
ENDBRANCH  13  14
ENDBRANCH   2  12
TORSDOF 6
ENDMDL
MODEL 3
REMARK VINA RESULT:      -4.1      1.616      3.321
REMARK  Name = *****
REMARK                            x       y       z     vdW  Elec       q    Type
REMARK                         _______ _______ _______ _____ _____    ______ ____
ROOT
ATOM      1  C   LIG    1       27.978 -18.179   4.928  0.00  0.00    +0.044 C 
ATOM      2  C   LIG    1       26.752 -18.177   4.040  0.00  0.00    -0.050 C 
ATOM      3  C   LIG    1       26.182 -19.362   3.735  0.00  0.00    +0.003 C 
ENDROOT
BRANCH   3   4
ATOM      4  C   LIG    1       24.998 -19.620   2.946  0.00  0.00    +0.001 C 
ATOM      5  C   LIG    1       23.735 -19.702   3.394  0.00  0.00    +0.003 C 
BRANCH   5   6
ATOM      6  C   LIG    1       23.238 -19.493   4.746  0.00  0.00    -0.052 C 
ATOM      7  C   LIG    1       23.511 -20.365   5.734  0.00  0.00    +0.004 C 
ATOM      8  C   LIG    1       22.289 -18.340   4.975  0.00  0.00    +0.043 C 
BRANCH   7   9
ATOM      9  C   LIG    1       24.395 -21.571   5.662  0.00  0.00    +0.183 C 
BRANCH   9  10
ATOM     10  O   LIG    1       25.408 -21.464   6.648  0.00  0.00    -0.391 OA
ATOM     11  H   LIG    1       26.188 -21.075   6.221  0.00  0.00    +0.210 HD
ENDBRANCH   9  10
ENDBRANCH   7   9
ENDBRANCH   5   6
ENDBRANCH   3   4
BRANCH   2  12
ATOM     12  C   LIG    1       26.255 -16.891   3.564  0.00  0.00    +0.003 C 
ATOM     13  C   LIG    1       26.169 -15.757   4.280  0.00  0.00    +0.004 C 
BRANCH  13  14
ATOM     14  C   LIG    1       25.668 -14.491   3.744  0.00  0.00    -0.043 C 
ATOM     15  C   LIG    1       26.735 -13.527   3.171  0.00  0.00    -0.010 C 
ATOM     16  C   LIG    1       27.959 -13.351   4.102  0.00  0.00    +0.016 C 
ATOM     17  C   LIG    1       27.236 -14.068   1.812  0.00  0.00    +0.016 C 
ATOM     18  C   LIG    1       26.147 -12.104   2.968  0.00  0.00    +0.011 C 
ATOM     19  C   LIG    1       24.783 -12.137   2.304  0.00  0.00    +0.005 C 
ATOM     20  C   LIG    1       23.798 -12.900   3.177  0.00  0.00    +0.031 C 
ATOM     21  C   LIG    1       24.347 -14.181   3.767  0.00  0.00    -0.069 C 
ATOM     22  C   LIG    1       23.280 -15.039   4.405  0.00  0.00    +0.039 C 
ENDBRANCH  13  14
ENDBRANCH   2  12
TORSDOF 6
ENDMDL
MODEL 4
REMARK VINA RESULT:      -3.6      2.414      3.893
REMARK  Name = *****
REMARK                            x       y       z     vdW  Elec       q    Type
REMARK                         _______ _______ _______ _____ _____    ______ ____
ROOT
ATOM      1  C   LIG    1       28.066 -18.265   4.827  0.00  0.00    +0.044 C 
ATOM      2  C   LIG    1       26.832 -18.247   3.951  0.00  0.00    -0.050 C 
ATOM      3  C   LIG    1       26.250 -19.426   3.646  0.00  0.00    +0.003 C 
ENDROOT
BRANCH   3   4
ATOM      4  C   LIG    1       25.055 -19.670   2.867  0.00  0.00    +0.001 C 
ATOM      5  C   LIG    1       23.857 -20.061   3.331  0.00  0.00    +0.003 C 
BRANCH   5   6
ATOM      6  C   LIG    1       23.445 -20.270   4.712  0.00  0.00    -0.052 C 
ATOM      7  C   LIG    1       22.641 -19.395   5.342  0.00  0.00    +0.004 C 
ATOM      8  C   LIG    1       24.063 -21.428   5.460  0.00  0.00    +0.043 C 
BRANCH   7   9
ATOM      9  C   LIG    1       21.982 -18.184   4.759  0.00  0.00    +0.183 C 
BRANCH   9  10
ATOM     10  O   LIG    1       20.995 -18.594   3.829  0.00  0.00    -0.391 OA
ATOM     11  H   LIG    1       20.180 -18.108   4.038  0.00  0.00    +0.210 HD
ENDBRANCH   9  10
ENDBRANCH   7   9
ENDBRANCH   5   6
ENDBRANCH   3   4
BRANCH   2  12
ATOM     12  C   LIG    1       26.342 -16.956   3.485  0.00  0.00    +0.003 C 
ATOM     13  C   LIG    1       26.107 -15.872   4.246  0.00  0.00    +0.004 C 
BRANCH  13  14
ATOM     14  C   LIG    1       25.623 -14.597   3.719  0.00  0.00    -0.043 C 
ATOM     15  C   LIG    1       26.705 -13.632   3.174  0.00  0.00    -0.010 C 
ATOM     16  C   LIG    1       27.916 -13.477   4.124  0.00  0.00    +0.016 C 
ATOM     17  C   LIG    1       27.221 -14.159   1.815  0.00  0.00    +0.016 C 
ATOM     18  C   LIG    1       26.128 -12.203   2.981  0.00  0.00    +0.011 C 
ATOM     19  C   LIG    1       24.774 -12.218   2.298  0.00  0.00    +0.005 C 
ATOM     20  C   LIG    1       23.772 -12.986   3.147  0.00  0.00    +0.031 C 
ATOM     21  C   LIG    1       24.304 -14.277   3.728  0.00  0.00    -0.069 C 
ATOM     22  C   LIG    1       23.222 -15.137   4.340  0.00  0.00    +0.039 C 
ENDBRANCH  13  14
ENDBRANCH   2  12
TORSDOF 6
ENDMDL
MODEL 5
REMARK VINA RESULT:      -3.5      1.623      2.963
REMARK  Name = *****
REMARK                            x       y       z     vdW  Elec       q    Type
REMARK                         _______ _______ _______ _____ _____    ______ ____
ROOT
ATOM      1  C   LIG    1       27.907 -18.046   4.748  0.00  0.00    +0.044 C 
ATOM      2  C   LIG    1       26.654 -18.119   3.901  0.00  0.00    -0.050 C 
ATOM      3  C   LIG    1       26.123 -19.334   3.651  0.00  0.00    +0.003 C 
ENDROOT
BRANCH   3   4
ATOM      4  C   LIG    1       24.926 -19.663   2.908  0.00  0.00    +0.001 C 
ATOM      5  C   LIG    1       23.676 -19.748   3.394  0.00  0.00    +0.003 C 
BRANCH   5   6
ATOM      6  C   LIG    1       23.209 -19.475   4.746  0.00  0.00    -0.052 C 
ATOM      7  C   LIG    1       23.460 -20.327   5.756  0.00  0.00    +0.004 C 
ATOM      8  C   LIG    1       22.314 -18.276   4.949  0.00  0.00    +0.043 C 
BRANCH   7   9
ATOM      9  C   LIG    1       24.289 -21.572   5.712  0.00  0.00    +0.183 C 
BRANCH   9  10
ATOM     10  O   LIG    1       25.601 -21.272   6.157  0.00  0.00    -0.391 OA
ATOM     11  H   LIG    1       25.526 -20.895   7.049  0.00  0.00    +0.210 HD
ENDBRANCH   9  10
ENDBRANCH   7   9
ENDBRANCH   5   6
ENDBRANCH   3   4
BRANCH   2  12
ATOM     12  C   LIG    1       26.092 -16.870   3.403  0.00  0.00    +0.003 C 
ATOM     13  C   LIG    1       26.117 -15.680   4.029  0.00  0.00    +0.004 C 
BRANCH  13  14
ATOM     14  C   LIG    1       25.542 -14.455   3.474  0.00  0.00    -0.043 C 
ATOM     15  C   LIG    1       24.140 -14.063   4.003  0.00  0.00    -0.010 C 
ATOM     16  C   LIG    1       23.144 -15.247   4.024  0.00  0.00    +0.016 C 
ATOM     17  C   LIG    1       24.271 -13.517   5.443  0.00  0.00    +0.016 C 
ATOM     18  C   LIG    1       23.490 -12.977   3.102  0.00  0.00    +0.011 C 
ATOM     19  C   LIG    1       24.462 -11.864   2.757  0.00  0.00    +0.005 C 
ATOM     20  C   LIG    1       25.644 -12.427   1.983  0.00  0.00    +0.031 C 
ATOM     21  C   LIG    1       26.196 -13.721   2.539  0.00  0.00    -0.069 C 
ATOM     22  C   LIG    1       27.515 -14.114   1.916  0.00  0.00    +0.039 C 
ENDBRANCH  13  14
ENDBRANCH   2  12
TORSDOF 6
ENDMDL
MODEL 6
REMARK VINA RESULT:      -3.4      2.608      6.982
REMARK  Name = *****
REMARK                            x       y       z     vdW  Elec       q    Type
REMARK                         _______ _______ _______ _____ _____    ______ ____
ROOT
ATOM      1  C   LIG    1       29.290 -18.207   5.322  0.00  0.00    +0.044 C 
ATOM      2  C   LIG    1       27.954 -17.811   4.733  0.00  0.00    -0.050 C 
ATOM      3  C   LIG    1       27.933 -16.847   3.788  0.00  0.00    +0.003 C 
ENDROOT
BRANCH   3   4
ATOM      4  C   LIG    1       26.801 -16.323   3.054  0.00  0.00    +0.001 C 
ATOM      5  C   LIG    1       26.286 -15.087   3.146  0.00  0.00    +0.003 C 
BRANCH   5   6
ATOM      6  C   LIG    1       26.762 -13.964   3.942  0.00  0.00    -0.052 C 
ATOM      7  C   LIG    1       25.907 -13.175   4.619  0.00  0.00    +0.004 C 
ATOM      8  C   LIG    1       28.232 -13.627   3.869  0.00  0.00    +0.043 C 
BRANCH   7   9
ATOM      9  C   LIG    1       24.428 -13.347   4.758  0.00  0.00    +0.183 C 
BRANCH   9  10
ATOM     10  O   LIG    1       23.779 -12.680   3.688  0.00  0.00    -0.391 OA
ATOM     11  H   LIG    1       23.928 -13.205   2.885  0.00  0.00    +0.210 HD
ENDBRANCH   9  10
ENDBRANCH   7   9
ENDBRANCH   5   6
ENDBRANCH   3   4
BRANCH   2  12
ATOM     12  C   LIG    1       26.761 -18.494   5.220  0.00  0.00    +0.003 C 
ATOM     13  C   LIG    1       25.993 -19.348   4.522  0.00  0.00    +0.004 C 
BRANCH  13  14
ATOM     14  C   LIG    1       24.810 -20.012   5.069  0.00  0.00    -0.043 C 
ATOM     15  C   LIG    1       23.484 -19.777   4.303  0.00  0.00    -0.010 C 
ATOM     16  C   LIG    1       23.239 -18.290   3.953  0.00  0.00    +0.016 C 
ATOM     17  C   LIG    1       23.505 -20.587   2.986  0.00  0.00    +0.016 C 
ATOM     18  C   LIG    1       22.264 -20.220   5.156  0.00  0.00    +0.011 C 
ATOM     19  C   LIG    1       22.482 -21.572   5.810  0.00  0.00    +0.005 C 
ATOM     20  C   LIG    1       23.676 -21.507   6.750  0.00  0.00    +0.031 C 
ATOM     21  C   LIG    1       24.874 -20.773   6.191  0.00  0.00    -0.069 C 
ATOM     22  C   LIG    1       26.118 -20.950   7.031  0.00  0.00    +0.039 C 
ENDBRANCH  13  14
ENDBRANCH   2  12
TORSDOF 6
ENDMDL
