MODEL 1
REMARK VINA RESULT:      -4.6      0.000      0.000
REMARK  Name = *****
REMARK                            x       y       z     vdW  Elec       q    Type
REMARK                         _______ _______ _______ _____ _____    ______ ____
ROOT
ATOM      1  O   LIG    1       29.472 -17.709   4.835  0.00  0.00    -0.265 OA
ATOM      2  C   LIG    1       28.893 -18.639   5.385  0.00  0.00    +0.279 C 
ATOM      3  C   LIG    1       27.569 -19.131   5.059  0.00  0.00    +0.172 A 
ATOM      4  N   LIG    1       26.675 -18.711   4.111  0.00  0.00    -0.229 NA
ATOM      5  C   LIG    1       25.652 -19.533   4.241  0.00  0.00    +0.203 A 
ATOM      6  N   LIG    1       25.840 -20.446   5.251  0.00  0.00    -0.288 N 
ATOM      7  C   LIG    1       27.081 -20.203   5.776  0.00  0.00    +0.169 A 
ATOM      8  N   LIG    1       27.683 -20.885   6.782  0.00  0.00    -0.218 NA
ATOM      9  C   LIG    1       28.863 -20.417   7.061  0.00  0.00    +0.201 C 
ATOM     10  N   LIG    1       29.475 -19.352   6.424  0.00  0.00    -0.312 N 
ATOM     11  H   LIG    1       30.399 -19.050   6.690  0.00  0.00    +0.170 HD
ENDROOT
BRANCH   6  12
ATOM     12  C   LIG    1       24.954 -21.536   5.628  0.00  0.00    +0.222 C 
ATOM     13  O   LIG    1       23.818 -21.556   4.733  0.00  0.00    -0.351 OA
ATOM     14  C   LIG    1       22.622 -21.326   5.497  0.00  0.00    +0.146 C 
ATOM     15  C   LIG    1       23.061 -20.760   6.837  0.00  0.00    +0.038 C 
ATOM     16  C   LIG    1       24.393 -21.438   7.042  0.00  0.00    +0.057 C 
BRANCH  14  17
ATOM     17  C   LIG    1       21.670 -20.405   4.735  0.00  0.00    +0.187 C 
BRANCH  17  18
ATOM     18  O   LIG    1       22.189 -19.082   4.685  0.00  0.00    -0.393 OA
ATOM     19  H   LIG    1       22.708 -18.952   5.498  0.00  0.00    +0.209 HD
ENDBRANCH  17  18
ENDBRANCH  14  17
ENDBRANCH   6  12
TORSDOF 3
ENDMDL
MODEL 2
REMARK VINA RESULT:      -3.5      3.358      4.576
REMARK  Name = *****
REMARK                            x       y       z     vdW  Elec       q    Type
REMARK                         _______ _______ _______ _____ _____    ______ ____
ROOT
ATOM      1  O   LIG    1       23.876 -13.277   4.343  0.00  0.00    -0.265 OA
ATOM      2  C   LIG    1       24.512 -14.280   4.041  0.00  0.00    +0.279 C 
ATOM      3  C   LIG    1       24.029 -15.646   4.098  0.00  0.00    +0.172 A 
ATOM      4  N   LIG    1       22.811 -16.140   4.483  0.00  0.00    -0.229 NA
ATOM      5  C   LIG    1       22.920 -17.443   4.309  0.00  0.00    +0.203 A 
ATOM      6  N   LIG    1       24.163 -17.808   3.854  0.00  0.00    -0.288 N 
ATOM      7  C   LIG    1       24.883 -16.652   3.703  0.00  0.00    +0.169 A 
ATOM      8  N   LIG    1       26.158 -16.545   3.253  0.00  0.00    -0.218 NA
ATOM      9  C   LIG    1       26.569 -15.312   3.221  0.00  0.00    +0.201 C 
ATOM     10  N   LIG    1       25.821 -14.207   3.587  0.00  0.00    -0.312 N 
ATOM     11  H   LIG    1       26.206 -13.278   3.526  0.00  0.00    +0.170 HD
ENDROOT
BRANCH   6  12
ATOM     12  C   LIG    1       24.612 -19.144   3.492  0.00  0.00    +0.222 C 
ATOM     13  O   LIG    1       23.526 -20.078   3.689  0.00  0.00    -0.351 OA
ATOM     14  C   LIG    1       23.916 -21.039   4.685  0.00  0.00    +0.146 C 
ATOM     15  C   LIG    1       25.120 -20.457   5.405  0.00  0.00    +0.038 C 
ATOM     16  C   LIG    1       25.787 -19.663   4.310  0.00  0.00    +0.057 C 
BRANCH  14  17
ATOM     17  C   LIG    1       22.746 -21.349   5.616  0.00  0.00    +0.187 C 
BRANCH  17  18
ATOM     18  O   LIG    1       21.558 -21.571   4.868  0.00  0.00    -0.393 OA
ATOM     19  H   LIG    1       21.832 -21.779   3.958  0.00  0.00    +0.209 HD
ENDBRANCH  17  18
ENDBRANCH  14  17
ENDBRANCH   6  12
TORSDOF 3
ENDMDL
MODEL 3
REMARK VINA RESULT:      -3.4      3.817      6.590
REMARK  Name = *****
REMARK                            x       y       z     vdW  Elec       q    Type
REMARK                         _______ _______ _______ _____ _____    ______ ____
ROOT
ATOM      1  O   LIG    1       24.249 -21.105   4.361  0.00  0.00    -0.265 OA
ATOM      2  C   LIG    1       23.866 -19.943   4.293  0.00  0.00    +0.279 C 
ATOM      3  C   LIG    1       24.673 -18.799   3.917  0.00  0.00    +0.172 A 
ATOM      4  N   LIG    1       25.994 -18.723   3.564  0.00  0.00    -0.229 NA
ATOM      5  C   LIG    1       26.187 -17.446   3.298  0.00  0.00    +0.203 A 
ATOM      6  N   LIG    1       25.054 -16.694   3.491  0.00  0.00    -0.288 N 
ATOM      7  C   LIG    1       24.067 -17.562   3.879  0.00  0.00    +0.169 A 
ATOM      8  N   LIG    1       22.776 -17.249   4.155  0.00  0.00    -0.218 NA
ATOM      9  C   LIG    1       22.077 -18.291   4.498  0.00  0.00    +0.201 C 
ATOM     10  N   LIG    1       22.555 -19.586   4.578  0.00  0.00    -0.312 N 
ATOM     11  H   LIG    1       21.949 -20.347   4.844  0.00  0.00    +0.170 HD
ENDROOT
BRANCH   6  12
ATOM     12  C   LIG    1       24.885 -15.273   3.233  0.00  0.00    +0.222 C 
ATOM     13  O   LIG    1       26.111 -14.743   2.679  0.00  0.00    -0.351 OA
ATOM     14  C   LIG    1       26.631 -13.746   3.575  0.00  0.00    +0.146 C 
ATOM     15  C   LIG    1       25.921 -13.940   4.903  0.00  0.00    +0.038 C 
ATOM     16  C   LIG    1       24.566 -14.437   4.466  0.00  0.00    +0.057 C 
BRANCH  14  17
ATOM     17  C   LIG    1       28.151 -13.862   3.679  0.00  0.00    +0.187 C 
BRANCH  17  18
ATOM     18  O   LIG    1       28.771 -12.633   3.324  0.00  0.00    -0.393 OA
ATOM     19  H   LIG    1       29.618 -12.596   3.803  0.00  0.00    +0.209 HD
ENDBRANCH  17  18
ENDBRANCH  14  17
ENDBRANCH   6  12
TORSDOF 3
ENDMDL
MODEL 4
REMARK VINA RESULT:      -3.3      3.205      4.569
REMARK  Name = *****
REMARK                            x       y       z     vdW  Elec       q    Type
REMARK                         _______ _______ _______ _____ _____    ______ ____
ROOT
ATOM      1  O   LIG    1       26.446 -14.093   3.562  0.00  0.00    -0.265 OA
ATOM      2  C   LIG    1       25.464 -14.801   3.755  0.00  0.00    +0.279 C 
ATOM      3  C   LIG    1       25.404 -16.240   3.590  0.00  0.00    +0.172 A 
ATOM      4  N   LIG    1       26.369 -17.129   3.197  0.00  0.00    -0.229 NA
ATOM      5  C   LIG    1       25.772 -18.303   3.252  0.00  0.00    +0.203 A 
ATOM      6  N   LIG    1       24.457 -18.204   3.638  0.00  0.00    -0.288 N 
ATOM      7  C   LIG    1       24.214 -16.876   3.871  0.00  0.00    +0.169 A 
ATOM      8  N   LIG    1       23.047 -16.327   4.293  0.00  0.00    -0.218 NA
ATOM      9  C   LIG    1       23.126 -15.036   4.423  0.00  0.00    +0.201 C 
ATOM     10  N   LIG    1       24.252 -14.272   4.178  0.00  0.00    -0.312 N 
ATOM     11  H   LIG    1       24.240 -13.273   4.310  0.00  0.00    +0.170 HD
ENDROOT
BRANCH   6  12
ATOM     12  C   LIG    1       23.522 -19.294   3.868  0.00  0.00    +0.222 C 
ATOM     13  O   LIG    1       23.343 -19.473   5.291  0.00  0.00    -0.351 OA
ATOM     14  C   LIG    1       23.793 -20.790   5.653  0.00  0.00    +0.146 C 
ATOM     15  C   LIG    1       24.634 -21.297   4.495  0.00  0.00    +0.038 C 
ATOM     16  C   LIG    1       23.967 -20.640   3.312  0.00  0.00    +0.057 C 
BRANCH  14  17
ATOM     17  C   LIG    1       24.551 -20.749   6.979  0.00  0.00    +0.187 C 
BRANCH  17  18
ATOM     18  O   LIG    1       25.899 -20.351   6.771  0.00  0.00    -0.393 OA
ATOM     19  H   LIG    1       26.364 -20.475   7.618  0.00  0.00    +0.209 HD
ENDBRANCH  17  18
ENDBRANCH  14  17
ENDBRANCH   6  12
TORSDOF 3
ENDMDL
MODEL 5
REMARK VINA RESULT:      -3.0      4.236      7.175
REMARK  Name = *****
REMARK                            x       y       z     vdW  Elec       q    Type
REMARK                         _______ _______ _______ _____ _____    ______ ____
ROOT
ATOM      1  O   LIG    1       21.894 -18.145   4.757  0.00  0.00    -0.265 OA
ATOM      2  C   LIG    1       23.019 -18.045   4.282  0.00  0.00    +0.279 C 
ATOM      3  C   LIG    1       23.748 -16.811   4.065  0.00  0.00    +0.172 A 
ATOM      4  N   LIG    1       23.390 -15.514   4.317  0.00  0.00    -0.229 NA
ATOM      5  C   LIG    1       24.443 -14.809   3.952  0.00  0.00    +0.203 A 
ATOM      6  N   LIG    1       25.452 -15.596   3.452  0.00  0.00    -0.288 N 
ATOM      7  C   LIG    1       25.017 -16.893   3.532  0.00  0.00    +0.169 A 
ATOM      8  N   LIG    1       25.705 -18.003   3.166  0.00  0.00    -0.218 NA
ATOM      9  C   LIG    1       25.026 -19.094   3.362  0.00  0.00    +0.201 C 
ATOM     10  N   LIG    1       23.748 -19.159   3.888  0.00  0.00    -0.312 N 
ATOM     11  H   LIG    1       23.286 -20.045   4.019  0.00  0.00    +0.170 HD
ENDROOT
BRANCH   6  12
ATOM     12  C   LIG    1       26.772 -15.167   3.019  0.00  0.00    +0.222 C 
ATOM     13  O   LIG    1       27.577 -14.867   4.183  0.00  0.00    -0.351 OA
ATOM     14  C   LIG    1       27.945 -13.477   4.147  0.00  0.00    +0.146 C 
ATOM     15  C   LIG    1       27.021 -12.807   3.145  0.00  0.00    +0.038 C 
ATOM     16  C   LIG    1       26.780 -13.915   2.150  0.00  0.00    +0.057 C 
BRANCH  14  17
ATOM     17  C   LIG    1       27.864 -12.867   5.545  0.00  0.00    +0.187 C 
BRANCH  17  18
ATOM     18  O   LIG    1       28.915 -11.931   5.743  0.00  0.00    -0.393 OA
ATOM     19  H   LIG    1       29.045 -11.469   4.895  0.00  0.00    +0.209 HD
ENDBRANCH  17  18
ENDBRANCH  14  17
ENDBRANCH   6  12
TORSDOF 3
ENDMDL
MODEL 6
REMARK VINA RESULT:      -2.5      4.957      6.911
REMARK  Name = *****
REMARK                            x       y       z     vdW  Elec       q    Type
REMARK                         _______ _______ _______ _____ _____    ______ ____
ROOT
ATOM      1  O   LIG    1       22.254 -19.562   4.422  0.00  0.00    -0.265 OA
ATOM      2  C   LIG    1       23.250 -18.925   4.097  0.00  0.00    +0.279 C 
ATOM      3  C   LIG    1       23.399 -17.484   4.158  0.00  0.00    +0.172 A 
ATOM      4  N   LIG    1       22.519 -16.518   4.568  0.00  0.00    -0.229 NA
ATOM      5  C   LIG    1       23.190 -15.391   4.438  0.00  0.00    +0.203 A 
ATOM      6  N   LIG    1       24.454 -15.589   3.938  0.00  0.00    -0.288 N 
ATOM      7  C   LIG    1       24.603 -16.940   3.766  0.00  0.00    +0.169 A 
ATOM      8  N   LIG    1       25.708 -17.583   3.312  0.00  0.00    -0.218 NA
ATOM      9  C   LIG    1       25.544 -18.871   3.257  0.00  0.00    +0.201 C 
ATOM     10  N   LIG    1       24.394 -19.549   3.620  0.00  0.00    -0.312 N 
ATOM     11  H   LIG    1       24.344 -20.554   3.558  0.00  0.00    +0.170 HD
ENDROOT
BRANCH   6  12
ATOM     12  C   LIG    1       25.487 -14.586   3.729  0.00  0.00    +0.222 C 
ATOM     13  O   LIG    1       25.109 -13.368   4.411  0.00  0.00    -0.351 OA
ATOM     14  C   LIG    1       24.957 -12.320   3.439  0.00  0.00    +0.146 C 
ATOM     15  C   LIG    1       24.855 -12.995   2.082  0.00  0.00    +0.038 C 
ATOM     16  C   LIG    1       25.725 -14.213   2.271  0.00  0.00    +0.057 C 
BRANCH  14  17
ATOM     17  C   LIG    1       23.746 -11.451   3.774  0.00  0.00    +0.187 C 
BRANCH  17  18
ATOM     18  O   LIG    1       23.474 -11.491   5.168  0.00  0.00    -0.393 OA
ATOM     19  H   LIG    1       22.508 -11.559   5.266  0.00  0.00    +0.209 HD
ENDBRANCH  17  18
ENDBRANCH  14  17
ENDBRANCH   6  12
TORSDOF 3
ENDMDL
MODEL 7
REMARK VINA RESULT:      -2.4      4.128      5.830
REMARK  Name = *****
REMARK                            x       y       z     vdW  Elec       q    Type
REMARK                         _______ _______ _______ _____ _____    ______ ____
ROOT
ATOM      1  O   LIG    1       25.806 -20.760   4.497  0.00  0.00    -0.265 OA
ATOM      2  C   LIG    1       26.541 -19.780   4.541  0.00  0.00    +0.279 C 
ATOM      3  C   LIG    1       26.236 -18.460   4.023  0.00  0.00    +0.172 A 
ATOM      4  N   LIG    1       25.116 -17.994   3.388  0.00  0.00    -0.229 NA
ATOM      5  C   LIG    1       25.373 -16.720   3.167  0.00  0.00    +0.203 A 
ATOM      6  N   LIG    1       26.621 -16.354   3.610  0.00  0.00    -0.288 N 
ATOM      7  C   LIG    1       27.181 -17.469   4.176  0.00  0.00    +0.169 A 
ATOM      8  N   LIG    1       28.402 -17.555   4.761  0.00  0.00    -0.218 NA
ATOM      9  C   LIG    1       28.654 -18.750   5.207  0.00  0.00    +0.201 C 
ATOM     10  N   LIG    1       27.800 -19.834   5.122  0.00  0.00    -0.312 N 
ATOM     11  H   LIG    1       28.062 -20.731   5.500  0.00  0.00    +0.170 HD
ENDROOT
BRANCH   6  12
ATOM     12  C   LIG    1       27.207 -15.023   3.591  0.00  0.00    +0.222 C 
ATOM     13  O   LIG    1       26.552 -14.203   4.585  0.00  0.00    -0.351 OA
ATOM     14  C   LIG    1       25.904 -13.102   3.924  0.00  0.00    +0.146 C 
ATOM     15  C   LIG    1       25.826 -13.463   2.451  0.00  0.00    +0.038 C 
ATOM     16  C   LIG    1       27.074 -14.289   2.263  0.00  0.00    +0.057 C 
BRANCH  14  17
ATOM     17  C   LIG    1       24.540 -12.829   4.553  0.00  0.00    +0.187 C 
BRANCH  17  18
ATOM     18  O   LIG    1       23.761 -11.989   3.712  0.00  0.00    -0.393 OA
ATOM     19  H   LIG    1       23.027 -12.531   3.372  0.00  0.00    +0.209 HD
ENDBRANCH  17  18
ENDBRANCH  14  17
ENDBRANCH   6  12
TORSDOF 3
ENDMDL
MODEL 8
REMARK VINA RESULT:      -2.3      3.717      6.143
REMARK  Name = *****
REMARK                            x       y       z     vdW  Elec       q    Type
REMARK                         _______ _______ _______ _____ _____    ______ ____
ROOT
ATOM      1  O   LIG    1       28.079 -20.531   5.573  0.00  0.00    -0.265 OA
ATOM      2  C   LIG    1       27.278 -19.841   4.954  0.00  0.00    +0.279 C 
ATOM      3  C   LIG    1       27.438 -18.439   4.620  0.00  0.00    +0.172 A 
ATOM      4  N   LIG    1       28.463 -17.574   4.894  0.00  0.00    -0.229 NA
ATOM      5  C   LIG    1       28.092 -16.441   4.331  0.00  0.00    +0.203 A 
ATOM      6  N   LIG    1       26.860 -16.534   3.730  0.00  0.00    -0.288 N 
ATOM      7  C   LIG    1       26.435 -17.825   3.901  0.00  0.00    +0.169 A 
ATOM      8  N   LIG    1       25.276 -18.364   3.446  0.00  0.00    -0.218 NA
ATOM      9  C   LIG    1       25.153 -19.617   3.767  0.00  0.00    +0.201 C 
ATOM     10  N   LIG    1       26.078 -20.356   4.482  0.00  0.00    -0.312 N 
ATOM     11  H   LIG    1       25.917 -21.330   4.687  0.00  0.00    +0.170 HD
ENDROOT
BRANCH   6  12
ATOM     12  C   LIG    1       26.174 -15.506   2.963  0.00  0.00    +0.222 C 
ATOM     13  O   LIG    1       27.143 -14.545   2.486  0.00  0.00    -0.351 OA
ATOM     14  C   LIG    1       26.837 -13.258   3.052  0.00  0.00    +0.146 C 
ATOM     15  C   LIG    1       25.892 -13.507   4.214  0.00  0.00    +0.038 C 
ATOM     16  C   LIG    1       25.129 -14.721   3.746  0.00  0.00    +0.057 C 
BRANCH  14  17
ATOM     17  C   LIG    1       28.119 -12.535   3.459  0.00  0.00    +0.187 C 
BRANCH  17  18
ATOM     18  O   LIG    1       29.246 -13.387   3.298  0.00  0.00    -0.393 OA
ATOM     19  H   LIG    1       29.283 -13.632   2.357  0.00  0.00    +0.209 HD
ENDBRANCH  17  18
ENDBRANCH  14  17
ENDBRANCH   6  12
TORSDOF 3
ENDMDL
MODEL 9
REMARK VINA RESULT:      -1.9      2.857      4.418
REMARK  Name = *****
REMARK                            x       y       z     vdW  Elec       q    Type
REMARK                         _______ _______ _______ _____ _____    ______ ____
ROOT
ATOM      1  O   LIG    1       23.538 -14.441   4.041  0.00  0.00    -0.265 OA
ATOM      2  C   LIG    1       23.404 -15.656   4.127  0.00  0.00    +0.279 C 
ATOM      3  C   LIG    1       24.408 -16.651   3.803  0.00  0.00    +0.172 A 
ATOM      4  N   LIG    1       25.689 -16.500   3.343  0.00  0.00    -0.229 NA
ATOM      5  C   LIG    1       26.149 -17.733   3.250  0.00  0.00    +0.203 A 
ATOM      6  N   LIG    1       25.209 -18.669   3.607  0.00  0.00    -0.288 N 
ATOM      7  C   LIG    1       24.085 -17.979   3.978  0.00  0.00    +0.169 A 
ATOM      8  N   LIG    1       22.919 -18.509   4.423  0.00  0.00    -0.218 NA
ATOM      9  C   LIG    1       22.033 -17.597   4.697  0.00  0.00    +0.201 C 
ATOM     10  N   LIG    1       22.222 -16.233   4.570  0.00  0.00    -0.312 N 
ATOM     11  H   LIG    1       21.489 -15.584   4.811  0.00  0.00    +0.170 HD
ENDROOT
BRANCH   6  12
ATOM     12  C   LIG    1       25.388 -20.110   3.688  0.00  0.00    +0.222 C 
ATOM     13  O   LIG    1       24.097 -20.740   3.852  0.00  0.00    -0.351 OA
ATOM     14  C   LIG    1       24.076 -21.434   5.111  0.00  0.00    +0.146 C 
ATOM     15  C   LIG    1       25.241 -20.897   5.924  0.00  0.00    +0.038 C 
ATOM     16  C   LIG    1       26.253 -20.578   4.852  0.00  0.00    +0.057 C 
BRANCH  14  17
ATOM     17  C   LIG    1       22.724 -21.253   5.799  0.00  0.00    +0.187 C 
BRANCH  17  18
ATOM     18  O   LIG    1       21.667 -21.348   4.854  0.00  0.00    -0.393 OA
ATOM     19  H   LIG    1       22.068 -21.255   3.971  0.00  0.00    +0.209 HD
ENDBRANCH  17  18
ENDBRANCH  14  17
ENDBRANCH   6  12
TORSDOF 3
ENDMDL
