MODEL 1
REMARK VINA RESULT:     124.8      0.000      0.000
REMARK  Name = *****
REMARK                            x       y       z     vdW  Elec       q    Type
REMARK                         _______ _______ _______ _____ _____    ______ ____
ROOT
ATOM      1  C   LIG    1       25.017 -14.646   5.057  0.00  0.00    +0.034 A 
ATOM      2  C   LIG    1       26.261 -14.283   5.582  0.00  0.00    +0.027 A 
ATOM      3  C   LIG    1       27.337 -15.212   5.631  0.00  0.00    -0.037 A 
ATOM      4  C   LIG    1       28.610 -14.737   6.286  0.00  0.00    +0.044 C 
ATOM      5  C   LIG    1       27.171 -16.518   5.090  0.00  0.00    +0.040 A 
ATOM      6  C   LIG    1       25.947 -16.809   4.478  0.00  0.00    +0.015 A 
ATOM      7  C   LIG    1       24.897 -15.890   4.457  0.00  0.00    +0.024 A 
ENDROOT
BRANCH   5   8
ATOM      8  C   LIG    1       28.289 -17.546   5.038  0.00  0.00    +0.251 C 
ATOM      9  N   LIG    1       28.027 -18.939   4.902  0.00  0.00    -0.267 N 
ATOM     10  C   LIG    1       26.826 -19.594   5.283  0.00  0.00    +0.042 A 
ATOM     11  C   LIG    1       26.178 -20.481   4.392  0.00  0.00    +0.004 A 
ATOM     12  C   LIG    1       24.966 -21.069   4.811  0.00  0.00    +0.028 A 
ATOM     13  C   LIG    1       24.448 -20.816   6.080  0.00  0.00    +0.041 A 
ATOM     14  C   LIG    1       25.134 -20.000   6.972  0.00  0.00    +0.022 A 
ATOM     15 CL   LIG    1       22.947 -21.517   6.544  0.00  0.00    -0.084 Cl
ATOM     16  C   LIG    1       26.706 -20.722   2.986  0.00  0.00    +0.146 C 
ATOM     17  C   LIG    1       28.092 -21.374   2.951  0.00  0.00    +0.038 C 
ATOM     18  C   LIG    1       29.240 -20.433   3.311  0.00  0.00    +0.022 C 
ATOM     19  C   LIG    1       26.326 -19.393   6.576  0.00  0.00    +0.025 A 
ATOM     20  C   LIG    1       29.157 -19.863   4.722  0.00  0.00    +0.114 C 
ATOM     21  O   LIG    1       29.443 -17.113   5.014  0.00  0.00    -0.270 OA
BRANCH  16  22
ATOM     22  O   LIG    1       25.806 -21.556   2.244  0.00  0.00    -0.387 OA
ATOM     23  H   LIG    1       24.901 -21.365   2.540  0.00  0.00    +0.210 HD
ENDBRANCH  16  22
ENDBRANCH   5   8
BRANCH   1  25
ATOM     24  C   LIG    1       22.623 -14.083   4.771  0.00  0.00    +0.248 C 
ATOM     25  N   LIG    1       23.916 -13.767   5.202  0.00  0.00    -0.281 N 
ATOM     26  H   LIG    1       24.020 -13.013   5.862  0.00  0.00    +0.155 HD
ATOM     27  O   LIG    1       22.293 -15.086   4.171  0.00  0.00    -0.270 OA
BRANCH  24  30
ATOM     28  C   LIG    1       21.261 -12.252   2.805  0.00  0.00    +0.044 C 
ATOM     29  C   LIG    1       20.888 -12.305   4.264  0.00  0.00    -0.038 A 
ATOM     30  C   LIG    1       21.560 -13.122   5.199  0.00  0.00    +0.040 A 
ATOM     31  C   LIG    1       21.220 -13.049   6.562  0.00  0.00    +0.013 A 
ATOM     32  C   LIG    1       20.158 -12.248   6.981  0.00  0.00    +0.001 A 
ATOM     33  C   LIG    1       19.443 -11.501   6.050  0.00  0.00    +0.000 A 
ATOM     34  C   LIG    1       19.817 -11.513   4.707  0.00  0.00    +0.004 A 
ENDBRANCH  24  30
ENDBRANCH   1  25
TORSDOF 4
ENDMDL
