MODEL 1
REMARK VINA RESULT:      -9.1      0.000      0.000
REMARK  Name = *****
REMARK                            x       y       z     vdW  Elec       q    Type
REMARK                         _______ _______ _______ _____ _____    ______ ____
ROOT
ATOM      1  C   LIG    1       29.508 -19.825   7.116  0.00  0.00    +0.118 A 
ATOM      2  C   LIG    1       28.650 -19.423   6.094  0.00  0.00    +0.144 A 
ATOM      3  N   LIG    1       27.491 -20.038   5.826  0.00  0.00    -0.209 NA
ATOM      4  C   LIG    1       27.155 -21.081   6.608  0.00  0.00    +0.184 A 
ATOM      5  N   LIG    1       27.922 -21.579   7.595  0.00  0.00    -0.209 NA
ATOM      6  C   LIG    1       29.082 -20.948   7.830  0.00  0.00    +0.144 A 
ENDROOT
BRANCH   4   7
ATOM      7  C   LIG    1       25.827 -21.698   6.397  0.00  0.00    +0.139 A 
ATOM      8  C   LIG    1       24.656 -21.076   5.850  0.00  0.00    +0.050 A 
ATOM      9  C   LIG    1       23.683 -22.067   5.846  0.00  0.00    +0.159 A 
ATOM     10  N   LIG    1       22.409 -21.965   5.414  0.00  0.00    -0.236 NA
ATOM     11  C   LIG    1       22.103 -20.737   4.947  0.00  0.00    +0.113 A 
ATOM     12  C   LIG    1       22.974 -19.655   4.895  0.00  0.00    +0.020 A 
ATOM     13  N   LIG    1       24.276 -23.172   6.383  0.00  0.00    -0.241 N 
ATOM     14  C   LIG    1       24.283 -19.815   5.352  0.00  0.00    +0.015 A 
ATOM     15  N   LIG    1       25.580 -22.996   6.695  0.00  0.00    -0.165 NA
BRANCH  13  16
ATOM     16  C   LIG    1       23.635 -24.458   6.615  0.00  0.00    +0.183 C 
BRANCH  16  17
ATOM     17  C   LIG    1       24.487 -25.602   6.132  0.00  0.00    +0.009 A 
ATOM     18  C   LIG    1       25.020 -25.590   4.842  0.00  0.00    +0.128 A 
ATOM     19  F   LIG    1       24.783 -24.553   4.027  0.00  0.00    -0.205 F 
ATOM     20  C   LIG    1       25.815 -26.635   4.376  0.00  0.00    +0.039 A 
ATOM     21  C   LIG    1       26.090 -27.719   5.207  0.00  0.00    +0.003 A 
ATOM     22  C   LIG    1       25.571 -27.750   6.500  0.00  0.00    +0.001 A 
ATOM     23  C   LIG    1       24.780 -26.696   6.963  0.00  0.00    +0.008 A 
ENDBRANCH  16  17
ENDBRANCH  13  16
ENDBRANCH   4   7
BRANCH   1  25
ATOM     24  C   LIG    1       30.796 -18.103   8.308  0.00  0.00    +0.407 C 
ATOM     25  N   LIG    1       30.752 -19.177   7.420  0.00  0.00    -0.234 N 
ATOM     26  C   LIG    1       31.805 -19.332   6.420  0.00  0.00    +0.142 C 
ATOM     27  O   LIG    1       29.862 -17.699   8.986  0.00  0.00    -0.226 OA
BRANCH  24  29
ATOM     28  C   LIG    1       32.293 -16.583   9.368  0.00  0.00    +0.282 C 
ATOM     29  O   LIG    1       32.051 -17.563   8.360  0.00  0.00    -0.453 OA
ENDBRANCH  24  29
ENDBRANCH   1  25
BRANCH   2  30
ATOM     30  N   LIG    1       28.969 -18.385   5.208  0.00  0.00    -0.342 N 
ATOM     31  H   LIG    1       29.983 -18.263   5.196  0.00  0.00    +0.144 HD
ATOM     32  H   LIG    1       28.512 -17.553   5.574  0.00  0.00    +0.144 HD
ENDBRANCH   2  30
BRANCH   6  33
ATOM     33  N   LIG    1       29.853 -21.508   8.856  0.00  0.00    -0.342 N 
ATOM     34  H   LIG    1       29.519 -22.454   9.016  0.00  0.00    +0.144 HD
ATOM     35  H   LIG    1       29.816 -20.934   9.693  0.00  0.00    +0.144 HD
ENDBRANCH   6  33
TORSDOF 7
ENDMDL
MODEL 2
REMARK VINA RESULT:      -8.2      4.906      8.866
REMARK  Name = *****
REMARK                            x       y       z     vdW  Elec       q    Type
REMARK                         _______ _______ _______ _____ _____    ______ ____
ROOT
ATOM      1  C   LIG    1       25.070 -28.472   6.928  0.00  0.00    +0.118 A 
ATOM      2  C   LIG    1       25.870 -27.538   7.584  0.00  0.00    +0.144 A 
ATOM      3  N   LIG    1       25.935 -26.249   7.227  0.00  0.00    -0.209 NA
ATOM      4  C   LIG    1       25.168 -25.860   6.192  0.00  0.00    +0.184 A 
ATOM      5  N   LIG    1       24.390 -26.681   5.462  0.00  0.00    -0.209 NA
ATOM      6  C   LIG    1       24.356 -27.968   5.839  0.00  0.00    +0.144 A 
ENDROOT
BRANCH   4   7
ATOM      7  C   LIG    1       25.142 -24.420   5.858  0.00  0.00    +0.139 A 
ATOM      8  C   LIG    1       25.473 -23.322   6.719  0.00  0.00    +0.050 A 
ATOM      9  C   LIG    1       25.307 -22.183   5.942  0.00  0.00    +0.159 A 
ATOM     10  N   LIG    1       25.509 -20.901   6.309  0.00  0.00    -0.236 NA
ATOM     11  C   LIG    1       25.913 -20.773   7.590  0.00  0.00    +0.113 A 
ATOM     12  C   LIG    1       26.117 -21.822   8.480  0.00  0.00    +0.020 A 
ATOM     13  N   LIG    1       24.884 -22.625   4.722  0.00  0.00    -0.241 N 
ATOM     14  C   LIG    1       25.897 -23.130   8.047  0.00  0.00    +0.015 A 
ATOM     15  N   LIG    1       24.807 -23.971   4.625  0.00  0.00    -0.165 NA
BRANCH  13  16
ATOM     16  C   LIG    1       24.545 -21.787   3.581  0.00  0.00    +0.183 C 
BRANCH  16  17
ATOM     17  C   LIG    1       23.727 -20.590   3.990  0.00  0.00    +0.009 A 
ATOM     18  C   LIG    1       24.179 -19.298   3.713  0.00  0.00    +0.128 A 
ATOM     19  F   LIG    1       25.343 -19.116   3.073  0.00  0.00    -0.205 F 
ATOM     20  C   LIG    1       23.438 -18.176   4.078  0.00  0.00    +0.039 A 
ATOM     21  C   LIG    1       22.218 -18.336   4.731  0.00  0.00    +0.003 A 
ATOM     22  C   LIG    1       21.745 -19.617   5.013  0.00  0.00    +0.001 A 
ATOM     23  C   LIG    1       22.492 -20.738   4.640  0.00  0.00    +0.008 A 
ENDBRANCH  16  17
ENDBRANCH  13  16
ENDBRANCH   4   7
BRANCH   1  25
ATOM     24  C   LIG    1       25.371 -30.856   6.406  0.00  0.00    +0.407 C 
ATOM     25  N   LIG    1       24.986 -29.856   7.298  0.00  0.00    -0.234 N 
ATOM     26  C   LIG    1       24.043 -30.167   8.369  0.00  0.00    +0.142 C 
ATOM     27  O   LIG    1       25.912 -30.676   5.323  0.00  0.00    -0.226 OA
BRANCH  24  29
ATOM     28  C   LIG    1       24.590 -33.070   6.003  0.00  0.00    +0.282 C 
ATOM     29  O   LIG    1       25.099 -32.096   6.913  0.00  0.00    -0.453 OA
ENDBRANCH  24  29
ENDBRANCH   1  25
BRANCH   2  30
ATOM     30  N   LIG    1       26.736 -27.890   8.628  0.00  0.00    -0.342 N 
ATOM     31  H   LIG    1       26.262 -28.562   9.236  0.00  0.00    +0.144 HD
ATOM     32  H   LIG    1       26.935 -27.029   9.132  0.00  0.00    +0.144 HD
ENDBRANCH   2  30
BRANCH   6  33
ATOM     33  N   LIG    1       23.544 -28.787   5.043  0.00  0.00    -0.342 N 
ATOM     34  H   LIG    1       24.090 -29.081   4.240  0.00  0.00    +0.144 HD
ATOM     35  H   LIG    1       22.690 -28.305   4.779  0.00  0.00    +0.144 HD
ENDBRANCH   6  33
TORSDOF 7
ENDMDL
MODEL 3
REMARK VINA RESULT:      -8.2      1.281      1.969
REMARK  Name = *****
REMARK                            x       y       z     vdW  Elec       q    Type
REMARK                         _______ _______ _______ _____ _____    ______ ____
ROOT
ATOM      1  C   LIG    1       30.109 -19.763   8.240  0.00  0.00    +0.118 A 
ATOM      2  C   LIG    1       29.703 -21.062   8.538  0.00  0.00    +0.144 A 
ATOM      3  N   LIG    1       28.568 -21.599   8.072  0.00  0.00    -0.209 NA
ATOM      4  C   LIG    1       27.810 -20.831   7.268  0.00  0.00    +0.184 A 
ATOM      5  N   LIG    1       28.084 -19.553   6.947  0.00  0.00    -0.209 NA
ATOM      6  C   LIG    1       29.222 -19.041   7.438  0.00  0.00    +0.144 A 
ENDROOT
BRANCH   4   7
ATOM      7  C   LIG    1       26.614 -21.448   6.655  0.00  0.00    +0.139 A 
ATOM      8  C   LIG    1       25.847 -20.950   5.550  0.00  0.00    +0.050 A 
ATOM      9  C   LIG    1       24.844 -21.888   5.347  0.00  0.00    +0.159 A 
ATOM     10  N   LIG    1       23.874 -21.865   4.409  0.00  0.00    -0.236 NA
ATOM     11  C   LIG    1       23.935 -20.779   3.610  0.00  0.00    +0.113 A 
ATOM     12  C   LIG    1       24.880 -19.764   3.701  0.00  0.00    +0.020 A 
ATOM     13  N   LIG    1       25.030 -22.844   6.303  0.00  0.00    -0.241 N 
ATOM     14  C   LIG    1       25.864 -19.839   4.688  0.00  0.00    +0.015 A 
ATOM     15  N   LIG    1       26.110 -22.629   7.088  0.00  0.00    -0.165 NA
BRANCH  13  16
ATOM     16  C   LIG    1       24.197 -24.020   6.510  0.00  0.00    +0.183 C 
BRANCH  16  17
ATOM     17  C   LIG    1       24.920 -25.289   6.146  0.00  0.00    +0.009 A 
ATOM     18  C   LIG    1       25.188 -25.590   4.809  0.00  0.00    +0.128 A 
ATOM     19  F   LIG    1       24.808 -24.745   3.840  0.00  0.00    -0.205 F 
ATOM     20  C   LIG    1       25.861 -26.756   4.448  0.00  0.00    +0.039 A 
ATOM     21  C   LIG    1       26.280 -27.645   5.435  0.00  0.00    +0.003 A 
ATOM     22  C   LIG    1       26.027 -27.362   6.777  0.00  0.00    +0.001 A 
ATOM     23  C   LIG    1       25.357 -26.189   7.131  0.00  0.00    +0.008 A 
ENDBRANCH  16  17
ENDBRANCH  13  16
ENDBRANCH   4   7
BRANCH   1  25
ATOM     24  C   LIG    1       31.359 -18.544   9.972  0.00  0.00    +0.407 C 
ATOM     25  N   LIG    1       31.323 -19.171   8.727  0.00  0.00    -0.234 N 
ATOM     26  C   LIG    1       32.303 -18.809   7.707  0.00  0.00    +0.142 C 
ATOM     27  O   LIG    1       30.453 -18.540  10.795  0.00  0.00    -0.226 OA
BRANCH  24  29
ATOM     28  C   LIG    1       32.558 -16.631  10.729  0.00  0.00    +0.282 C 
ATOM     29  O   LIG    1       32.571 -17.949  10.185  0.00  0.00    -0.453 OA
ENDBRANCH  24  29
ENDBRANCH   1  25
BRANCH   2  30
ATOM     30  N   LIG    1       30.414 -21.891   9.415  0.00  0.00    -0.342 N 
ATOM     31  H   LIG    1       31.347 -22.054   9.030  0.00  0.00    +0.144 HD
ATOM     32  H   LIG    1       29.890 -22.762   9.468  0.00  0.00    +0.144 HD
ENDBRANCH   2  30
BRANCH   6  33
ATOM     33  N   LIG    1       29.458 -17.706   7.089  0.00  0.00    -0.342 N 
ATOM     34  H   LIG    1       30.242 -17.373   7.643  0.00  0.00    +0.144 HD
ATOM     35  H   LIG    1       28.623 -17.143   7.217  0.00  0.00    +0.144 HD
ENDBRANCH   6  33
TORSDOF 7
ENDMDL
MODEL 4
REMARK VINA RESULT:      -8.0      1.436      4.295
REMARK  Name = *****
REMARK                            x       y       z     vdW  Elec       q    Type
REMARK                         _______ _______ _______ _____ _____    ______ ____
ROOT
ATOM      1  C   LIG    1       29.827 -20.049   7.859  0.00  0.00    +0.118 A 
ATOM      2  C   LIG    1       28.986 -19.533   6.875  0.00  0.00    +0.144 A 
ATOM      3  N   LIG    1       27.846 -20.128   6.500  0.00  0.00    -0.209 NA
ATOM      4  C   LIG    1       27.513 -21.269   7.131  0.00  0.00    +0.184 A 
ATOM      5  N   LIG    1       28.268 -21.877   8.065  0.00  0.00    -0.209 NA
ATOM      6  C   LIG    1       29.408 -21.262   8.410  0.00  0.00    +0.144 A 
ENDROOT
BRANCH   4   7
ATOM      7  C   LIG    1       26.204 -21.876   6.809  0.00  0.00    +0.139 A 
ATOM      8  C   LIG    1       25.881 -23.273   6.758  0.00  0.00    +0.050 A 
ATOM      9  C   LIG    1       24.533 -23.326   6.429  0.00  0.00    +0.159 A 
ATOM     10  N   LIG    1       23.769 -24.427   6.274  0.00  0.00    -0.236 NA
ATOM     11  C   LIG    1       24.447 -25.576   6.468  0.00  0.00    +0.113 A 
ATOM     12  C   LIG    1       25.795 -25.671   6.797  0.00  0.00    +0.020 A 
ATOM     13  N   LIG    1       24.136 -22.029   6.283  0.00  0.00    -0.241 N 
ATOM     14  C   LIG    1       26.539 -24.501   6.950  0.00  0.00    +0.015 A 
ATOM     15  N   LIG    1       25.109 -21.127   6.539  0.00  0.00    -0.165 NA
BRANCH  13  16
ATOM     16  C   LIG    1       22.802 -21.582   5.905  0.00  0.00    +0.183 C 
BRANCH  16  17
ATOM     17  C   LIG    1       22.849 -20.329   5.071  0.00  0.00    +0.009 A 
ATOM     18  C   LIG    1       23.602 -20.291   3.896  0.00  0.00    +0.128 A 
ATOM     19  F   LIG    1       24.284 -21.375   3.500  0.00  0.00    -0.205 F 
ATOM     20  C   LIG    1       23.656 -19.145   3.106  0.00  0.00    +0.039 A 
ATOM     21  C   LIG    1       22.945 -18.009   3.486  0.00  0.00    +0.003 A 
ATOM     22  C   LIG    1       22.183 -18.026   4.653  0.00  0.00    +0.001 A 
ATOM     23  C   LIG    1       22.129 -19.180   5.438  0.00  0.00    +0.008 A 
ENDBRANCH  16  17
ENDBRANCH  13  16
ENDBRANCH   4   7
BRANCH   1  25
ATOM     24  C   LIG    1       31.081 -18.600   9.399  0.00  0.00    +0.407 C 
ATOM     25  N   LIG    1       31.050 -19.424   8.275  0.00  0.00    -0.234 N 
ATOM     26  C   LIG    1       32.066 -19.269   7.237  0.00  0.00    +0.142 C 
ATOM     27  O   LIG    1       30.158 -18.428  10.184  0.00  0.00    -0.226 OA
BRANCH  24  29
ATOM     28  C   LIG    1       32.344 -16.595   9.641  0.00  0.00    +0.282 C 
ATOM     29  O   LIG    1       32.309 -18.017   9.546  0.00  0.00    -0.453 OA
ENDBRANCH  24  29
ENDBRANCH   1  25
BRANCH   2  30
ATOM     30  N   LIG    1       29.304 -18.383   6.140  0.00  0.00    -0.342 N 
ATOM     31  H   LIG    1       28.498 -18.127   5.565  0.00  0.00    +0.144 HD
ATOM     32  H   LIG    1       30.097 -18.634   5.554  0.00  0.00    +0.144 HD
ENDBRANCH   2  30
BRANCH   6  33
ATOM     33  N   LIG    1       30.166 -21.938   9.375  0.00  0.00    -0.342 N 
ATOM     34  H   LIG    1       30.400 -21.275  10.108  0.00  0.00    +0.144 HD
ATOM     35  H   LIG    1       30.988 -22.364   8.958  0.00  0.00    +0.144 HD
ENDBRANCH   6  33
TORSDOF 7
ENDMDL
MODEL 5
REMARK VINA RESULT:      -7.4      1.467      4.560
REMARK  Name = *****
REMARK                            x       y       z     vdW  Elec       q    Type
REMARK                         _______ _______ _______ _____ _____    ______ ____
ROOT
ATOM      1  C   LIG    1       29.818 -20.140   7.886  0.00  0.00    +0.118 A 
ATOM      2  C   LIG    1       29.366 -21.326   8.461  0.00  0.00    +0.144 A 
ATOM      3  N   LIG    1       28.176 -21.871   8.177  0.00  0.00    -0.209 NA
ATOM      4  C   LIG    1       27.407 -21.231   7.277  0.00  0.00    +0.184 A 
ATOM      5  N   LIG    1       27.724 -20.061   6.691  0.00  0.00    -0.209 NA
ATOM      6  C   LIG    1       28.917 -19.536   7.006  0.00  0.00    +0.144 A 
ENDROOT
BRANCH   4   7
ATOM      7  C   LIG    1       26.142 -21.879   6.869  0.00  0.00    +0.139 A 
ATOM      8  C   LIG    1       25.871 -23.286   6.791  0.00  0.00    +0.050 A 
ATOM      9  C   LIG    1       24.549 -23.382   6.376  0.00  0.00    +0.159 A 
ATOM     10  N   LIG    1       23.834 -24.506   6.166  0.00  0.00    -0.236 NA
ATOM     11  C   LIG    1       24.538 -25.634   6.397  0.00  0.00    +0.113 A 
ATOM     12  C   LIG    1       25.864 -25.686   6.812  0.00  0.00    +0.020 A 
ATOM     13  N   LIG    1       24.118 -22.098   6.212  0.00  0.00    -0.241 N 
ATOM     14  C   LIG    1       26.557 -24.492   7.017  0.00  0.00    +0.015 A 
ATOM     15  N   LIG    1       25.041 -21.165   6.534  0.00  0.00    -0.165 NA
BRANCH  13  16
ATOM     16  C   LIG    1       22.797 -21.694   5.751  0.00  0.00    +0.183 C 
BRANCH  16  17
ATOM     17  C   LIG    1       22.844 -20.395   4.990  0.00  0.00    +0.009 A 
ATOM     18  C   LIG    1       23.612 -20.284   3.830  0.00  0.00    +0.128 A 
ATOM     19  F   LIG    1       24.309 -21.338   3.382  0.00  0.00    -0.205 F 
ATOM     20  C   LIG    1       23.668 -19.094   3.107  0.00  0.00    +0.039 A 
ATOM     21  C   LIG    1       22.942 -17.987   3.541  0.00  0.00    +0.003 A 
ATOM     22  C   LIG    1       22.164 -18.077   4.695  0.00  0.00    +0.001 A 
ATOM     23  C   LIG    1       22.110 -19.275   5.412  0.00  0.00    +0.008 A 
ENDBRANCH  16  17
ENDBRANCH  13  16
ENDBRANCH   4   7
BRANCH   1  25
ATOM     24  C   LIG    1       31.298 -18.857   9.373  0.00  0.00    +0.407 C 
ATOM     25  N   LIG    1       31.090 -19.542   8.176  0.00  0.00    -0.234 N 
ATOM     26  C   LIG    1       31.926 -19.241   7.017  0.00  0.00    +0.142 C 
ATOM     27  O   LIG    1       30.511 -18.800  10.308  0.00  0.00    -0.226 OA
BRANCH  24  29
ATOM     28  C   LIG    1       32.603 -16.929   9.877  0.00  0.00    +0.282 C 
ATOM     29  O   LIG    1       32.531 -18.268   9.392  0.00  0.00    -0.453 OA
ENDBRANCH  24  29
ENDBRANCH   1  25
BRANCH   2  30
ATOM     30  N   LIG    1       30.091 -22.008   9.447  0.00  0.00    -0.342 N 
ATOM     31  H   LIG    1       29.541 -22.023  10.309  0.00  0.00    +0.144 HD
ATOM     32  H   LIG    1       30.952 -21.482   9.579  0.00  0.00    +0.144 HD
ENDBRANCH   2  30
BRANCH   6  33
ATOM     33  N   LIG    1       29.198 -18.313   6.382  0.00  0.00    -0.342 N 
ATOM     34  H   LIG    1       28.842 -17.571   6.977  0.00  0.00    +0.144 HD
ATOM     35  H   LIG    1       28.806 -18.284   5.446  0.00  0.00    +0.144 HD
ENDBRANCH   6  33
TORSDOF 7
ENDMDL
MODEL 6
REMARK VINA RESULT:      -7.4      1.649      2.613
REMARK  Name = *****
REMARK                            x       y       z     vdW  Elec       q    Type
REMARK                         _______ _______ _______ _____ _____    ______ ____
ROOT
ATOM      1  C   LIG    1       29.555 -20.219   7.499  0.00  0.00    +0.118 A 
ATOM      2  C   LIG    1       29.397 -21.399   8.223  0.00  0.00    +0.144 A 
ATOM      3  N   LIG    1       28.384 -22.251   8.022  0.00  0.00    -0.209 NA
ATOM      4  C   LIG    1       27.500 -21.937   7.056  0.00  0.00    +0.184 A 
ATOM      5  N   LIG    1       27.533 -20.809   6.324  0.00  0.00    -0.209 NA
ATOM      6  C   LIG    1       28.553 -19.971   6.558  0.00  0.00    +0.144 A 
ENDROOT
BRANCH   4   7
ATOM      7  C   LIG    1       26.443 -22.923   6.745  0.00  0.00    +0.139 A 
ATOM      8  C   LIG    1       25.031 -22.781   6.958  0.00  0.00    +0.050 A 
ATOM      9  C   LIG    1       24.470 -23.963   6.492  0.00  0.00    +0.159 A 
ATOM     10  N   LIG    1       23.163 -24.299   6.471  0.00  0.00    -0.236 NA
ATOM     11  C   LIG    1       22.361 -23.341   6.978  0.00  0.00    +0.113 A 
ATOM     12  C   LIG    1       22.785 -22.116   7.480  0.00  0.00    +0.020 A 
ATOM     13  N   LIG    1       25.516 -24.728   6.065  0.00  0.00    -0.241 N 
ATOM     14  C   LIG    1       24.148 -21.817   7.474  0.00  0.00    +0.015 A 
ATOM     15  N   LIG    1       26.718 -24.118   6.170  0.00  0.00    -0.165 NA
BRANCH  13  16
ATOM     16  C   LIG    1       25.422 -26.075   5.521  0.00  0.00    +0.183 C 
BRANCH  16  17
ATOM     17  C   LIG    1       25.463 -27.119   6.605  0.00  0.00    +0.009 A 
ATOM     18  C   LIG    1       24.599 -28.216   6.562  0.00  0.00    +0.128 A 
ATOM     19  F   LIG    1       23.733 -28.349   5.548  0.00  0.00    -0.205 F 
ATOM     20  C   LIG    1       24.621 -29.197   7.551  0.00  0.00    +0.039 A 
ATOM     21  C   LIG    1       25.522 -29.091   8.609  0.00  0.00    +0.003 A 
ATOM     22  C   LIG    1       26.396 -28.007   8.670  0.00  0.00    +0.001 A 
ATOM     23  C   LIG    1       26.372 -27.030   7.672  0.00  0.00    +0.008 A 
ENDBRANCH  16  17
ENDBRANCH  13  16
ENDBRANCH   4   7
BRANCH   1  25
ATOM     24  C   LIG    1       30.534 -18.277   8.647  0.00  0.00    +0.407 C 
ATOM     25  N   LIG    1       30.635 -19.295   7.699  0.00  0.00    -0.234 N 
ATOM     26  C   LIG    1       31.557 -19.147   6.575  0.00  0.00    +0.142 C 
ATOM     27  O   LIG    1       29.625 -18.142   9.454  0.00  0.00    -0.226 OA
BRANCH  24  29
ATOM     28  C   LIG    1       32.088 -16.908   9.823  0.00  0.00    +0.282 C 
ATOM     29  O   LIG    1       31.618 -17.445   8.589  0.00  0.00    -0.453 OA
ENDBRANCH  24  29
ENDBRANCH   1  25
BRANCH   2  30
ATOM     30  N   LIG    1       30.246 -21.753   9.280  0.00  0.00    -0.342 N 
ATOM     31  H   LIG    1       29.805 -22.502   9.819  0.00  0.00    +0.144 HD
ATOM     32  H   LIG    1       30.352 -20.916   9.849  0.00  0.00    +0.144 HD
ENDBRANCH   2  30
BRANCH   6  33
ATOM     33  N   LIG    1       28.539 -18.804   5.783  0.00  0.00    -0.342 N 
ATOM     34  H   LIG    1       28.526 -18.009   6.415  0.00  0.00    +0.144 HD
ATOM     35  H   LIG    1       27.752 -18.804   5.140  0.00  0.00    +0.144 HD
ENDBRANCH   6  33
TORSDOF 7
ENDMDL
MODEL 7
REMARK VINA RESULT:      -7.3      6.998     10.917
REMARK  Name = *****
REMARK                            x       y       z     vdW  Elec       q    Type
REMARK                         _______ _______ _______ _____ _____    ______ ____
ROOT
ATOM      1  C   LIG    1       22.932 -30.091  11.888  0.00  0.00    +0.118 A 
ATOM      2  C   LIG    1       24.252 -29.751  11.597  0.00  0.00    +0.144 A 
ATOM      3  N   LIG    1       24.752 -29.755  10.354  0.00  0.00    -0.209 NA
ATOM      4  C   LIG    1       23.914 -30.092   9.357  0.00  0.00    +0.184 A 
ATOM      5  N   LIG    1       22.635 -30.475   9.525  0.00  0.00    -0.209 NA
ATOM      6  C   LIG    1       22.168 -30.472  10.782  0.00  0.00    +0.144 A 
ENDROOT
BRANCH   4   7
ATOM      7  C   LIG    1       24.420 -29.991   7.971  0.00  0.00    +0.139 A 
ATOM      8  C   LIG    1       24.973 -31.043   7.167  0.00  0.00    +0.050 A 
ATOM      9  C   LIG    1       25.282 -30.451   5.950  0.00  0.00    +0.159 A 
ATOM     10  N   LIG    1       25.819 -31.042   4.862  0.00  0.00    -0.236 NA
ATOM     11  C   LIG    1       26.066 -32.356   5.040  0.00  0.00    +0.113 A 
ATOM     12  C   LIG    1       25.810 -33.075   6.202  0.00  0.00    +0.020 A 
ATOM     13  N   LIG    1       24.940 -29.137   6.079  0.00  0.00    -0.241 N 
ATOM     14  C   LIG    1       25.250 -32.416   7.297  0.00  0.00    +0.015 A 
ATOM     15  N   LIG    1       24.384 -28.831   7.272  0.00  0.00    -0.165 NA
BRANCH  13  16
ATOM     16  C   LIG    1       25.113 -28.106   5.065  0.00  0.00    +0.183 C 
BRANCH  16  17
ATOM     17  C   LIG    1       25.060 -26.723   5.660  0.00  0.00    +0.009 A 
ATOM     18  C   LIG    1       26.232 -26.086   6.072  0.00  0.00    +0.128 A 
ATOM     19  F   LIG    1       27.415 -26.700   5.932  0.00  0.00    -0.205 F 
ATOM     20  C   LIG    1       26.208 -24.805   6.620  0.00  0.00    +0.039 A 
ATOM     21  C   LIG    1       24.993 -24.137   6.763  0.00  0.00    +0.003 A 
ATOM     22  C   LIG    1       23.811 -24.753   6.354  0.00  0.00    +0.001 A 
ATOM     23  C   LIG    1       23.843 -26.035   5.801  0.00  0.00    +0.008 A 
ENDBRANCH  16  17
ENDBRANCH  13  16
ENDBRANCH   4   7
BRANCH   1  25
ATOM     24  C   LIG    1       21.939 -28.903  13.798  0.00  0.00    +0.407 C 
ATOM     25  N   LIG    1       22.378 -30.089  13.212  0.00  0.00    -0.234 N 
ATOM     26  C   LIG    1       22.763 -31.215  14.059  0.00  0.00    +0.142 C 
ATOM     27  O   LIG    1       21.862 -27.817  13.240  0.00  0.00    -0.226 OA
BRANCH  24  29
ATOM     28  C   LIG    1       20.308 -28.564  15.500  0.00  0.00    +0.282 C 
ATOM     29  O   LIG    1       21.562 -29.108  15.096  0.00  0.00    -0.453 OA
ENDBRANCH  24  29
ENDBRANCH   1  25
BRANCH   2  30
ATOM     30  N   LIG    1       25.189 -29.449  12.594  0.00  0.00    -0.342 N 
ATOM     31  H   LIG    1       25.994 -30.070  12.486  0.00  0.00    +0.144 HD
ATOM     32  H   LIG    1       24.721 -29.618  13.481  0.00  0.00    +0.144 HD
ENDBRANCH   2  30
BRANCH   6  33
ATOM     33  N   LIG    1       20.838 -30.890  10.911  0.00  0.00    -0.342 N 
ATOM     34  H   LIG    1       20.696 -31.189  11.871  0.00  0.00    +0.144 HD
ATOM     35  H   LIG    1       20.619 -31.619  10.239  0.00  0.00    +0.144 HD
ENDBRANCH   6  33
TORSDOF 7
ENDMDL
MODEL 8
REMARK VINA RESULT:      -7.1      8.315     12.666
REMARK  Name = *****
REMARK                            x       y       z     vdW  Elec       q    Type
REMARK                         _______ _______ _______ _____ _____    ______ ____
ROOT
ATOM      1  C   LIG    1       20.084 -31.715  11.255  0.00  0.00    +0.118 A 
ATOM      2  C   LIG    1       20.766 -32.365  10.229  0.00  0.00    +0.144 A 
ATOM      3  N   LIG    1       21.880 -31.880   9.667  0.00  0.00    -0.209 NA
ATOM      4  C   LIG    1       22.351 -30.714  10.146  0.00  0.00    +0.184 A 
ATOM      5  N   LIG    1       21.754 -29.981  11.104  0.00  0.00    -0.209 NA
ATOM      6  C   LIG    1       20.635 -30.490  11.639  0.00  0.00    +0.144 A 
ENDROOT
BRANCH   4   7
ATOM      7  C   LIG    1       23.641 -30.223   9.614  0.00  0.00    +0.139 A 
ATOM      8  C   LIG    1       24.832 -29.929  10.356  0.00  0.00    +0.050 A 
ATOM      9  C   LIG    1       25.762 -29.519   9.410  0.00  0.00    +0.159 A 
ATOM     10  N   LIG    1       27.040 -29.144   9.622  0.00  0.00    -0.236 NA
ATOM     11  C   LIG    1       27.397 -29.189  10.923  0.00  0.00    +0.113 A 
ATOM     12  C   LIG    1       26.572 -29.575  11.972  0.00  0.00    +0.020 A 
ATOM     13  N   LIG    1       25.114 -29.561   8.210  0.00  0.00    -0.241 N 
ATOM     14  C   LIG    1       25.258 -29.957  11.696  0.00  0.00    +0.015 A 
ATOM     15  N   LIG    1       23.843 -30.015   8.291  0.00  0.00    -0.165 NA
BRANCH  13  16
ATOM     16  C   LIG    1       25.676 -29.185   6.921  0.00  0.00    +0.183 C 
BRANCH  16  17
ATOM     17  C   LIG    1       25.394 -27.743   6.588  0.00  0.00    +0.009 A 
ATOM     18  C   LIG    1       24.372 -27.412   5.696  0.00  0.00    +0.128 A 
ATOM     19  F   LIG    1       23.629 -28.377   5.136  0.00  0.00    -0.205 F 
ATOM     20  C   LIG    1       24.090 -26.085   5.377  0.00  0.00    +0.039 A 
ATOM     21  C   LIG    1       24.836 -25.061   5.956  0.00  0.00    +0.003 A 
ATOM     22  C   LIG    1       25.858 -25.369   6.852  0.00  0.00    +0.001 A 
ATOM     23  C   LIG    1       26.132 -26.701   7.172  0.00  0.00    +0.008 A 
ENDBRANCH  16  17
ENDBRANCH  13  16
ENDBRANCH   4   7
BRANCH   1  25
ATOM     24  C   LIG    1       17.634 -31.783  11.455  0.00  0.00    +0.407 C 
ATOM     25  N   LIG    1       18.891 -32.221  11.872  0.00  0.00    -0.234 N 
ATOM     26  C   LIG    1       19.057 -32.766  13.216  0.00  0.00    +0.142 C 
ATOM     27  O   LIG    1       17.413 -31.061  10.492  0.00  0.00    -0.226 OA
BRANCH  24  29
ATOM     28  C   LIG    1       15.786 -31.364  12.898  0.00  0.00    +0.282 C 
ATOM     29  O   LIG    1       16.648 -32.297  12.250  0.00  0.00    -0.453 OA
ENDBRANCH  24  29
ENDBRANCH   1  25
BRANCH   2  30
ATOM     30  N   LIG    1       20.296 -33.549   9.645  0.00  0.00    -0.342 N 
ATOM     31  H   LIG    1       20.200 -33.404   8.638  0.00  0.00    +0.144 HD
ATOM     32  H   LIG    1       19.389 -33.732  10.069  0.00  0.00    +0.144 HD
ENDBRANCH   2  30
BRANCH   6  33
ATOM     33  N   LIG    1       20.042 -29.687  12.622  0.00  0.00    -0.342 N 
ATOM     34  H   LIG    1       19.122 -30.068  12.823  0.00  0.00    +0.144 HD
ATOM     35  H   LIG    1       20.006 -28.717  12.326  0.00  0.00    +0.144 HD
ENDBRANCH   6  33
TORSDOF 7
ENDMDL
MODEL 9
REMARK VINA RESULT:      -7.1      6.560      9.871
REMARK  Name = *****
REMARK                            x       y       z     vdW  Elec       q    Type
REMARK                         _______ _______ _______ _____ _____    ______ ____
ROOT
ATOM      1  C   LIG    1       26.596 -29.822  12.165  0.00  0.00    +0.118 A 
ATOM      2  C   LIG    1       27.623 -29.311  11.374  0.00  0.00    +0.144 A 
ATOM      3  N   LIG    1       27.426 -28.826  10.141  0.00  0.00    -0.209 NA
ATOM      4  C   LIG    1       26.165 -28.831   9.674  0.00  0.00    +0.184 A 
ATOM      5  N   LIG    1       25.105 -29.336  10.332  0.00  0.00    -0.209 NA
ATOM      6  C   LIG    1       25.337 -29.824  11.560  0.00  0.00    +0.144 A 
ENDROOT
BRANCH   4   7
ATOM      7  C   LIG    1       25.915 -28.197   8.362  0.00  0.00    +0.139 A 
ATOM      8  C   LIG    1       25.253 -28.775   7.228  0.00  0.00    +0.050 A 
ATOM      9  C   LIG    1       25.257 -27.783   6.256  0.00  0.00    +0.159 A 
ATOM     10  N   LIG    1       24.739 -27.849   5.012  0.00  0.00    -0.236 NA
ATOM     11  C   LIG    1       24.170 -29.041   4.737  0.00  0.00    +0.113 A 
ATOM     12  C   LIG    1       24.098 -30.120   5.610  0.00  0.00    +0.020 A 
ATOM     13  N   LIG    1       25.906 -26.720   6.814  0.00  0.00    -0.241 N 
ATOM     14  C   LIG    1       24.647 -29.997   6.887  0.00  0.00    +0.015 A 
ATOM     15  N   LIG    1       26.285 -26.922   8.095  0.00  0.00    -0.165 NA
BRANCH  13  16
ATOM     16  C   LIG    1       26.186 -25.450   6.158  0.00  0.00    +0.183 C 
BRANCH  16  17
ATOM     17  C   LIG    1       25.202 -24.384   6.563  0.00  0.00    +0.009 A 
ATOM     18  C   LIG    1       25.652 -23.171   7.089  0.00  0.00    +0.128 A 
ATOM     19  F   LIG    1       26.967 -22.946   7.230  0.00  0.00    -0.205 F 
ATOM     20  C   LIG    1       24.762 -22.168   7.466  0.00  0.00    +0.039 A 
ATOM     21  C   LIG    1       23.391 -22.369   7.317  0.00  0.00    +0.003 A 
ATOM     22  C   LIG    1       22.920 -23.571   6.789  0.00  0.00    +0.001 A 
ATOM     23  C   LIG    1       23.819 -24.570   6.409  0.00  0.00    +0.008 A 
ENDBRANCH  16  17
ENDBRANCH  13  16
ENDBRANCH   4   7
BRANCH   1  25
ATOM     24  C   LIG    1       26.527 -31.683  13.770  0.00  0.00    +0.407 C 
ATOM     25  N   LIG    1       26.787 -30.343  13.489  0.00  0.00    -0.234 N 
ATOM     26  C   LIG    1       26.750 -29.357  14.566  0.00  0.00    +0.142 C 
ATOM     27  O   LIG    1       26.248 -32.544  12.947  0.00  0.00    -0.226 OA
BRANCH  24  29
ATOM     28  C   LIG    1       26.809 -33.300  15.496  0.00  0.00    +0.282 C 
ATOM     29  O   LIG    1       26.658 -31.937  15.107  0.00  0.00    -0.453 OA
ENDBRANCH  24  29
ENDBRANCH   1  25
BRANCH   2  30
ATOM     30  N   LIG    1       28.965 -29.331  11.777  0.00  0.00    -0.342 N 
ATOM     31  H   LIG    1       29.093 -28.650  12.528  0.00  0.00    +0.144 HD
ATOM     32  H   LIG    1       29.509 -29.070  10.958  0.00  0.00    +0.144 HD
ENDBRANCH   2  30
BRANCH   6  33
ATOM     33  N   LIG    1       24.208 -30.349  12.201  0.00  0.00    -0.342 N 
ATOM     34  H   LIG    1       24.521 -30.827  13.041  0.00  0.00    +0.144 HD
ATOM     35  H   LIG    1       23.686 -30.958  11.578  0.00  0.00    +0.144 HD
ENDBRANCH   6  33
TORSDOF 7
ENDMDL
