MODEL 1
REMARK VINA RESULT:      -3.7      0.000      0.000
REMARK  Name = *****
REMARK                            x       y       z     vdW  Elec       q    Type
REMARK                         _______ _______ _______ _____ _____    ______ ____
ROOT
ATOM      1  C   LIG    1       27.074 -13.236   2.483  0.00  0.00    +0.067 C 
ATOM      2  C   LIG    1       26.017 -14.044   3.165  0.00  0.00    +0.059 C 
ATOM      3  N   LIG    1       26.241 -15.410   3.382  0.00  0.00    -0.282 N 
ATOM      4  C   LIG    1       27.458 -15.832   4.090  0.00  0.00    +0.171 C 
ATOM      5  N   LIG    1       25.056 -15.914   3.963  0.00  0.00    -0.216 N 
ATOM      6  C   LIG    1       24.126 -14.872   4.100  0.00  0.00    +0.293 C 
ATOM      7  O   LIG    1       22.981 -14.920   4.520  0.00  0.00    -0.264 OA
ATOM      8  C   LIG    1       24.794 -13.617   3.545  0.00  0.00    +0.117 C 
ENDROOT
BRANCH   5   9
ATOM      9  C   LIG    1       24.686 -17.271   3.805  0.00  0.00    +0.067 A 
ATOM     10  C   LIG    1       25.612 -18.206   3.329  0.00  0.00    +0.028 A 
ATOM     11  C   LIG    1       25.252 -19.547   3.168  0.00  0.00    +0.002 A 
ATOM     12  C   LIG    1       23.969 -19.972   3.509  0.00  0.00    +0.000 A 
ATOM     13  C   LIG    1       23.041 -19.054   3.995  0.00  0.00    +0.002 A 
ATOM     14  C   LIG    1       23.393 -17.709   4.129  0.00  0.00    +0.028 A 
ENDBRANCH   5   9
BRANCH   8  15
ATOM     15  N   LIG    1       24.164 -12.377   3.490  0.00  0.00    -0.330 N 
ATOM     16  C   LIG    1       23.770 -11.667   4.708  0.00  0.00    +0.129 C 
ATOM     17  C   LIG    1       24.001 -11.622   2.256  0.00  0.00    +0.129 C 
ENDBRANCH   8  15
TORSDOF 2
ENDMDL
MODEL 2
REMARK VINA RESULT:      -2.8      1.805      2.948
REMARK  Name = *****
REMARK                            x       y       z     vdW  Elec       q    Type
REMARK                         _______ _______ _______ _____ _____    ______ ____
ROOT
ATOM      1  C   LIG    1       24.744 -12.228   4.959  0.00  0.00    +0.067 C 
ATOM      2  C   LIG    1       25.159 -13.548   4.394  0.00  0.00    +0.059 C 
ATOM      3  N   LIG    1       24.174 -14.500   4.098  0.00  0.00    -0.282 N 
ATOM      4  C   LIG    1       23.058 -14.125   3.219  0.00  0.00    +0.171 C 
ATOM      5  N   LIG    1       24.863 -15.654   3.662  0.00  0.00    -0.216 N 
ATOM      6  C   LIG    1       26.244 -15.408   3.690  0.00  0.00    +0.293 C 
ATOM      7  O   LIG    1       27.161 -16.170   3.425  0.00  0.00    -0.264 OA
ATOM      8  C   LIG    1       26.423 -13.981   4.198  0.00  0.00    +0.117 C 
ENDROOT
BRANCH   5   9
ATOM      9  C   LIG    1       24.299 -16.943   3.817  0.00  0.00    +0.067 A 
ATOM     10  C   LIG    1       25.037 -18.083   3.482  0.00  0.00    +0.028 A 
ATOM     11  C   LIG    1       24.485 -19.358   3.630  0.00  0.00    +0.002 A 
ATOM     12  C   LIG    1       23.197 -19.507   4.142  0.00  0.00    +0.000 A 
ATOM     13  C   LIG    1       22.455 -18.381   4.491  0.00  0.00    +0.002 A 
ATOM     14  C   LIG    1       22.998 -17.106   4.316  0.00  0.00    +0.028 A 
ENDBRANCH   5   9
BRANCH   8  15
ATOM     15  N   LIG    1       27.667 -13.385   4.382  0.00  0.00    -0.330 N 
ATOM     16  C   LIG    1       28.525 -13.043   3.247  0.00  0.00    +0.129 C 
ATOM     17  C   LIG    1       28.136 -12.909   5.676  0.00  0.00    +0.129 C 
ENDBRANCH   8  15
TORSDOF 2
ENDMDL
MODEL 3
REMARK VINA RESULT:      -2.6      1.965      3.259
REMARK  Name = *****
REMARK                            x       y       z     vdW  Elec       q    Type
REMARK                         _______ _______ _______ _____ _____    ______ ____
ROOT
ATOM      1  C   LIG    1       23.719 -14.034   4.765  0.00  0.00    +0.067 C 
ATOM      2  C   LIG    1       24.186 -15.344   4.215  0.00  0.00    +0.059 C 
ATOM      3  N   LIG    1       23.392 -16.483   4.406  0.00  0.00    -0.282 N 
ATOM      4  C   LIG    1       21.985 -16.453   3.982  0.00  0.00    +0.171 C 
ATOM      5  N   LIG    1       24.117 -17.563   3.855  0.00  0.00    -0.216 N 
ATOM      6  C   LIG    1       25.331 -17.091   3.335  0.00  0.00    +0.293 C 
ATOM      7  O   LIG    1       26.239 -17.723   2.818  0.00  0.00    -0.264 OA
ATOM      8  C   LIG    1       25.362 -15.588   3.597  0.00  0.00    +0.117 C 
ENDROOT
BRANCH   5   9
ATOM      9  C   LIG    1       23.937 -18.883   4.335  0.00  0.00    +0.067 A 
ATOM     10  C   LIG    1       24.994 -19.799   4.299  0.00  0.00    +0.028 A 
ATOM     11  C   LIG    1       24.822 -21.104   4.768  0.00  0.00    +0.002 A 
ATOM     12  C   LIG    1       23.598 -21.498   5.306  0.00  0.00    +0.000 A 
ATOM     13  C   LIG    1       22.541 -20.592   5.360  0.00  0.00    +0.002 A 
ATOM     14  C   LIG    1       22.705 -19.297   4.864  0.00  0.00    +0.028 A 
ENDBRANCH   5   9
BRANCH   8  15
ATOM     15  N   LIG    1       26.431 -14.771   3.240  0.00  0.00    -0.330 N 
ATOM     16  C   LIG    1       26.300 -13.759   2.191  0.00  0.00    +0.129 C 
ATOM     17  C   LIG    1       27.687 -14.739   3.975  0.00  0.00    +0.129 C 
ENDBRANCH   8  15
TORSDOF 2
ENDMDL
MODEL 4
REMARK VINA RESULT:      -2.2      2.375      6.070
REMARK  Name = *****
REMARK                            x       y       z     vdW  Elec       q    Type
REMARK                         _______ _______ _______ _____ _____    ______ ____
ROOT
ATOM      1  C   LIG    1       25.712 -21.175   4.826  0.00  0.00    +0.067 C 
ATOM      2  C   LIG    1       24.782 -20.042   4.531  0.00  0.00    +0.059 C 
ATOM      3  N   LIG    1       25.290 -18.889   3.917  0.00  0.00    -0.282 N 
ATOM      4  C   LIG    1       26.030 -19.018   2.654  0.00  0.00    +0.171 C 
ATOM      5  N   LIG    1       24.212 -17.979   3.841  0.00  0.00    -0.216 N 
ATOM      6  C   LIG    1       23.067 -18.568   4.397  0.00  0.00    +0.293 C 
ATOM      7  O   LIG    1       21.956 -18.083   4.549  0.00  0.00    -0.264 OA
ATOM      8  C   LIG    1       23.477 -19.960   4.867  0.00  0.00    +0.117 C 
ENDROOT
BRANCH   5   9
ATOM      9  C   LIG    1       24.438 -16.581   3.822  0.00  0.00    +0.067 A 
ATOM     10  C   LIG    1       23.448 -15.699   4.268  0.00  0.00    +0.028 A 
ATOM     11  C   LIG    1       23.663 -14.318   4.249  0.00  0.00    +0.002 A 
ATOM     12  C   LIG    1       24.882 -13.807   3.809  0.00  0.00    +0.000 A 
ATOM     13  C   LIG    1       25.881 -14.675   3.373  0.00  0.00    +0.002 A 
ATOM     14  C   LIG    1       25.655 -16.053   3.366  0.00  0.00    +0.028 A 
ENDBRANCH   5   9
BRANCH   8  15
ATOM     15  N   LIG    1       22.604 -20.842   5.498  0.00  0.00    -0.330 N 
ATOM     16  C   LIG    1       21.445 -21.399   4.799  0.00  0.00    +0.129 C 
ATOM     17  C   LIG    1       22.858 -21.404   6.817  0.00  0.00    +0.129 C 
ENDBRANCH   8  15
TORSDOF 2
ENDMDL
MODEL 5
REMARK VINA RESULT:      -2.0      4.477      6.022
REMARK  Name = *****
REMARK                            x       y       z     vdW  Elec       q    Type
REMARK                         _______ _______ _______ _____ _____    ______ ____
ROOT
ATOM      1  C   LIG    1       28.231 -17.640   4.448  0.00  0.00    +0.067 C 
ATOM      2  C   LIG    1       27.321 -18.781   4.772  0.00  0.00    +0.059 C 
ATOM      3  N   LIG    1       26.096 -18.885   4.098  0.00  0.00    -0.282 N 
ATOM      4  C   LIG    1       26.086 -18.888   2.628  0.00  0.00    +0.171 C 
ATOM      5  N   LIG    1       25.432 -19.997   4.662  0.00  0.00    -0.216 N 
ATOM      6  C   LIG    1       26.239 -20.562   5.661  0.00  0.00    +0.293 C 
ATOM      7  O   LIG    1       25.994 -21.505   6.397  0.00  0.00    -0.264 OA
ATOM      8  C   LIG    1       27.508 -19.718   5.725  0.00  0.00    +0.117 C 
ENDROOT
BRANCH   5   9
ATOM      9  C   LIG    1       24.019 -20.078   4.664  0.00  0.00    +0.067 A 
ATOM     10  C   LIG    1       23.244 -18.935   4.437  0.00  0.00    +0.028 A 
ATOM     11  C   LIG    1       21.849 -19.008   4.441  0.00  0.00    +0.002 A 
ATOM     12  C   LIG    1       21.213 -20.231   4.645  0.00  0.00    +0.000 A 
ATOM     13  C   LIG    1       21.972 -21.379   4.861  0.00  0.00    +0.002 A 
ATOM     14  C   LIG    1       23.366 -21.300   4.885  0.00  0.00    +0.028 A 
ENDBRANCH   5   9
BRANCH   8  15
ATOM     15  N   LIG    1       28.544 -19.962   6.623  0.00  0.00    -0.330 N 
ATOM     16  C   LIG    1       28.870 -21.320   7.059  0.00  0.00    +0.129 C 
ATOM     17  C   LIG    1       29.475 -18.932   7.061  0.00  0.00    +0.129 C 
ENDBRANCH   8  15
TORSDOF 2
ENDMDL
MODEL 6
REMARK VINA RESULT:      -1.5      2.750      6.182
REMARK  Name = *****
REMARK                            x       y       z     vdW  Elec       q    Type
REMARK                         _______ _______ _______ _____ _____    ______ ____
ROOT
ATOM      1  C   LIG    1       27.400 -20.556   6.612  0.00  0.00    +0.067 C 
ATOM      2  C   LIG    1       26.887 -19.752   5.460  0.00  0.00    +0.059 C 
ATOM      3  N   LIG    1       27.536 -18.557   5.123  0.00  0.00    -0.282 N 
ATOM      4  C   LIG    1       28.983 -18.575   4.868  0.00  0.00    +0.171 C 
ATOM      5  N   LIG    1       26.791 -17.991   4.065  0.00  0.00    -0.216 N 
ATOM      6  C   LIG    1       25.708 -18.828   3.760  0.00  0.00    +0.293 C 
ATOM      7  O   LIG    1       24.821 -18.661   2.937  0.00  0.00    -0.264 OA
ATOM      8  C   LIG    1       25.786 -20.010   4.722  0.00  0.00    +0.117 C 
ENDROOT
BRANCH   5   9
ATOM      9  C   LIG    1       26.778 -16.592   3.848  0.00  0.00    +0.067 A 
ATOM     10  C   LIG    1       25.648 -15.970   3.306  0.00  0.00    +0.028 A 
ATOM     11  C   LIG    1       25.630 -14.590   3.087  0.00  0.00    +0.002 A 
ATOM     12  C   LIG    1       26.733 -13.813   3.434  0.00  0.00    +0.000 A 
ATOM     13  C   LIG    1       27.861 -14.417   3.985  0.00  0.00    +0.002 A 
ATOM     14  C   LIG    1       27.889 -15.800   4.178  0.00  0.00    +0.028 A 
ENDBRANCH   5   9
BRANCH   8  15
ATOM     15  N   LIG    1       24.857 -21.047   4.738  0.00  0.00    -0.330 N 
ATOM     16  C   LIG    1       24.318 -21.569   5.994  0.00  0.00    +0.129 C 
ATOM     17  C   LIG    1       24.233 -21.572   3.531  0.00  0.00    +0.129 C 
ENDBRANCH   8  15
TORSDOF 2
ENDMDL
MODEL 7
REMARK VINA RESULT:      -0.9      3.082      4.571
REMARK  Name = *****
REMARK                            x       y       z     vdW  Elec       q    Type
REMARK                         _______ _______ _______ _____ _____    ______ ____
ROOT
ATOM      1  C   LIG    1       22.940 -17.562   3.674  0.00  0.00    +0.067 C 
ATOM      2  C   LIG    1       24.412 -17.772   3.835  0.00  0.00    +0.059 C 
ATOM      3  N   LIG    1       24.878 -19.026   4.250  0.00  0.00    -0.282 N 
ATOM      4  C   LIG    1       24.474 -20.224   3.500  0.00  0.00    +0.171 C 
ATOM      5  N   LIG    1       26.278 -18.899   4.385  0.00  0.00    -0.216 N 
ATOM      6  C   LIG    1       26.660 -17.590   4.055  0.00  0.00    +0.293 C 
ATOM      7  O   LIG    1       27.772 -17.087   4.089  0.00  0.00    -0.264 OA
ATOM      8  C   LIG    1       25.380 -16.841   3.695  0.00  0.00    +0.117 C 
ENDROOT
BRANCH   5   9
ATOM      9  C   LIG    1       27.001 -19.717   5.287  0.00  0.00    +0.067 A 
ATOM     10  C   LIG    1       26.362 -20.762   5.963  0.00  0.00    +0.028 A 
ATOM     11  C   LIG    1       27.070 -21.571   6.856  0.00  0.00    +0.002 A 
ATOM     12  C   LIG    1       28.432 -21.360   7.062  0.00  0.00    +0.000 A 
ATOM     13  C   LIG    1       29.083 -20.330   6.387  0.00  0.00    +0.002 A 
ATOM     14  C   LIG    1       28.369 -19.504   5.516  0.00  0.00    +0.028 A 
ENDBRANCH   5   9
BRANCH   8  15
ATOM     15  N   LIG    1       25.357 -15.497   3.333  0.00  0.00    -0.330 N 
ATOM     16  C   LIG    1       24.358 -14.577   3.879  0.00  0.00    +0.129 C 
ATOM     17  C   LIG    1       26.400 -14.872   2.532  0.00  0.00    +0.129 C 
ENDBRANCH   8  15
TORSDOF 2
ENDMDL
