MODEL 1
REMARK VINA RESULT:      -8.4      0.000      0.000
REMARK  Name = *****
REMARK                            x       y       z     vdW  Elec       q    Type
REMARK                         _______ _______ _______ _____ _____    ______ ____
ROOT
ATOM      1  C   LIG    1       26.794 -22.817   7.438  0.00  0.00    +0.003 C 
ATOM      2  C   LIG    1       25.456 -22.654   7.361  0.00  0.00    -0.050 C 
ATOM      3  C   LIG    1       24.647 -23.797   6.812  0.00  0.00    +0.044 C 
ENDROOT
BRANCH   1   5
ATOM      4  C   LIG    1       28.810 -21.447   7.260  0.00  0.00    +0.003 C 
ATOM      5  C   LIG    1       27.738 -21.854   7.957  0.00  0.00    +0.001 C 
BRANCH   4   7
ATOM      6  C   LIG    1       29.517 -19.030   7.295  0.00  0.00    +0.044 C 
ATOM      7  C   LIG    1       29.765 -20.458   7.735  0.00  0.00    -0.044 C 
ATOM      8  C   LIG    1       30.794 -20.707   8.574  0.00  0.00    +0.094 C 
BRANCH   8   9
ATOM      9  C   LIG    1       31.305 -21.944   9.199  0.00  0.00    +0.330 C 
ATOM     10  O   LIG    1       30.852 -22.345  10.269  0.00  0.00    -0.246 OA
BRANCH   9  11
ATOM     11  O   LIG    1       32.316 -22.553   8.568  0.00  0.00    -0.477 OA
ATOM     12  H   LIG    1       33.151 -22.046   8.589  0.00  0.00    +0.295 HD
ENDBRANCH   9  11
ENDBRANCH   8   9
ENDBRANCH   4   7
ENDBRANCH   1   5
BRANCH   2  13
ATOM     13  C   LIG    1       24.817 -21.391   7.711  0.00  0.00    +0.003 C 
ATOM     14  C   LIG    1       24.363 -20.383   6.953  0.00  0.00    +0.004 C 
BRANCH  14  15
ATOM     15  C   LIG    1       24.377 -20.212   5.508  0.00  0.00    -0.043 C 
ATOM     16  C   LIG    1       22.997 -20.354   4.825  0.00  0.00    -0.010 C 
ATOM     17  C   LIG    1       22.137 -21.506   5.399  0.00  0.00    +0.016 C 
ATOM     18  C   LIG    1       22.198 -19.043   5.015  0.00  0.00    +0.016 C 
ATOM     19  C   LIG    1       23.170 -20.644   3.313  0.00  0.00    +0.011 C 
ATOM     20  C   LIG    1       24.146 -19.683   2.655  0.00  0.00    +0.005 C 
ATOM     21  C   LIG    1       25.520 -19.777   3.305  0.00  0.00    +0.031 C 
ATOM     22  C   LIG    1       25.512 -19.963   4.808  0.00  0.00    -0.069 C 
ATOM     23  C   LIG    1       26.898 -19.824   5.396  0.00  0.00    +0.039 C 
ENDBRANCH  14  15
ENDBRANCH   2  13
TORSDOF 6
ENDMDL
MODEL 2
REMARK VINA RESULT:      -8.0      1.395      2.669
REMARK  Name = *****
REMARK                            x       y       z     vdW  Elec       q    Type
REMARK                         _______ _______ _______ _____ _____    ______ ____
ROOT
ATOM      1  C   LIG    1       26.878 -21.004   8.222  0.00  0.00    +0.003 C 
ATOM      2  C   LIG    1       25.821 -21.710   7.772  0.00  0.00    -0.050 C 
ATOM      3  C   LIG    1       24.639 -21.855   8.689  0.00  0.00    +0.044 C 
ENDROOT
BRANCH   1   5
ATOM      4  C   LIG    1       28.657 -19.513   7.455  0.00  0.00    +0.003 C 
ATOM      5  C   LIG    1       28.092 -20.730   7.487  0.00  0.00    +0.001 C 
BRANCH   4   7
ATOM      6  C   LIG    1       29.743 -18.473   5.435  0.00  0.00    +0.044 C 
ATOM      7  C   LIG    1       29.893 -19.205   6.752  0.00  0.00    -0.044 C 
ATOM      8  C   LIG    1       31.137 -19.462   7.211  0.00  0.00    +0.094 C 
BRANCH   8   9
ATOM      9  C   LIG    1       31.642 -20.127   8.429  0.00  0.00    +0.330 C 
ATOM     10  O   LIG    1       32.077 -19.471   9.374  0.00  0.00    -0.246 OA
BRANCH   9  11
ATOM     11  O   LIG    1       31.654 -21.466   8.413  0.00  0.00    -0.477 OA
ATOM     12  H   LIG    1       30.899 -21.857   7.933  0.00  0.00    +0.295 HD
ENDBRANCH   9  11
ENDBRANCH   8   9
ENDBRANCH   4   7
ENDBRANCH   1   5
BRANCH   2  13
ATOM     13  C   LIG    1       25.846 -22.386   6.479  0.00  0.00    +0.003 C 
ATOM     14  C   LIG    1       25.219 -22.121   5.324  0.00  0.00    +0.004 C 
BRANCH  14  15
ATOM     15  C   LIG    1       24.279 -21.065   4.984  0.00  0.00    -0.043 C 
ATOM     16  C   LIG    1       24.870 -19.920   4.129  0.00  0.00    -0.010 C 
ATOM     17  C   LIG    1       26.295 -19.496   4.563  0.00  0.00    +0.016 C 
ATOM     18  C   LIG    1       24.954 -20.378   2.654  0.00  0.00    +0.016 C 
ATOM     19  C   LIG    1       23.983 -18.655   4.233  0.00  0.00    +0.011 C 
ATOM     20  C   LIG    1       22.513 -18.968   4.005  0.00  0.00    +0.005 C 
ATOM     21  C   LIG    1       22.009 -19.972   5.033  0.00  0.00    +0.031 C 
ATOM     22  C   LIG    1       22.986 -21.071   5.396  0.00  0.00    -0.069 C 
ATOM     23  C   LIG    1       22.335 -22.141   6.243  0.00  0.00    +0.039 C 
ENDBRANCH  14  15
ENDBRANCH   2  13
TORSDOF 6
ENDMDL
MODEL 3
REMARK VINA RESULT:      -7.9      1.555      2.114
REMARK  Name = *****
REMARK                            x       y       z     vdW  Elec       q    Type
REMARK                         _______ _______ _______ _____ _____    ______ ____
ROOT
ATOM      1  C   LIG    1       26.153 -20.925   7.462  0.00  0.00    +0.003 C 
ATOM      2  C   LIG    1       25.205 -21.659   6.843  0.00  0.00    -0.050 C 
ATOM      3  C   LIG    1       24.154 -22.306   7.702  0.00  0.00    +0.044 C 
ENDROOT
BRANCH   1   5
ATOM      4  C   LIG    1       28.439 -20.064   7.374  0.00  0.00    +0.003 C 
ATOM      5  C   LIG    1       27.227 -20.206   6.816  0.00  0.00    +0.001 C 
BRANCH   4   7
ATOM      6  C   LIG    1       29.214 -18.547   5.519  0.00  0.00    +0.044 C 
ATOM      7  C   LIG    1       29.553 -19.373   6.742  0.00  0.00    -0.044 C 
ATOM      8  C   LIG    1       30.825 -19.365   7.196  0.00  0.00    +0.094 C 
BRANCH   8   9
ATOM      9  C   LIG    1       31.489 -20.025   8.338  0.00  0.00    +0.330 C 
ATOM     10  O   LIG    1       32.016 -19.365   9.232  0.00  0.00    -0.246 OA
BRANCH   9  11
ATOM     11  O   LIG    1       31.535 -21.363   8.304  0.00  0.00    -0.477 OA
ATOM     12  H   LIG    1       31.401 -21.780   9.177  0.00  0.00    +0.295 HD
ENDBRANCH   9  11
ENDBRANCH   8   9
ENDBRANCH   4   7
ENDBRANCH   1   5
BRANCH   2  13
ATOM     13  C   LIG    1       25.236 -21.893   5.404  0.00  0.00    +0.003 C 
ATOM     14  C   LIG    1       24.765 -21.176   4.374  0.00  0.00    +0.004 C 
BRANCH  14  15
ATOM     15  C   LIG    1       24.040 -19.916   4.360  0.00  0.00    -0.043 C 
ATOM     16  C   LIG    1       22.606 -19.986   4.935  0.00  0.00    -0.010 C 
ATOM     17  C   LIG    1       21.833 -21.260   4.516  0.00  0.00    +0.016 C 
ATOM     18  C   LIG    1       22.677 -19.976   6.480  0.00  0.00    +0.016 C 
ATOM     19  C   LIG    1       21.767 -18.780   4.445  0.00  0.00    +0.011 C 
ATOM     20  C   LIG    1       22.499 -17.461   4.633  0.00  0.00    +0.005 C 
ATOM     21  C   LIG    1       23.812 -17.456   3.862  0.00  0.00    +0.031 C 
ATOM     22  C   LIG    1       24.569 -18.767   3.866  0.00  0.00    -0.069 C 
ATOM     23  C   LIG    1       25.952 -18.617   3.275  0.00  0.00    +0.039 C 
ENDBRANCH  14  15
ENDBRANCH   2  13
TORSDOF 6
ENDMDL
MODEL 4
REMARK VINA RESULT:      -7.8      4.256      6.788
REMARK  Name = *****
REMARK                            x       y       z     vdW  Elec       q    Type
REMARK                         _______ _______ _______ _____ _____    ______ ____
ROOT
ATOM      1  C   LIG    1       24.077 -18.800   3.450  0.00  0.00    +0.003 C 
ATOM      2  C   LIG    1       23.781 -19.895   4.181  0.00  0.00    -0.050 C 
ATOM      3  C   LIG    1       23.990 -21.238   3.539  0.00  0.00    +0.044 C 
ENDROOT
BRANCH   1   5
ATOM      4  C   LIG    1       24.840 -16.479   3.515  0.00  0.00    +0.003 C 
ATOM      5  C   LIG    1       23.971 -17.429   3.893  0.00  0.00    +0.001 C 
BRANCH   4   7
ATOM      6  C   LIG    1       23.470 -14.676   4.617  0.00  0.00    +0.044 C 
ATOM      7  C   LIG    1       24.749 -15.083   3.916  0.00  0.00    -0.044 C 
ATOM      8  C   LIG    1       25.727 -14.163   3.770  0.00  0.00    +0.094 C 
BRANCH   8   9
ATOM      9  C   LIG    1       27.073 -14.215   3.165  0.00  0.00    +0.330 C 
ATOM     10  O   LIG    1       28.083 -14.218   3.867  0.00  0.00    -0.246 OA
BRANCH   9  11
ATOM     11  O   LIG    1       27.124 -14.195   1.827  0.00  0.00    -0.477 OA
ATOM     12  H   LIG    1       27.752 -14.841   1.451  0.00  0.00    +0.295 HD
ENDBRANCH   9  11
ENDBRANCH   8   9
ENDBRANCH   4   7
ENDBRANCH   1   5
BRANCH   2  13
ATOM     13  C   LIG    1       23.198 -19.791   5.514  0.00  0.00    +0.003 C 
ATOM     14  C   LIG    1       23.371 -20.526   6.622  0.00  0.00    +0.004 C 
BRANCH  14  15
ATOM     15  C   LIG    1       24.197 -21.700   6.851  0.00  0.00    -0.043 C 
ATOM     16  C   LIG    1       25.674 -21.397   7.197  0.00  0.00    -0.010 C 
ATOM     17  C   LIG    1       26.282 -20.248   6.356  0.00  0.00    +0.016 C 
ATOM     18  C   LIG    1       25.774 -20.984   8.684  0.00  0.00    +0.016 C 
ATOM     19  C   LIG    1       26.556 -22.644   6.942  0.00  0.00    +0.011 C 
ATOM     20  C   LIG    1       25.967 -23.898   7.569  0.00  0.00    +0.005 C 
ATOM     21  C   LIG    1       24.583 -24.186   7.003  0.00  0.00    +0.031 C 
ATOM     22  C   LIG    1       23.719 -22.967   6.755  0.00  0.00    -0.069 C 
ATOM     23  C   LIG    1       22.298 -23.349   6.409  0.00  0.00    +0.039 C 
ENDBRANCH  14  15
ENDBRANCH   2  13
TORSDOF 6
ENDMDL
MODEL 5
REMARK VINA RESULT:      -7.5      2.291      3.864
REMARK  Name = *****
REMARK                            x       y       z     vdW  Elec       q    Type
REMARK                         _______ _______ _______ _____ _____    ______ ____
ROOT
ATOM      1  C   LIG    1       28.217 -20.132   5.787  0.00  0.00    +0.003 C 
ATOM      2  C   LIG    1       26.874 -20.095   5.920  0.00  0.00    -0.050 C 
ATOM      3  C   LIG    1       26.059 -19.843   4.682  0.00  0.00    +0.044 C 
ENDROOT
BRANCH   1   5
ATOM      4  C   LIG    1       29.841 -19.401   7.461  0.00  0.00    +0.003 C 
ATOM      5  C   LIG    1       29.168 -20.386   6.844  0.00  0.00    +0.001 C 
BRANCH   4   7
ATOM      6  C   LIG    1       31.143 -21.056   8.843  0.00  0.00    +0.044 C 
ATOM      7  C   LIG    1       30.784 -19.614   8.549  0.00  0.00    -0.044 C 
ATOM      8  C   LIG    1       31.396 -18.639   9.254  0.00  0.00    +0.094 C 
BRANCH   8   9
ATOM      9  C   LIG    1       31.299 -17.166   9.223  0.00  0.00    +0.330 C 
ATOM     10  O   LIG    1       30.295 -16.589   9.637  0.00  0.00    -0.246 OA
BRANCH   9  11
ATOM     11  O   LIG    1       32.329 -16.515   8.667  0.00  0.00    -0.477 OA
ATOM     12  H   LIG    1       32.991 -16.207   9.315  0.00  0.00    +0.295 HD
ENDBRANCH   9  11
ENDBRANCH   8   9
ENDBRANCH   4   7
ENDBRANCH   1   5
BRANCH   2  13
ATOM     13  C   LIG    1       26.231 -20.207   7.224  0.00  0.00    +0.003 C 
ATOM     14  C   LIG    1       25.446 -21.158   7.751  0.00  0.00    +0.004 C 
BRANCH  14  15
ATOM     15  C   LIG    1       24.957 -22.400   7.174  0.00  0.00    -0.043 C 
ATOM     16  C   LIG    1       23.435 -22.436   6.905  0.00  0.00    -0.010 C 
ATOM     17  C   LIG    1       22.592 -21.792   8.033  0.00  0.00    +0.016 C 
ATOM     18  C   LIG    1       23.130 -21.662   5.602  0.00  0.00    +0.016 C 
ATOM     19  C   LIG    1       22.945 -23.899   6.769  0.00  0.00    +0.011 C 
ATOM     20  C   LIG    1       23.811 -24.705   5.815  0.00  0.00    +0.005 C 
ATOM     21  C   LIG    1       25.255 -24.744   6.297  0.00  0.00    +0.031 C 
ATOM     22  C   LIG    1       25.768 -23.455   6.905  0.00  0.00    -0.069 C 
ATOM     23  C   LIG    1       27.259 -23.507   7.150  0.00  0.00    +0.039 C 
ENDBRANCH  14  15
ENDBRANCH   2  13
TORSDOF 6
ENDMDL
MODEL 6
REMARK VINA RESULT:      -7.4      3.130      4.883
REMARK  Name = *****
REMARK                            x       y       z     vdW  Elec       q    Type
REMARK                         _______ _______ _______ _____ _____    ______ ____
ROOT
ATOM      1  C   LIG    1       27.169 -22.952   7.302  0.00  0.00    +0.003 C 
ATOM      2  C   LIG    1       27.284 -21.695   7.780  0.00  0.00    -0.050 C 
ATOM      3  C   LIG    1       28.671 -21.157   7.997  0.00  0.00    +0.044 C 
ENDROOT
BRANCH   1   5
ATOM      4  C   LIG    1       25.901 -24.875   6.486  0.00  0.00    +0.003 C 
ATOM      5  C   LIG    1       25.933 -23.637   7.003  0.00  0.00    +0.001 C 
BRANCH   4   7
ATOM      6  C   LIG    1       23.382 -24.872   6.473  0.00  0.00    +0.044 C 
ATOM      7  C   LIG    1       24.677 -25.609   6.200  0.00  0.00    -0.044 C 
ATOM      8  C   LIG    1       24.616 -26.845   5.658  0.00  0.00    +0.094 C 
BRANCH   8   9
ATOM      9  C   LIG    1       25.651 -27.819   5.259  0.00  0.00    +0.330 C 
ATOM     10  O   LIG    1       25.433 -29.028   5.304  0.00  0.00    -0.246 OA
BRANCH   9  11
ATOM     11  O   LIG    1       26.841 -27.312   4.913  0.00  0.00    -0.477 OA
ATOM     12  H   LIG    1       26.789 -26.406   4.552  0.00  0.00    +0.295 HD
ENDBRANCH   9  11
ENDBRANCH   8   9
ENDBRANCH   4   7
ENDBRANCH   1   5
BRANCH   2  13
ATOM     13  C   LIG    1       26.114 -20.910   8.159  0.00  0.00    +0.003 C 
ATOM     14  C   LIG    1       25.139 -20.355   7.425  0.00  0.00    +0.004 C 
BRANCH  14  15
ATOM     15  C   LIG    1       24.938 -20.341   5.985  0.00  0.00    -0.043 C 
ATOM     16  C   LIG    1       23.514 -20.728   5.524  0.00  0.00    -0.010 C 
ATOM     17  C   LIG    1       22.908 -21.912   6.317  0.00  0.00    +0.016 C 
ATOM     18  C   LIG    1       22.572 -19.516   5.710  0.00  0.00    +0.016 C 
ATOM     19  C   LIG    1       23.525 -21.156   4.035  0.00  0.00    +0.011 C 
ATOM     20  C   LIG    1       24.262 -20.155   3.159  0.00  0.00    +0.005 C 
ATOM     21  C   LIG    1       25.709 -20.005   3.609  0.00  0.00    +0.031 C 
ATOM     22  C   LIG    1       25.926 -20.027   5.107  0.00  0.00    -0.069 C 
ATOM     23  C   LIG    1       27.344 -19.651   5.473  0.00  0.00    +0.039 C 
ENDBRANCH  14  15
ENDBRANCH   2  13
TORSDOF 6
ENDMDL
MODEL 7
REMARK VINA RESULT:      -7.3      5.464      8.704
REMARK  Name = *****
REMARK                            x       y       z     vdW  Elec       q    Type
REMARK                         _______ _______ _______ _____ _____    ______ ____
ROOT
ATOM      1  C   LIG    1       25.757 -25.813   5.783  0.00  0.00    +0.003 C 
ATOM      2  C   LIG    1       25.629 -27.151   5.661  0.00  0.00    -0.050 C 
ATOM      3  C   LIG    1       26.800 -27.914   5.107  0.00  0.00    +0.044 C 
ENDROOT
BRANCH   1   5
ATOM      4  C   LIG    1       25.019 -23.615   6.559  0.00  0.00    +0.003 C 
ATOM      5  C   LIG    1       24.762 -24.910   6.315  0.00  0.00    +0.001 C 
BRANCH   4   7
ATOM      6  C   LIG    1       22.584 -23.051   6.866  0.00  0.00    +0.044 C 
ATOM      7  C   LIG    1       24.036 -22.669   7.065  0.00  0.00    -0.044 C 
ATOM      8  C   LIG    1       24.320 -21.535   7.741  0.00  0.00    +0.094 C 
BRANCH   8   9
ATOM      9  C   LIG    1       25.589 -20.883   8.120  0.00  0.00    +0.330 C 
ATOM     10  O   LIG    1       25.939 -20.815   9.297  0.00  0.00    -0.246 OA
BRANCH   9  11
ATOM     11  O   LIG    1       26.289 -20.324   7.125  0.00  0.00    -0.477 OA
ATOM     12  H   LIG    1       27.116 -20.799   6.915  0.00  0.00    +0.295 HD
ENDBRANCH   9  11
ENDBRANCH   8   9
ENDBRANCH   4   7
ENDBRANCH   1   5
BRANCH   2  13
ATOM     13  C   LIG    1       24.376 -27.831   5.968  0.00  0.00    +0.003 C 
ATOM     14  C   LIG    1       24.123 -28.996   6.581  0.00  0.00    +0.004 C 
BRANCH  14  15
ATOM     15  C   LIG    1       25.035 -29.986   7.132  0.00  0.00    -0.043 C 
ATOM     16  C   LIG    1       25.019 -31.355   6.412  0.00  0.00    -0.010 C 
ATOM     17  C   LIG    1       23.599 -31.831   6.020  0.00  0.00    +0.016 C 
ATOM     18  C   LIG    1       25.848 -31.254   5.110  0.00  0.00    +0.016 C 
ATOM     19  C   LIG    1       25.616 -32.454   7.326  0.00  0.00    +0.011 C 
ATOM     20  C   LIG    1       26.945 -32.033   7.932  0.00  0.00    +0.005 C 
ATOM     21  C   LIG    1       26.782 -30.772   8.770  0.00  0.00    +0.031 C 
ATOM     22  C   LIG    1       25.828 -29.739   8.205  0.00  0.00    -0.069 C 
ATOM     23  C   LIG    1       25.894 -28.438   8.973  0.00  0.00    +0.039 C 
ENDBRANCH  14  15
ENDBRANCH   2  13
TORSDOF 6
ENDMDL
MODEL 8
REMARK VINA RESULT:      -7.2      1.487      3.265
REMARK  Name = *****
REMARK                            x       y       z     vdW  Elec       q    Type
REMARK                         _______ _______ _______ _____ _____    ______ ____
ROOT
ATOM      1  C   LIG    1       28.131 -19.590   5.640  0.00  0.00    +0.003 C 
ATOM      2  C   LIG    1       26.846 -19.996   5.713  0.00  0.00    -0.050 C 
ATOM      3  C   LIG    1       26.145 -20.319   4.423  0.00  0.00    +0.044 C 
ENDROOT
BRANCH   1   5
ATOM      4  C   LIG    1       30.075 -19.972   7.072  0.00  0.00    +0.003 C 
ATOM      5  C   LIG    1       28.981 -19.259   6.760  0.00  0.00    +0.001 C 
BRANCH   4   7
ATOM      6  C   LIG    1       31.303 -18.186   8.354  0.00  0.00    +0.044 C 
ATOM      7  C   LIG    1       30.971 -19.653   8.173  0.00  0.00    -0.044 C 
ATOM      8  C   LIG    1       31.464 -20.542   9.062  0.00  0.00    +0.094 C 
BRANCH   8   9
ATOM      9  C   LIG    1       31.335 -22.008   9.193  0.00  0.00    +0.330 C 
ATOM     10  O   LIG    1       30.538 -22.504   9.987  0.00  0.00    -0.246 OA
BRANCH   9  11
ATOM     11  O   LIG    1       32.172 -22.745   8.453  0.00  0.00    -0.477 OA
ATOM     12  H   LIG    1       32.161 -22.515   7.505  0.00  0.00    +0.295 HD
ENDBRANCH   9  11
ENDBRANCH   8   9
ENDBRANCH   4   7
ENDBRANCH   1   5
BRANCH   2  13
ATOM     13  C   LIG    1       26.128 -20.040   6.982  0.00  0.00    +0.003 C 
ATOM     14  C   LIG    1       25.401 -21.006   7.560  0.00  0.00    +0.004 C 
BRANCH  14  15
ATOM     15  C   LIG    1       25.071 -22.343   7.092  0.00  0.00    -0.043 C 
ATOM     16  C   LIG    1       23.574 -22.570   6.778  0.00  0.00    -0.010 C 
ATOM     17  C   LIG    1       22.620 -21.919   7.810  0.00  0.00    +0.016 C 
ATOM     18  C   LIG    1       23.246 -21.959   5.396  0.00  0.00    +0.016 C 
ATOM     19  C   LIG    1       23.247 -24.084   6.770  0.00  0.00    +0.011 C 
ATOM     20  C   LIG    1       24.234 -24.876   5.928  0.00  0.00    +0.005 C 
ATOM     21  C   LIG    1       25.651 -24.712   6.458  0.00  0.00    +0.031 C 
ATOM     22  C   LIG    1       25.999 -23.324   6.954  0.00  0.00    -0.069 C 
ATOM     23  C   LIG    1       27.475 -23.189   7.252  0.00  0.00    +0.039 C 
ENDBRANCH  14  15
ENDBRANCH   2  13
TORSDOF 6
ENDMDL
MODEL 9
REMARK VINA RESULT:      -7.2      5.285      8.662
REMARK  Name = *****
REMARK                            x       y       z     vdW  Elec       q    Type
REMARK                         _______ _______ _______ _____ _____    ______ ____
ROOT
ATOM      1  C   LIG    1       26.096 -25.799   6.014  0.00  0.00    +0.003 C 
ATOM      2  C   LIG    1       25.825 -27.101   5.788  0.00  0.00    -0.050 C 
ATOM      3  C   LIG    1       26.836 -27.898   5.011  0.00  0.00    +0.044 C 
ENDROOT
BRANCH   1   5
ATOM      4  C   LIG    1       24.869 -23.699   6.254  0.00  0.00    +0.003 C 
ATOM      5  C   LIG    1       25.270 -24.877   6.758  0.00  0.00    +0.001 C 
BRANCH   4   7
ATOM      6  C   LIG    1       22.527 -23.045   6.910  0.00  0.00    +0.044 C 
ATOM      7  C   LIG    1       24.013 -22.758   6.961  0.00  0.00    -0.044 C 
ATOM      8  C   LIG    1       24.444 -21.709   7.695  0.00  0.00    +0.094 C 
BRANCH   8   9
ATOM      9  C   LIG    1       25.787 -21.160   7.971  0.00  0.00    +0.330 C 
ATOM     10  O   LIG    1       26.271 -20.284   7.256  0.00  0.00    -0.246 OA
BRANCH   9  11
ATOM     11  O   LIG    1       26.456 -21.713   8.990  0.00  0.00    -0.477 OA
ATOM     12  H   LIG    1       27.404 -21.480   9.007  0.00  0.00    +0.295 HD
ENDBRANCH   9  11
ENDBRANCH   8   9
ENDBRANCH   4   7
ENDBRANCH   1   5
BRANCH   2  13
ATOM     13  C   LIG    1       24.563 -27.704   6.202  0.00  0.00    +0.003 C 
ATOM     14  C   LIG    1       24.292 -28.845   6.851  0.00  0.00    +0.004 C 
BRANCH  14  15
ATOM     15  C   LIG    1       25.185 -29.881   7.345  0.00  0.00    -0.043 C 
ATOM     16  C   LIG    1       25.692 -29.665   8.790  0.00  0.00    -0.010 C 
ATOM     17  C   LIG    1       26.062 -28.194   9.102  0.00  0.00    +0.016 C 
ATOM     18  C   LIG    1       24.586 -30.084   9.786  0.00  0.00    +0.016 C 
ATOM     19  C   LIG    1       26.969 -30.504   9.046  0.00  0.00    +0.011 C 
ATOM     20  C   LIG    1       26.800 -31.950   8.606  0.00  0.00    +0.005 C 
ATOM     21  C   LIG    1       26.484 -32.029   7.119  0.00  0.00    +0.031 C 
ATOM     22  C   LIG    1       25.560 -30.949   6.596  0.00  0.00    -0.069 C 
ATOM     23  C   LIG    1       25.122 -31.227   5.176  0.00  0.00    +0.039 C 
ENDBRANCH  14  15
ENDBRANCH   2  13
TORSDOF 6
ENDMDL
