MODEL 1
REMARK VINA RESULT:      -7.2      0.000      0.000
REMARK  Name = *****
REMARK                            x       y       z     vdW  Elec       q    Type
REMARK                         _______ _______ _______ _____ _____    ______ ____
ROOT
ATOM      1  C   LIG    1       24.390 -21.039   5.647  0.00  0.00    +0.129 C 
ATOM      2  C   LIG    1       25.099 -20.696   6.963  0.00  0.00    +0.236 C 
ATOM      3  O   LIG    1       24.527 -20.519   8.036  0.00  0.00    -0.274 OA
ATOM      4  N   LIG    1       26.463 -20.627   6.905  0.00  0.00    -0.239 N 
ATOM      5  H   LIG    1       26.919 -20.423   7.785  0.00  0.00    +0.159 HD
ATOM      6  C   LIG    1       27.138 -20.186   5.810  0.00  0.00    +0.312 C 
ATOM      7  O   LIG    1       28.257 -19.699   5.903  0.00  0.00    -0.252 OA
ATOM      8  N   LIG    1       26.470 -20.216   4.625  0.00  0.00    -0.239 N 
ATOM      9  H   LIG    1       26.945 -19.766   3.854  0.00  0.00    +0.159 HD
ATOM     10  C   LIG    1       25.113 -20.338   4.496  0.00  0.00    +0.236 C 
ATOM     11  O   LIG    1       24.570 -19.961   3.461  0.00  0.00    -0.274 OA
ENDROOT
BRANCH   1  12
ATOM     12  C   LIG    1       22.870 -20.652   5.741  0.00  0.00    +0.007 C 
ATOM     13  C   LIG    1       21.914 -21.559   4.952  0.00  0.00    +0.009 C 
ATOM     14  C   LIG    1       22.598 -19.189   5.353  0.00  0.00    +0.009 C 
ENDBRANCH   1  12
BRANCH   1  15
ATOM     15  C   LIG    1       24.615 -22.564   5.400  0.00  0.00    +0.052 C 
BRANCH  15  17
ATOM     16  C   LIG    1       23.613 -24.547   6.572  0.00  0.00    +0.004 C 
ATOM     17  C   LIG    1       24.374 -23.445   6.598  0.00  0.00    -0.033 C 
ENDBRANCH  15  17
ENDBRANCH   1  15
TORSDOF 3
ENDMDL
MODEL 2
REMARK VINA RESULT:      -7.2      1.258      3.470
REMARK  Name = *****
REMARK                            x       y       z     vdW  Elec       q    Type
REMARK                         _______ _______ _______ _____ _____    ______ ____
ROOT
ATOM      1  C   LIG    1       24.439 -21.748   6.816  0.00  0.00    +0.129 C 
ATOM      2  C   LIG    1       25.020 -21.793   5.397  0.00  0.00    +0.236 C 
ATOM      3  O   LIG    1       24.722 -22.632   4.550  0.00  0.00    -0.274 OA
ATOM      4  N   LIG    1       25.899 -20.795   5.080  0.00  0.00    -0.239 N 
ATOM      5  H   LIG    1       26.256 -20.823   4.134  0.00  0.00    +0.159 HD
ATOM      6  C   LIG    1       26.751 -20.242   5.983  0.00  0.00    +0.312 C 
ATOM      7  O   LIG    1       27.802 -19.720   5.634  0.00  0.00    -0.252 OA
ATOM      8  N   LIG    1       26.432 -20.390   7.298  0.00  0.00    -0.239 N 
ATOM      9  H   LIG    1       27.144 -20.084   7.948  0.00  0.00    +0.159 HD
ATOM     10  C   LIG    1       25.532 -21.298   7.786  0.00  0.00    +0.236 C 
ATOM     11  O   LIG    1       25.598 -21.637   8.965  0.00  0.00    -0.274 OA
ENDROOT
BRANCH   1  12
ATOM     12  C   LIG    1       23.826 -23.145   7.189  0.00  0.00    +0.007 C 
ATOM     13  C   LIG    1       24.672 -24.361   6.782  0.00  0.00    +0.009 C 
ATOM     14  C   LIG    1       22.396 -23.335   6.656  0.00  0.00    +0.009 C 
ENDBRANCH   1  12
BRANCH   1  15
ATOM     15  C   LIG    1       23.383 -20.597   6.832  0.00  0.00    +0.052 C 
BRANCH  15  17
ATOM     16  C   LIG    1       22.484 -19.128   5.003  0.00  0.00    +0.004 C 
ATOM     17  C   LIG    1       22.694 -20.347   5.516  0.00  0.00    -0.033 C 
ENDBRANCH  15  17
ENDBRANCH   1  15
TORSDOF 3
ENDMDL
MODEL 3
REMARK VINA RESULT:      -6.8      1.430      1.598
REMARK  Name = *****
REMARK                            x       y       z     vdW  Elec       q    Type
REMARK                         _______ _______ _______ _____ _____    ______ ____
ROOT
ATOM      1  C   LIG    1       24.530 -21.417   6.036  0.00  0.00    +0.129 C 
ATOM      2  C   LIG    1       24.215 -21.201   7.521  0.00  0.00    +0.236 C 
ATOM      3  O   LIG    1       23.081 -21.151   7.992  0.00  0.00    -0.274 OA
ATOM      4  N   LIG    1       25.296 -21.098   8.352  0.00  0.00    -0.239 N 
ATOM      5  H   LIG    1       25.074 -20.979   9.331  0.00  0.00    +0.159 HD
ATOM      6  C   LIG    1       26.471 -20.530   7.972  0.00  0.00    +0.312 C 
ATOM      7  O   LIG    1       27.235 -20.032   8.790  0.00  0.00    -0.252 OA
ATOM      8  N   LIG    1       26.709 -20.447   6.635  0.00  0.00    -0.239 N 
ATOM      9  H   LIG    1       27.525 -19.908   6.377  0.00  0.00    +0.159 HD
ATOM     10  C   LIG    1       25.756 -20.583   5.662  0.00  0.00    +0.236 C 
ATOM     11  O   LIG    1       25.961 -20.110   4.548  0.00  0.00    -0.274 OA
ENDROOT
BRANCH   1  12
ATOM     12  C   LIG    1       23.268 -21.074   5.166  0.00  0.00    +0.007 C 
ATOM     13  C   LIG    1       23.432 -21.304   3.655  0.00  0.00    +0.009 C 
ATOM     14  C   LIG    1       22.750 -19.645   5.396  0.00  0.00    +0.009 C 
ENDBRANCH   1  12
BRANCH   1  15
ATOM     15  C   LIG    1       24.987 -22.903   5.886  0.00  0.00    +0.052 C 
BRANCH  15  17
ATOM     16  C   LIG    1       24.099 -25.232   6.196  0.00  0.00    +0.004 C 
ATOM     17  C   LIG    1       24.041 -23.921   6.465  0.00  0.00    -0.033 C 
ENDBRANCH  15  17
ENDBRANCH   1  15
TORSDOF 3
ENDMDL
MODEL 4
REMARK VINA RESULT:      -6.7      1.767      3.706
REMARK  Name = *****
REMARK                            x       y       z     vdW  Elec       q    Type
REMARK                         _______ _______ _______ _____ _____    ______ ____
ROOT
ATOM      1  C   LIG    1       25.093 -21.576   6.491  0.00  0.00    +0.129 C 
ATOM      2  C   LIG    1       25.595 -20.492   5.530  0.00  0.00    +0.236 C 
ATOM      3  O   LIG    1       26.741 -20.046   5.521  0.00  0.00    -0.274 OA
ATOM      4  N   LIG    1       24.688 -20.041   4.612  0.00  0.00    -0.239 N 
ATOM      5  H   LIG    1       25.040 -19.344   3.969  0.00  0.00    +0.159 HD
ATOM      6  C   LIG    1       23.358 -19.942   4.870  0.00  0.00    +0.312 C 
ATOM      7  O   LIG    1       22.647 -19.148   4.268  0.00  0.00    -0.252 OA
ATOM      8  N   LIG    1       22.875 -20.692   5.898  0.00  0.00    -0.239 N 
ATOM      9  H   LIG    1       21.914 -20.504   6.151  0.00  0.00    +0.159 HD
ATOM     10  C   LIG    1       23.644 -21.267   6.874  0.00  0.00    +0.236 C 
ATOM     11  O   LIG    1       23.129 -21.569   7.947  0.00  0.00    -0.274 OA
ENDROOT
BRANCH   1  12
ATOM     12  C   LIG    1       26.046 -21.673   7.735  0.00  0.00    +0.007 C 
ATOM     13  C   LIG    1       26.009 -20.466   8.686  0.00  0.00    +0.009 C 
ATOM     14  C   LIG    1       27.508 -21.954   7.351  0.00  0.00    +0.009 C 
ENDBRANCH   1  12
BRANCH   1  15
ATOM     15  C   LIG    1       25.023 -22.904   5.673  0.00  0.00    +0.052 C 
BRANCH  15  17
ATOM     16  C   LIG    1       23.794 -24.960   6.428  0.00  0.00    +0.004 C 
ATOM     17  C   LIG    1       24.860 -24.152   6.499  0.00  0.00    -0.033 C 
ENDBRANCH  15  17
ENDBRANCH   1  15
TORSDOF 3
ENDMDL
MODEL 5
REMARK VINA RESULT:      -6.7      2.465      4.465
REMARK  Name = *****
REMARK                            x       y       z     vdW  Elec       q    Type
REMARK                         _______ _______ _______ _____ _____    ______ ____
ROOT
ATOM      1  C   LIG    1       25.235 -21.395   6.523  0.00  0.00    +0.129 C 
ATOM      2  C   LIG    1       23.770 -21.280   6.962  0.00  0.00    +0.236 C 
ATOM      3  O   LIG    1       23.289 -20.303   7.529  0.00  0.00    -0.274 OA
ATOM      4  N   LIG    1       22.969 -22.343   6.651  0.00  0.00    -0.239 N 
ATOM      5  H   LIG    1       22.000 -22.244   6.925  0.00  0.00    +0.159 HD
ATOM      6  C   LIG    1       23.415 -23.627   6.630  0.00  0.00    +0.312 C 
ATOM      7  O   LIG    1       22.655 -24.571   6.809  0.00  0.00    -0.252 OA
ATOM      8  N   LIG    1       24.757 -23.808   6.503  0.00  0.00    -0.239 N 
ATOM      9  H   LIG    1       25.074 -24.762   6.619  0.00  0.00    +0.159 HD
ATOM     10  C   LIG    1       25.700 -22.840   6.719  0.00  0.00    +0.236 C 
ATOM     11  O   LIG    1       26.855 -23.169   6.974  0.00  0.00    -0.274 OA
ENDROOT
BRANCH   1  12
ATOM     12  C   LIG    1       26.114 -20.358   7.310  0.00  0.00    +0.007 C 
ATOM     13  C   LIG    1       27.547 -20.182   6.786  0.00  0.00    +0.009 C 
ATOM     14  C   LIG    1       26.170 -20.642   8.820  0.00  0.00    +0.009 C 
ENDBRANCH   1  12
BRANCH   1  15
ATOM     15  C   LIG    1       25.260 -21.166   4.978  0.00  0.00    +0.052 C 
BRANCH  15  17
ATOM     16  C   LIG    1       25.056 -19.075   3.603  0.00  0.00    +0.004 C 
ATOM     17  C   LIG    1       24.552 -19.923   4.508  0.00  0.00    -0.033 C 
ENDBRANCH  15  17
ENDBRANCH   1  15
TORSDOF 3
ENDMDL
MODEL 6
REMARK VINA RESULT:      -6.5      2.347      3.837
REMARK  Name = *****
REMARK                            x       y       z     vdW  Elec       q    Type
REMARK                         _______ _______ _______ _____ _____    ______ ____
ROOT
ATOM      1  C   LIG    1       25.096 -21.664   6.647  0.00  0.00    +0.129 C 
ATOM      2  C   LIG    1       25.486 -23.016   7.257  0.00  0.00    +0.236 C 
ATOM      3  O   LIG    1       26.131 -23.151   8.294  0.00  0.00    -0.274 OA
ATOM      4  N   LIG    1       25.037 -24.123   6.593  0.00  0.00    -0.239 N 
ATOM      5  H   LIG    1       25.281 -25.007   7.019  0.00  0.00    +0.159 HD
ATOM      6  C   LIG    1       24.901 -24.173   5.241  0.00  0.00    +0.312 C 
ATOM      7  O   LIG    1       24.953 -25.234   4.632  0.00  0.00    -0.252 OA
ATOM      8  N   LIG    1       24.810 -22.982   4.589  0.00  0.00    -0.239 N 
ATOM      9  H   LIG    1       24.839 -23.042   3.580  0.00  0.00    +0.159 HD
ATOM     10  C   LIG    1       25.161 -21.771   5.122  0.00  0.00    +0.236 C 
ATOM     11  O   LIG    1       25.426 -20.837   4.371  0.00  0.00    -0.274 OA
ENDROOT
BRANCH   1  12
ATOM     12  C   LIG    1       26.019 -20.531   7.221  0.00  0.00    +0.007 C 
ATOM     13  C   LIG    1       27.500 -20.628   6.824  0.00  0.00    +0.009 C 
ATOM     14  C   LIG    1       25.924 -20.395   8.750  0.00  0.00    +0.009 C 
ENDBRANCH   1  12
BRANCH   1  15
ATOM     15  C   LIG    1       23.585 -21.443   6.975  0.00  0.00    +0.052 C 
BRANCH  15  17
ATOM     16  C   LIG    1       22.177 -20.409   5.170  0.00  0.00    +0.004 C 
ATOM     17  C   LIG    1       22.943 -20.283   6.262  0.00  0.00    -0.033 C 
ENDBRANCH  15  17
ENDBRANCH   1  15
TORSDOF 3
ENDMDL
MODEL 7
REMARK VINA RESULT:      -6.5      2.229      3.819
REMARK  Name = *****
REMARK                            x       y       z     vdW  Elec       q    Type
REMARK                         _______ _______ _______ _____ _____    ______ ____
ROOT
ATOM      1  C   LIG    1       24.553 -21.862   6.292  0.00  0.00    +0.129 C 
ATOM      2  C   LIG    1       23.472 -21.038   7.003  0.00  0.00    +0.236 C 
ATOM      3  O   LIG    1       23.051 -21.272   8.133  0.00  0.00    -0.274 OA
ATOM      4  N   LIG    1       22.996 -19.957   6.315  0.00  0.00    -0.239 N 
ATOM      5  H   LIG    1       22.301 -19.409   6.806  0.00  0.00    +0.159 HD
ATOM      6  C   LIG    1       22.872 -19.935   4.962  0.00  0.00    +0.312 C 
ATOM      7  O   LIG    1       22.059 -19.207   4.406  0.00  0.00    -0.252 OA
ATOM      8  N   LIG    1       23.619 -20.832   4.262  0.00  0.00    -0.239 N 
ATOM      9  H   LIG    1       23.413 -20.882   3.274  0.00  0.00    +0.159 HD
ATOM     10  C   LIG    1       24.217 -21.939   4.801  0.00  0.00    +0.236 C 
ATOM     11  O   LIG    1       24.516 -22.878   4.069  0.00  0.00    -0.274 OA
ENDROOT
BRANCH   1  12
ATOM     12  C   LIG    1       24.679 -23.275   6.964  0.00  0.00    +0.007 C 
ATOM     13  C   LIG    1       25.978 -24.035   6.655  0.00  0.00    +0.009 C 
ATOM     14  C   LIG    1       23.484 -24.194   6.660  0.00  0.00    +0.009 C 
ENDBRANCH   1  12
BRANCH   1  15
ATOM     15  C   LIG    1       25.873 -21.031   6.369  0.00  0.00    +0.052 C 
BRANCH  15  17
ATOM     16  C   LIG    1       27.542 -20.282   8.090  0.00  0.00    +0.004 C 
ATOM     17  C   LIG    1       26.291 -20.629   7.758  0.00  0.00    -0.033 C 
ENDBRANCH  15  17
ENDBRANCH   1  15
TORSDOF 3
ENDMDL
MODEL 8
REMARK VINA RESULT:      -6.4      2.206      3.877
REMARK  Name = *****
REMARK                            x       y       z     vdW  Elec       q    Type
REMARK                         _______ _______ _______ _____ _____    ______ ____
ROOT
ATOM      1  C   LIG    1       24.397 -21.130   5.645  0.00  0.00    +0.129 C 
ATOM      2  C   LIG    1       24.392 -22.197   4.544  0.00  0.00    +0.236 C 
ATOM      3  O   LIG    1       24.125 -21.979   3.365  0.00  0.00    -0.274 OA
ATOM      4  N   LIG    1       24.749 -23.458   4.933  0.00  0.00    -0.239 N 
ATOM      5  H   LIG    1       24.764 -24.147   4.192  0.00  0.00    +0.159 HD
ATOM      6  C   LIG    1       24.462 -23.965   6.161  0.00  0.00    +0.312 C 
ATOM      7  O   LIG    1       24.359 -25.170   6.347  0.00  0.00    -0.252 OA
ATOM      8  N   LIG    1       24.194 -23.067   7.148  0.00  0.00    -0.239 N 
ATOM      9  H   LIG    1       23.859 -23.469   8.014  0.00  0.00    +0.159 HD
ATOM     10  C   LIG    1       23.875 -21.752   6.942  0.00  0.00    +0.236 C 
ATOM     11  O   LIG    1       23.271 -21.134   7.815  0.00  0.00    -0.274 OA
ENDROOT
BRANCH   1  12
ATOM     12  C   LIG    1       23.562 -19.881   5.186  0.00  0.00    +0.007 C 
ATOM     13  C   LIG    1       22.088 -20.164   4.857  0.00  0.00    +0.009 C 
ATOM     14  C   LIG    1       24.199 -19.136   4.001  0.00  0.00    +0.009 C 
ENDBRANCH   1  12
BRANCH   1  15
ATOM     15  C   LIG    1       25.894 -20.789   5.933  0.00  0.00    +0.052 C 
BRANCH  15  17
ATOM     16  C   LIG    1       27.425 -20.366   7.878  0.00  0.00    +0.004 C 
ATOM     17  C   LIG    1       26.193 -20.387   7.353  0.00  0.00    -0.033 C 
ENDBRANCH  15  17
ENDBRANCH   1  15
TORSDOF 3
ENDMDL
MODEL 9
REMARK VINA RESULT:      -6.0      2.916      4.334
REMARK  Name = *****
REMARK                            x       y       z     vdW  Elec       q    Type
REMARK                         _______ _______ _______ _____ _____    ______ ____
ROOT
ATOM      1  C   LIG    1       24.499 -22.702   6.455  0.00  0.00    +0.129 C 
ATOM      2  C   LIG    1       23.485 -23.853   6.437  0.00  0.00    +0.236 C 
ATOM      3  O   LIG    1       22.346 -23.783   6.893  0.00  0.00    -0.274 OA
ATOM      4  N   LIG    1       23.901 -25.006   5.832  0.00  0.00    -0.239 N 
ATOM      5  H   LIG    1       23.214 -25.748   5.806  0.00  0.00    +0.159 HD
ATOM      6  C   LIG    1       25.190 -25.438   5.864  0.00  0.00    +0.312 C 
ATOM      7  O   LIG    1       25.469 -26.624   5.745  0.00  0.00    -0.252 OA
ATOM      8  N   LIG    1       26.142 -24.506   6.138  0.00  0.00    -0.239 N 
ATOM      9  H   LIG    1       27.073 -24.874   6.283  0.00  0.00    +0.159 HD
ATOM     10  C   LIG    1       25.897 -23.277   6.690  0.00  0.00    +0.236 C 
ATOM     11  O   LIG    1       26.807 -22.682   7.262  0.00  0.00    -0.274 OA
ENDROOT
BRANCH   1  12
ATOM     12  C   LIG    1       24.085 -21.640   7.535  0.00  0.00    +0.007 C 
ATOM     13  C   LIG    1       23.144 -20.532   7.038  0.00  0.00    +0.009 C 
ATOM     14  C   LIG    1       25.293 -20.988   8.230  0.00  0.00    +0.009 C 
ENDBRANCH   1  12
BRANCH   1  15
ATOM     15  C   LIG    1       24.539 -22.116   5.009  0.00  0.00    +0.052 C 
BRANCH  15  17
ATOM     16  C   LIG    1       25.175 -19.939   3.929  0.00  0.00    +0.004 C 
ATOM     17  C   LIG    1       25.402 -20.893   4.841  0.00  0.00    -0.033 C 
ENDBRANCH  15  17
ENDBRANCH   1  15
TORSDOF 3
ENDMDL
