MODEL 1
REMARK VINA RESULT:      -7.1      0.000      0.000
REMARK  Name = *****
REMARK                            x       y       z     vdW  Elec       q    Type
REMARK                         _______ _______ _______ _____ _____    ______ ____
ROOT
ATOM      1  C   LIG    1       24.132 -21.566   7.118  0.00  0.00    +0.132 C 
ATOM      2  C   LIG    1       25.598 -21.201   7.590  0.00  0.00    +0.011 C 
ATOM      3  C   LIG    1       25.483 -20.184   8.772  0.00  0.00    +0.015 C 
ATOM      4  C   LIG    1       26.186 -20.434   6.371  0.00  0.00    +0.002 C 
ATOM      5  C   LIG    1       27.582 -20.779   5.821  0.00  0.00    -0.003 C 
ATOM      6  C   LIG    1       28.542 -21.497   6.833  0.00  0.00    -0.000 C 
ATOM      7  C   LIG    1       27.740 -22.704   7.356  0.00  0.00    +0.005 C 
ATOM      8  C   LIG    1       29.245 -20.510   7.850  0.00  0.00    +0.019 C 
ATOM      9  C   LIG    1       29.665 -19.290   7.048  0.00  0.00    -0.063 C 
ATOM     10  C   LIG    1       30.934 -19.033   6.693  0.00  0.00    +0.045 C 
ATOM     11  C   LIG    1       31.496 -18.747   8.036  0.00  0.00    +0.156 C 
ATOM     12  O   LIG    1       31.792 -17.603   8.359  0.00  0.00    -0.293 OA
ATOM     13  C   LIG    1       31.634 -19.963   8.916  0.00  0.00    +0.079 C 
ATOM     14  C   LIG    1       28.591 -18.540   6.355  0.00  0.00    +0.031 C 
ATOM     15  C   LIG    1       30.485 -21.009   8.682  0.00  0.00    +0.016 C 
ATOM     16  C   LIG    1       28.167 -19.476   5.234  0.00  0.00    +0.008 C 
ATOM     17  C   LIG    1       25.128 -20.457   5.252  0.00  0.00    +0.008 C 
ATOM     18  C   LIG    1       26.472 -22.365   8.139  0.00  0.00    +0.011 C 
ATOM     19  C   LIG    1       23.830 -20.520   6.026  0.00  0.00    +0.049 C 
ENDROOT
BRANCH   1  21
ATOM     20  C   LIG    1       23.936 -24.078   6.201  0.00  0.00    +0.007 C 
ATOM     21  C   LIG    1       24.003 -22.924   6.576  0.00  0.00    -0.070 C 
ENDBRANCH   1  21
BRANCH   1  22
ATOM     22  O   LIG    1       23.194 -21.452   8.182  0.00  0.00    -0.376 OA
ATOM     23  H   LIG    1       22.843 -20.547   8.186  0.00  0.00    +0.211 HD
ENDBRANCH   1  22
TORSDOF 2
ENDMDL
MODEL 2
REMARK VINA RESULT:      -5.8      8.873     10.517
REMARK  Name = *****
REMARK                            x       y       z     vdW  Elec       q    Type
REMARK                         _______ _______ _______ _____ _____    ______ ____
ROOT
ATOM      1  C   LIG    1       24.080 -31.474   6.780  0.00  0.00    +0.132 C 
ATOM      2  C   LIG    1       24.203 -30.523   8.040  0.00  0.00    +0.011 C 
ATOM      3  C   LIG    1       24.082 -29.047   7.540  0.00  0.00    +0.015 C 
ATOM      4  C   LIG    1       25.671 -30.738   8.508  0.00  0.00    +0.002 C 
ATOM      5  C   LIG    1       25.996 -30.996   9.991  0.00  0.00    -0.003 C 
ATOM      6  C   LIG    1       24.911 -30.500  11.010  0.00  0.00    -0.000 C 
ATOM      7  C   LIG    1       23.589 -31.123  10.523  0.00  0.00    +0.005 C 
ATOM      8  C   LIG    1       24.992 -28.950  11.317  0.00  0.00    +0.019 C 
ATOM      9  C   LIG    1       26.467 -28.615  11.462  0.00  0.00    -0.063 C 
ATOM     10  C   LIG    1       27.063 -28.373  12.641  0.00  0.00    +0.045 C 
ATOM     11  C   LIG    1       26.404 -27.087  12.974  0.00  0.00    +0.156 C 
ATOM     12  O   LIG    1       27.025 -26.033  12.914  0.00  0.00    -0.293 OA
ATOM     13  C   LIG    1       24.951 -27.221  13.355  0.00  0.00    +0.079 C 
ATOM     14  C   LIG    1       27.336 -28.892  10.295  0.00  0.00    +0.031 C 
ATOM     15  C   LIG    1       24.225 -28.366  12.563  0.00  0.00    +0.016 C 
ATOM     16  C   LIG    1       27.400 -30.411  10.250  0.00  0.00    +0.008 C 
ATOM     17  C   LIG    1       26.293 -31.820   7.607  0.00  0.00    +0.008 C 
ATOM     18  C   LIG    1       23.115 -30.670   9.142  0.00  0.00    +0.011 C 
ATOM     19  C   LIG    1       25.538 -31.645   6.309  0.00  0.00    +0.049 C 
ENDROOT
BRANCH   1  21
ATOM     20  C   LIG    1       22.908 -33.825   7.319  0.00  0.00    +0.007 C 
ATOM     21  C   LIG    1       23.482 -32.782   7.078  0.00  0.00    -0.070 C 
ENDBRANCH   1  21
BRANCH   1  22
ATOM     22  O   LIG    1       23.295 -30.884   5.750  0.00  0.00    -0.376 OA
ATOM     23  H   LIG    1       22.796 -31.587   5.304  0.00  0.00    +0.211 HD
ENDBRANCH   1  22
TORSDOF 2
ENDMDL
MODEL 3
REMARK VINA RESULT:      -5.5     10.695     13.018
REMARK  Name = *****
REMARK                            x       y       z     vdW  Elec       q    Type
REMARK                         _______ _______ _______ _____ _____    ______ ____
ROOT
ATOM      1  C   LIG    1       24.001 -31.050  11.341  0.00  0.00    +0.132 C 
ATOM      2  C   LIG    1       22.651 -30.480  11.938  0.00  0.00    +0.011 C 
ATOM      3  C   LIG    1       21.640 -30.303  10.759  0.00  0.00    +0.015 C 
ATOM      4  C   LIG    1       23.049 -29.058  12.428  0.00  0.00    +0.002 C 
ATOM      5  C   LIG    1       22.647 -28.565  13.830  0.00  0.00    -0.003 C 
ATOM      6  C   LIG    1       21.419 -29.301  14.472  0.00  0.00    -0.000 C 
ATOM      7  C   LIG    1       21.763 -30.800  14.390  0.00  0.00    +0.005 C 
ATOM      8  C   LIG    1       20.021 -28.778  13.946  0.00  0.00    +0.019 C 
ATOM      9  C   LIG    1       20.125 -27.264  13.877  0.00  0.00    -0.063 C 
ATOM     10  C   LIG    1       19.541 -26.436  14.758  0.00  0.00    +0.045 C 
ATOM     11  C   LIG    1       18.122 -26.681  14.401  0.00  0.00    +0.156 C 
ATOM     12  O   LIG    1       17.473 -25.831  13.803  0.00  0.00    -0.293 OA
ATOM     13  C   LIG    1       17.607 -28.035  14.819  0.00  0.00    +0.079 C 
ATOM     14  C   LIG    1       21.179 -26.702  13.000  0.00  0.00    +0.031 C 
ATOM     15  C   LIG    1       18.709 -29.151  14.732  0.00  0.00    +0.016 C 
ATOM     16  C   LIG    1       22.469 -27.035  13.734  0.00  0.00    +0.008 C 
ATOM     17  C   LIG    1       24.562 -28.892  12.194  0.00  0.00    +0.008 C 
ATOM     18  C   LIG    1       21.910 -31.369  12.979  0.00  0.00    +0.011 C 
ATOM     19  C   LIG    1       24.812 -29.784  10.999  0.00  0.00    +0.049 C 
ENDROOT
BRANCH   1  21
ATOM     20  C   LIG    1       25.375 -32.538  13.099  0.00  0.00    +0.007 C 
ATOM     21  C   LIG    1       24.751 -31.902  12.272  0.00  0.00    -0.070 C 
ENDBRANCH   1  21
BRANCH   1  22
ATOM     22  O   LIG    1       23.772 -31.821  10.166  0.00  0.00    -0.376 OA
ATOM     23  H   LIG    1       24.207 -32.682  10.274  0.00  0.00    +0.211 HD
ENDBRANCH   1  22
TORSDOF 2
ENDMDL
MODEL 4
REMARK VINA RESULT:      -5.5      8.638     10.355
REMARK  Name = *****
REMARK                            x       y       z     vdW  Elec       q    Type
REMARK                         _______ _______ _______ _____ _____    ______ ____
ROOT
ATOM      1  C   LIG    1       24.630 -31.465   7.646  0.00  0.00    +0.132 C 
ATOM      2  C   LIG    1       24.582 -30.359   8.777  0.00  0.00    +0.011 C 
ATOM      3  C   LIG    1       24.395 -28.970   8.084  0.00  0.00    +0.015 C 
ATOM      4  C   LIG    1       26.020 -30.393   9.372  0.00  0.00    +0.002 C 
ATOM      5  C   LIG    1       26.242 -30.438  10.895  0.00  0.00    -0.003 C 
ATOM      6  C   LIG    1       25.047 -29.911  11.763  0.00  0.00    -0.000 C 
ATOM      7  C   LIG    1       23.816 -30.696  11.268  0.00  0.00    +0.005 C 
ATOM      8  C   LIG    1       24.989 -28.333  11.871  0.00  0.00    +0.019 C 
ATOM      9  C   LIG    1       26.420 -27.863  12.075  0.00  0.00    -0.063 C 
ATOM     10  C   LIG    1       26.901 -27.429  13.251  0.00  0.00    +0.045 C 
ATOM     11  C   LIG    1       26.125 -26.170  13.368  0.00  0.00    +0.156 C 
ATOM     12  O   LIG    1       26.671 -25.084  13.216  0.00  0.00    -0.293 OA
ATOM     13  C   LIG    1       24.660 -26.375  13.659  0.00  0.00    +0.079 C 
ATOM     14  C   LIG    1       27.398 -28.210  11.017  0.00  0.00    +0.031 C 
ATOM     15  C   LIG    1       24.085 -27.665  12.973  0.00  0.00    +0.016 C 
ATOM     16  C   LIG    1       27.575 -29.712  11.174  0.00  0.00    +0.008 C 
ATOM     17  C   LIG    1       26.789 -31.523   8.665  0.00  0.00    +0.008 C 
ATOM     18  C   LIG    1       23.423 -30.457   9.810  0.00  0.00    +0.011 C 
ATOM     19  C   LIG    1       26.130 -31.572   7.305  0.00  0.00    +0.049 C 
ENDROOT
BRANCH   1  21
ATOM     20  C   LIG    1       23.687 -33.825   8.502  0.00  0.00    +0.007 C 
ATOM     21  C   LIG    1       24.107 -32.770   8.068  0.00  0.00    -0.070 C 
ENDBRANCH   1  21
BRANCH   1  22
ATOM     22  O   LIG    1       23.889 -31.073   6.495  0.00  0.00    -0.376 OA
ATOM     23  H   LIG    1       24.094 -31.690   5.774  0.00  0.00    +0.211 HD
ENDBRANCH   1  22
TORSDOF 2
ENDMDL
MODEL 5
REMARK VINA RESULT:      -5.4      8.527     11.127
REMARK  Name = *****
REMARK                            x       y       z     vdW  Elec       q    Type
REMARK                         _______ _______ _______ _____ _____    ______ ____
ROOT
ATOM      1  C   LIG    1       25.173 -30.164   7.436  0.00  0.00    +0.132 C 
ATOM      2  C   LIG    1       25.965 -30.220   8.806  0.00  0.00    +0.011 C 
ATOM      3  C   LIG    1       26.907 -31.467   8.766  0.00  0.00    +0.015 C 
ATOM      4  C   LIG    1       24.849 -30.512   9.851  0.00  0.00    +0.002 C 
ATOM      5  C   LIG    1       24.755 -29.695  11.152  0.00  0.00    -0.003 C 
ATOM      6  C   LIG    1       26.083 -28.990  11.599  0.00  0.00    -0.000 C 
ATOM      7  C   LIG    1       26.544 -28.187  10.367  0.00  0.00    +0.005 C 
ATOM      8  C   LIG    1       27.094 -29.954  12.341  0.00  0.00    +0.019 C 
ATOM      9  C   LIG    1       26.263 -30.809  13.283  0.00  0.00    -0.063 C 
ATOM     10  C   LIG    1       26.230 -30.633  14.614  0.00  0.00    +0.045 C 
ATOM     11  C   LIG    1       27.617 -31.049  14.937  0.00  0.00    +0.156 C 
ATOM     12  O   LIG    1       27.834 -32.115  15.500  0.00  0.00    -0.293 OA
ATOM     13  C   LIG    1       28.672 -30.067  14.495  0.00  0.00    +0.079 C 
ATOM     14  C   LIG    1       25.203 -31.645  12.673  0.00  0.00    +0.031 C 
ATOM     15  C   LIG    1       28.295 -29.341  13.154  0.00  0.00    +0.016 C 
ATOM     16  C   LIG    1       24.161 -30.631  12.226  0.00  0.00    +0.008 C 
ATOM     17  C   LIG    1       23.503 -30.524   9.104  0.00  0.00    +0.008 C 
ATOM     18  C   LIG    1       26.896 -29.017   9.132  0.00  0.00    +0.011 C 
ATOM     19  C   LIG    1       23.898 -30.982   7.718  0.00  0.00    +0.049 C 
ENDROOT
BRANCH   1  21
ATOM     20  C   LIG    1       24.544 -27.706   6.567  0.00  0.00    +0.007 C 
ATOM     21  C   LIG    1       24.825 -28.804   7.007  0.00  0.00    -0.070 C 
ENDBRANCH   1  21
BRANCH   1  22
ATOM     22  O   LIG    1       25.916 -30.757   6.376  0.00  0.00    -0.376 OA
ATOM     23  H   LIG    1       26.824 -30.906   6.684  0.00  0.00    +0.211 HD
ENDBRANCH   1  22
TORSDOF 2
ENDMDL
MODEL 6
REMARK VINA RESULT:      -5.4      9.136     12.075
REMARK  Name = *****
REMARK                            x       y       z     vdW  Elec       q    Type
REMARK                         _______ _______ _______ _____ _____    ______ ____
ROOT
ATOM      1  C   LIG    1       26.857 -29.256  12.001  0.00  0.00    +0.132 C 
ATOM      2  C   LIG    1       25.398 -29.236  12.614  0.00  0.00    +0.011 C 
ATOM      3  C   LIG    1       24.402 -29.697  11.500  0.00  0.00    +0.015 C 
ATOM      4  C   LIG    1       25.140 -27.722  12.871  0.00  0.00    +0.002 C 
ATOM      5  C   LIG    1       24.574 -27.238  14.219  0.00  0.00    -0.003 C 
ATOM      6  C   LIG    1       23.794 -28.319  15.046  0.00  0.00    -0.000 C 
ATOM      7  C   LIG    1       24.757 -29.517  15.146  0.00  0.00    +0.005 C 
ATOM      8  C   LIG    1       22.305 -28.537  14.559  0.00  0.00    +0.019 C 
ATOM      9  C   LIG    1       21.737 -27.156  14.274  0.00  0.00    -0.063 C 
ATOM     10  C   LIG    1       20.857 -26.533  15.075  0.00  0.00    +0.045 C 
ATOM     11  C   LIG    1       19.685 -27.415  14.861  0.00  0.00    +0.156 C 
ATOM     12  O   LIG    1       18.726 -27.032  14.203  0.00  0.00    -0.293 OA
ATOM     13  C   LIG    1       19.814 -28.775  15.500  0.00  0.00    +0.079 C 
ATOM     14  C   LIG    1       22.435 -26.341  13.252  0.00  0.00    +0.031 C 
ATOM     15  C   LIG    1       21.291 -29.308  15.485  0.00  0.00    +0.016 C 
ATOM     16  C   LIG    1       23.746 -25.968  13.926  0.00  0.00    +0.008 C 
ATOM     17  C   LIG    1       26.427 -26.962  12.504  0.00  0.00    +0.008 C 
ATOM     18  C   LIG    1       25.126 -30.181  13.819  0.00  0.00    +0.011 C 
ATOM     19  C   LIG    1       27.032 -27.835  11.428  0.00  0.00    +0.049 C 
ENDROOT
BRANCH   1  21
ATOM     20  C   LIG    1       28.789 -29.698  13.807  0.00  0.00    +0.007 C 
ATOM     21  C   LIG    1       27.910 -29.546  12.982  0.00  0.00    -0.070 C 
ENDBRANCH   1  21
BRANCH   1  22
ATOM     22  O   LIG    1       26.978 -30.224  10.964  0.00  0.00    -0.376 OA
ATOM     23  H   LIG    1       27.147 -29.759  10.129  0.00  0.00    +0.211 HD
ENDBRANCH   1  22
TORSDOF 2
ENDMDL
MODEL 7
REMARK VINA RESULT:      -5.4      8.482     11.193
REMARK  Name = *****
REMARK                            x       y       z     vdW  Elec       q    Type
REMARK                         _______ _______ _______ _____ _____    ______ ____
ROOT
ATOM      1  C   LIG    1       25.680 -29.253  14.154  0.00  0.00    +0.132 C 
ATOM      2  C   LIG    1       25.442 -28.985  12.612  0.00  0.00    +0.011 C 
ATOM      3  C   LIG    1       23.983 -28.451  12.437  0.00  0.00    +0.015 C 
ATOM      4  C   LIG    1       25.494 -30.410  11.990  0.00  0.00    +0.002 C 
ATOM      5  C   LIG    1       26.338 -30.691  10.733  0.00  0.00    -0.003 C 
ATOM      6  C   LIG    1       26.660 -29.436   9.848  0.00  0.00    -0.000 C 
ATOM      7  C   LIG    1       27.274 -28.409  10.820  0.00  0.00    +0.005 C 
ATOM      8  C   LIG    1       25.473 -29.012   8.892  0.00  0.00    +0.019 C 
ATOM      9  C   LIG    1       24.904 -30.297   8.315  0.00  0.00    -0.063 C 
ATOM     10  C   LIG    1       25.115 -30.703   7.052  0.00  0.00    +0.045 C 
ATOM     11  C   LIG    1       24.341 -29.657   6.340  0.00  0.00    +0.156 C 
ATOM     12  O   LIG    1       23.271 -29.926   5.808  0.00  0.00    -0.293 OA
ATOM     13  C   LIG    1       24.983 -28.293   6.365  0.00  0.00    +0.079 C 
ATOM     14  C   LIG    1       24.378 -31.292   9.278  0.00  0.00    +0.031 C 
ATOM     15  C   LIG    1       25.752 -28.015   7.706  0.00  0.00    +0.016 C 
ATOM     16  C   LIG    1       25.629 -31.824   9.961  0.00  0.00    +0.008 C 
ATOM     17  C   LIG    1       25.835 -31.399  13.119  0.00  0.00    +0.008 C 
ATOM     18  C   LIG    1       26.349 -27.919  11.934  0.00  0.00    +0.011 C 
ATOM     19  C   LIG    1       25.252 -30.723  14.339  0.00  0.00    +0.049 C 
ENDROOT
BRANCH   1  21
ATOM     20  C   LIG    1       28.244 -28.992  14.896  0.00  0.00    +0.007 C 
ATOM     21  C   LIG    1       27.072 -29.068  14.581  0.00  0.00    -0.070 C 
ENDBRANCH   1  21
BRANCH   1  22
ATOM     22  O   LIG    1       24.880 -28.400  14.966  0.00  0.00    -0.376 OA
ATOM     23  H   LIG    1       24.055 -28.865  15.179  0.00  0.00    +0.211 HD
ENDBRANCH   1  22
TORSDOF 2
ENDMDL
MODEL 8
REMARK VINA RESULT:      -5.2      7.561     10.776
REMARK  Name = *****
REMARK                            x       y       z     vdW  Elec       q    Type
REMARK                         _______ _______ _______ _____ _____    ______ ____
ROOT
ATOM      1  C   LIG    1       23.455 -32.445  10.830  0.00  0.00    +0.132 C 
ATOM      2  C   LIG    1       23.878 -31.128  10.060  0.00  0.00    +0.011 C 
ATOM      3  C   LIG    1       22.739 -30.074  10.247  0.00  0.00    +0.015 C 
ATOM      4  C   LIG    1       23.866 -31.568   8.567  0.00  0.00    +0.002 C 
ATOM      5  C   LIG    1       25.045 -31.230   7.636  0.00  0.00    -0.003 C 
ATOM      6  C   LIG    1       25.930 -30.017   8.089  0.00  0.00    -0.000 C 
ATOM      7  C   LIG    1       26.329 -30.334   9.544  0.00  0.00    +0.005 C 
ATOM      8  C   LIG    1       25.309 -28.608   7.727  0.00  0.00    +0.019 C 
ATOM      9  C   LIG    1       24.748 -28.732   6.321  0.00  0.00    -0.063 C 
ATOM     10  C   LIG    1       25.331 -28.196   5.236  0.00  0.00    +0.045 C 
ATOM     11  C   LIG    1       25.119 -26.761   5.544  0.00  0.00    +0.156 C 
ATOM     12  O   LIG    1       24.299 -26.102   4.916  0.00  0.00    -0.293 OA
ATOM     13  C   LIG    1       25.971 -26.242   6.674  0.00  0.00    +0.079 C 
ATOM     14  C   LIG    1       23.702 -29.759   6.103  0.00  0.00    +0.031 C 
ATOM     15  C   LIG    1       26.216 -27.322   7.788  0.00  0.00    +0.016 C 
ATOM     16  C   LIG    1       24.462 -31.072   6.216  0.00  0.00    +0.008 C 
ATOM     17  C   LIG    1       23.541 -33.072   8.528  0.00  0.00    +0.008 C 
ATOM     18  C   LIG    1       25.174 -30.416  10.543  0.00  0.00    +0.011 C 
ATOM     19  C   LIG    1       22.694 -33.261   9.766  0.00  0.00    +0.049 C 
ENDROOT
BRANCH   1  21
ATOM     20  C   LIG    1       25.505 -33.825  11.870  0.00  0.00    +0.007 C 
ATOM     21  C   LIG    1       24.587 -33.217  11.355  0.00  0.00    -0.070 C 
ENDBRANCH   1  21
BRANCH   1  22
ATOM     22  O   LIG    1       22.602 -32.157  11.933  0.00  0.00    -0.376 OA
ATOM     23  H   LIG    1       22.270 -31.249  11.836  0.00  0.00    +0.211 HD
ENDBRANCH   1  22
TORSDOF 2
ENDMDL
MODEL 9
REMARK VINA RESULT:      -5.0      9.345     11.460
REMARK  Name = *****
REMARK                            x       y       z     vdW  Elec       q    Type
REMARK                         _______ _______ _______ _____ _____    ______ ____
ROOT
ATOM      1  C   LIG    1       25.554 -31.232   7.666  0.00  0.00    +0.132 C 
ATOM      2  C   LIG    1       25.114 -30.334   8.894  0.00  0.00    +0.011 C 
ATOM      3  C   LIG    1       25.881 -28.975   8.795  0.00  0.00    +0.015 C 
ATOM      4  C   LIG    1       25.684 -31.102  10.121  0.00  0.00    +0.002 C 
ATOM      5  C   LIG    1       24.808 -31.372  11.358  0.00  0.00    -0.003 C 
ATOM      6  C   LIG    1       23.584 -30.407  11.536  0.00  0.00    -0.000 C 
ATOM      7  C   LIG    1       22.833 -30.461  10.191  0.00  0.00    +0.005 C 
ATOM      8  C   LIG    1       23.965 -29.011  12.175  0.00  0.00    +0.019 C 
ATOM      9  C   LIG    1       24.947 -29.304  13.297  0.00  0.00    -0.063 C 
ATOM     10  C   LIG    1       24.627 -29.251  14.600  0.00  0.00    +0.045 C 
ATOM     11  C   LIG    1       24.416 -27.788  14.728  0.00  0.00    +0.156 C 
ATOM     12  O   LIG    1       25.226 -27.090  15.325  0.00  0.00    -0.293 OA
ATOM     13  C   LIG    1       23.164 -27.286  14.054  0.00  0.00    +0.079 C 
ATOM     14  C   LIG    1       26.206 -29.992  12.926  0.00  0.00    +0.031 C 
ATOM     15  C   LIG    1       22.827 -28.081  12.742  0.00  0.00    +0.016 C 
ATOM     16  C   LIG    1       25.753 -31.401  12.578  0.00  0.00    +0.008 C 
ATOM     17  C   LIG    1       26.323 -32.402   9.600  0.00  0.00    +0.008 C 
ATOM     18  C   LIG    1       23.610 -29.946   8.980  0.00  0.00    +0.011 C 
ATOM     19  C   LIG    1       26.765 -32.018   8.206  0.00  0.00    +0.049 C 
ENDROOT
BRANCH   1  21
ATOM     20  C   LIG    1       23.656 -32.881   6.734  0.00  0.00    +0.007 C 
ATOM     21  C   LIG    1       24.510 -32.154   7.201  0.00  0.00    -0.070 C 
ENDBRANCH   1  21
BRANCH   1  22
ATOM     22  O   LIG    1       25.938 -30.440   6.547  0.00  0.00    -0.376 OA
ATOM     23  H   LIG    1       25.475 -29.589   6.600  0.00  0.00    +0.211 HD
ENDBRANCH   1  22
TORSDOF 2
ENDMDL
