MODEL 1
REMARK VINA RESULT:      -3.5      0.000      0.000
REMARK  Name = *****
REMARK                            x       y       z     vdW  Elec       q    Type
REMARK                         _______ _______ _______ _____ _____    ______ ____
ROOT
ATOM      1  C   LIG    1       25.034 -17.435   3.161  0.00  0.00    +0.162 C 
ENDROOT
BRANCH   1   2
ATOM      2  C   LIG    1       24.197 -18.450   3.935  0.00  0.00    -0.007 A 
ATOM      3  C   LIG    1       24.762 -19.444   4.786  0.00  0.00    +0.009 A 
ATOM      4  C   LIG    1       23.866 -20.312   5.471  0.00  0.00    +0.071 A 
ATOM      5  C   LIG    1       24.377 -21.267   6.336  0.00  0.00    +0.032 A 
ATOM      6  C   LIG    1       25.746 -21.405   6.562  0.00  0.00    +0.048 A 
ATOM      7  C   LIG    1       26.640 -20.570   5.905  0.00  0.00    +0.121 A 
ATOM      8  N   LIG    1       22.538 -20.249   5.330  0.00  0.00    -0.255 NA
ATOM      9  C   LIG    1       22.028 -19.292   4.535  0.00  0.00    +0.112 A 
ATOM     10  C   LIG    1       26.147 -19.620   5.011  0.00  0.00    +0.056 A 
ATOM     11  C   LIG    1       22.799 -18.379   3.839  0.00  0.00    +0.026 A 
BRANCH   7  12
ATOM     12  O   LIG    1       27.963 -20.780   6.176  0.00  0.00    -0.495 OA
ATOM     13  C   LIG    1       28.802 -19.634   6.057  0.00  0.00    +0.277 C 
ENDBRANCH   7  12
ENDBRANCH   1   2
BRANCH   1  17
ATOM     14  C   LIG    1       26.715 -13.758   4.897  0.00  0.00    +0.028 C 
ATOM     15  C   LIG    1       25.388 -13.825   4.100  0.00  0.00    -0.000 C 
ATOM     16  C   LIG    1       24.730 -15.182   4.406  0.00  0.00    +0.026 C 
ATOM     17  C   LIG    1       25.701 -16.323   4.034  0.00  0.00    +0.090 C 
ATOM     18  N   LIG    1       26.967 -15.784   3.413  0.00  0.00    -0.296 NA
ATOM     19  C   LIG    1       26.672 -14.917   2.246  0.00  0.00    +0.085 C 
ATOM     20  C   LIG    1       25.667 -13.810   2.589  0.00  0.00    +0.019 C 
ATOM     21  C   LIG    1       27.637 -14.920   4.429  0.00  0.00    +0.092 C 
BRANCH  14  23
ATOM     22  C   LIG    1       28.692 -12.238   4.621  0.00  0.00    +0.004 C 
ATOM     23  C   LIG    1       27.371 -12.402   4.787  0.00  0.00    -0.029 C 
ENDBRANCH  14  23
ENDBRANCH   1  17
BRANCH   1  24
ATOM     24  O   LIG    1       26.073 -18.156   2.480  0.00  0.00    -0.386 OA
ATOM     25  H   LIG    1       26.225 -17.645   1.659  0.00  0.00    +0.210 HD
ENDBRANCH   1  24
TORSDOF 5
ENDMDL
MODEL 2
REMARK VINA RESULT:      -2.2      1.913      3.635
REMARK  Name = *****
REMARK                            x       y       z     vdW  Elec       q    Type
REMARK                         _______ _______ _______ _____ _____    ______ ____
ROOT
ATOM      1  C   LIG    1       27.800 -17.162   4.072  0.00  0.00    +0.162 C 
ENDROOT
BRANCH   1   2
ATOM      2  C   LIG    1       27.608 -18.470   4.834  0.00  0.00    -0.007 A 
ATOM      3  C   LIG    1       26.394 -19.218   4.811  0.00  0.00    +0.009 A 
ATOM      4  C   LIG    1       26.356 -20.436   5.546  0.00  0.00    +0.071 A 
ATOM      5  C   LIG    1       25.205 -21.209   5.518  0.00  0.00    +0.032 A 
ATOM      6  C   LIG    1       24.078 -20.833   4.787  0.00  0.00    +0.048 A 
ATOM      7  C   LIG    1       24.091 -19.649   4.063  0.00  0.00    +0.121 A 
ATOM      8  N   LIG    1       27.389 -20.887   6.266  0.00  0.00    -0.255 NA
ATOM      9  C   LIG    1       28.528 -20.173   6.258  0.00  0.00    +0.112 A 
ATOM     10  C   LIG    1       25.231 -18.845   4.100  0.00  0.00    +0.056 A 
ATOM     11  C   LIG    1       28.688 -18.989   5.563  0.00  0.00    +0.026 A 
BRANCH   7  12
ATOM     12  O   LIG    1       22.943 -19.351   3.384  0.00  0.00    -0.495 OA
ATOM     13  C   LIG    1       21.971 -18.611   4.117  0.00  0.00    +0.277 C 
ENDBRANCH   7  12
ENDBRANCH   1   2
BRANCH   1  17
ATOM     14  C   LIG    1       25.086 -13.698   4.061  0.00  0.00    +0.028 C 
ATOM     15  C   LIG    1       25.540 -14.462   2.792  0.00  0.00    -0.000 C 
ATOM     16  C   LIG    1       25.696 -15.945   3.172  0.00  0.00    +0.026 C 
ATOM     17  C   LIG    1       26.704 -16.077   4.332  0.00  0.00    +0.090 C 
ATOM     18  N   LIG    1       27.296 -14.738   4.700  0.00  0.00    -0.296 NA
ATOM     19  C   LIG    1       27.904 -14.073   3.521  0.00  0.00    +0.085 C 
ATOM     20  C   LIG    1       26.928 -13.982   2.342  0.00  0.00    +0.019 C 
ATOM     21  C   LIG    1       26.178 -13.860   5.156  0.00  0.00    +0.092 C 
BRANCH  14  23
ATOM     22  C   LIG    1       23.926 -11.879   2.779  0.00  0.00    +0.004 C 
ATOM     23  C   LIG    1       24.757 -12.254   3.763  0.00  0.00    -0.029 C 
ENDBRANCH  14  23
ENDBRANCH   1  17
BRANCH   1  24
ATOM     24  O   LIG    1       29.072 -16.618   4.454  0.00  0.00    -0.386 OA
ATOM     25  H   LIG    1       29.486 -17.322   4.995  0.00  0.00    +0.210 HD
ENDBRANCH   1  24
TORSDOF 5
ENDMDL
MODEL 3
REMARK VINA RESULT:      -2.0      1.786      3.712
REMARK  Name = *****
REMARK                            x       y       z     vdW  Elec       q    Type
REMARK                         _______ _______ _______ _____ _____    ______ ____
ROOT
ATOM      1  C   LIG    1       26.043 -17.387   3.418  0.00  0.00    +0.162 C 
ENDROOT
BRANCH   1   2
ATOM      2  C   LIG    1       25.652 -18.689   4.112  0.00  0.00    -0.007 A 
ATOM      3  C   LIG    1       24.302 -19.124   4.254  0.00  0.00    +0.009 A 
ATOM      4  C   LIG    1       24.076 -20.372   4.900  0.00  0.00    +0.071 A 
ATOM      5  C   LIG    1       22.779 -20.846   5.025  0.00  0.00    +0.032 A 
ATOM      6  C   LIG    1       21.682 -20.139   4.533  0.00  0.00    +0.048 A 
ATOM      7  C   LIG    1       21.877 -18.919   3.901  0.00  0.00    +0.121 A 
ATOM      8  N   LIG    1       25.063 -21.128   5.393  0.00  0.00    -0.255 NA
ATOM      9  C   LIG    1       26.330 -20.704   5.230  0.00  0.00    +0.112 A 
ATOM     10  C   LIG    1       23.172 -18.413   3.788  0.00  0.00    +0.056 A 
ATOM     11  C   LIG    1       26.669 -19.522   4.599  0.00  0.00    +0.026 A 
BRANCH   7  12
ATOM     12  O   LIG    1       20.748 -18.288   3.458  0.00  0.00    -0.495 OA
ATOM     13  C   LIG    1       19.581 -19.102   3.381  0.00  0.00    +0.277 C 
ENDBRANCH   7  12
ENDBRANCH   1   2
BRANCH   1  17
ATOM     14  C   LIG    1       24.645 -13.408   4.674  0.00  0.00    +0.028 C 
ATOM     15  C   LIG    1       23.970 -14.269   3.577  0.00  0.00    -0.000 C 
ATOM     16  C   LIG    1       24.119 -15.745   3.987  0.00  0.00    +0.026 C 
ATOM     17  C   LIG    1       25.614 -16.083   4.166  0.00  0.00    +0.090 C 
ATOM     18  N   LIG    1       26.489 -14.903   3.815  0.00  0.00    -0.296 NA
ATOM     19  C   LIG    1       26.202 -14.405   2.447  0.00  0.00    +0.085 C 
ATOM     20  C   LIG    1       24.711 -14.115   2.239  0.00  0.00    +0.019 C 
ATOM     21  C   LIG    1       26.149 -13.793   4.754  0.00  0.00    +0.092 C 
BRANCH  14  23
ATOM     22  C   LIG    1       23.475 -11.448   3.631  0.00  0.00    +0.004 C 
ATOM     23  C   LIG    1       24.425 -11.931   4.445  0.00  0.00    -0.029 C 
ENDBRANCH  14  23
ENDBRANCH   1  17
BRANCH   1  24
ATOM     24  O   LIG    1       27.472 -17.378   3.280  0.00  0.00    -0.386 OA
ATOM     25  H   LIG    1       27.698 -18.298   3.035  0.00  0.00    +0.210 HD
ENDBRANCH   1  24
TORSDOF 5
ENDMDL
