MODEL 1
REMARK VINA RESULT:      -6.6      0.000      0.000
REMARK  Name = *****
REMARK                            x       y       z     vdW  Elec       q    Type
REMARK                         _______ _______ _______ _____ _____    ______ ____
ROOT
ATOM      1  C   LIG    1       25.992 -28.681  13.030  0.00  0.00    +0.062 C 
ATOM      2  C   LIG    1       25.477 -29.916  12.254  0.00  0.00    +0.010 C 
ATOM      3  C   LIG    1       24.197 -30.542  12.878  0.00  0.00    +0.003 C 
ATOM      4  C   LIG    1       23.663 -31.708  12.009  0.00  0.00    +0.005 C 
ATOM      5  C   LIG    1       24.477 -31.986  10.741  0.00  0.00    +0.011 C 
ATOM      6  C   LIG    1       24.698 -30.724   9.872  0.00  0.00    +0.011 C 
ATOM      7  C   LIG    1       23.337 -30.175   9.394  0.00  0.00    +0.015 C 
ATOM      8  C   LIG    1       25.678 -30.983   8.671  0.00  0.00    +0.120 C 
ATOM      9  O   LIG    1       25.533 -29.969   7.656  0.00  0.00    -0.458 OA
ATOM     10  C   LIG    1       24.909 -30.480   6.555  0.00  0.00    +0.308 C 
ATOM     11  O   LIG    1       24.586 -29.827   5.583  0.00  0.00    -0.251 OA
ATOM     12  C   LIG    1       24.636 -31.940   6.756  0.00  0.00    +0.124 C 
ATOM     13  C   LIG    1       25.566 -32.283   7.893  0.00  0.00    +0.060 C 
ATOM     14  C   LIG    1       27.052 -30.790   9.301  0.00  0.00    +0.049 C 
ATOM     15  C   LIG    1       26.859 -29.539  10.144  0.00  0.00    +0.008 C 
ATOM     16  C   LIG    1       23.141 -29.533  13.518  0.00  0.00    -0.007 C 
ATOM     17  C   LIG    1       23.153 -29.708  15.066  0.00  0.00    +0.016 C 
ATOM     18  C   LIG    1       23.457 -28.068  13.210  0.00  0.00    -0.059 C 
ATOM     19  C   LIG    1       22.493 -27.142  13.029  0.00  0.00    +0.046 C 
ATOM     20  C   LIG    1       21.048 -27.440  13.181  0.00  0.00    +0.156 C 
ATOM     21  O   LIG    1       20.228 -26.535  13.052  0.00  0.00    -0.293 OA
ATOM     22  C   LIG    1       20.644 -28.837  13.565  0.00  0.00    +0.080 C 
ATOM     23  C   LIG    1       21.678 -29.840  13.072  0.00  0.00    +0.019 C 
ATOM     24  C   LIG    1       25.422 -29.627  10.724  0.00  0.00    +0.003 C 
ATOM     25  C   LIG    1       24.897 -27.599  13.114  0.00  0.00    +0.046 C 
ENDROOT
BRANCH   1  26
ATOM     26  S   LIG    1       26.658 -29.047  14.704  0.00  0.00    -0.084 S 
BRANCH  26  28
ATOM     27  C   LIG    1       29.103 -29.619  13.610  0.00  0.00    +0.099 C 
ATOM     28  C   LIG    1       27.941 -30.198  14.359  0.00  0.00    +0.187 C 
ATOM     29  O   LIG    1       27.878 -31.385  14.650  0.00  0.00    -0.285 OA
ENDBRANCH  26  28
ENDBRANCH   1  26
TORSDOF 2
ENDMDL
MODEL 2
REMARK VINA RESULT:      -6.2      1.480      1.582
REMARK  Name = *****
REMARK                            x       y       z     vdW  Elec       q    Type
REMARK                         _______ _______ _______ _____ _____    ______ ____
ROOT
ATOM      1  C   LIG    1       25.414 -27.904  13.130  0.00  0.00    +0.062 C 
ATOM      2  C   LIG    1       25.130 -29.287  12.500  0.00  0.00    +0.010 C 
ATOM      3  C   LIG    1       24.076 -30.115  13.288  0.00  0.00    +0.003 C 
ATOM      4  C   LIG    1       23.750 -31.445  12.562  0.00  0.00    +0.005 C 
ATOM      5  C   LIG    1       24.504 -31.656  11.246  0.00  0.00    +0.011 C 
ATOM      6  C   LIG    1       24.368 -30.462  10.270  0.00  0.00    +0.011 C 
ATOM      7  C   LIG    1       22.887 -30.268   9.886  0.00  0.00    +0.015 C 
ATOM      8  C   LIG    1       25.285 -30.614   9.002  0.00  0.00    +0.120 C 
ATOM      9  O   LIG    1       24.838 -29.753   7.934  0.00  0.00    -0.458 OA
ATOM     10  C   LIG    1       24.260 -30.487   6.938  0.00  0.00    +0.308 C 
ATOM     11  O   LIG    1       23.724 -30.012   5.957  0.00  0.00    -0.251 OA
ATOM     12  C   LIG    1       24.337 -31.946   7.271  0.00  0.00    +0.124 C 
ATOM     13  C   LIG    1       25.406 -31.973   8.335  0.00  0.00    +0.060 C 
ATOM     14  C   LIG    1       26.625 -30.070   9.480  0.00  0.00    +0.049 C 
ATOM     15  C   LIG    1       26.224 -28.817  10.244  0.00  0.00    +0.008 C 
ATOM     16  C   LIG    1       22.873 -29.304  13.952  0.00  0.00    -0.007 C 
ATOM     17  C   LIG    1       23.046 -29.327  15.500  0.00  0.00    +0.016 C 
ATOM     18  C   LIG    1       22.829 -27.840  13.508  0.00  0.00    -0.059 C 
ATOM     19  C   LIG    1       21.671 -27.165  13.353  0.00  0.00    +0.046 C 
ATOM     20  C   LIG    1       20.346 -27.754  13.666  0.00  0.00    +0.156 C 
ATOM     21  O   LIG    1       19.337 -27.064  13.551  0.00  0.00    -0.293 OA
ATOM     22  C   LIG    1       20.295 -29.164  14.189  0.00  0.00    +0.080 C 
ATOM     23  C   LIG    1       21.486 -29.961  13.673  0.00  0.00    +0.019 C 
ATOM     24  C   LIG    1       24.893 -29.161  10.965  0.00  0.00    +0.003 C 
ATOM     25  C   LIG    1       24.116 -27.082  13.239  0.00  0.00    +0.046 C 
ENDROOT
BRANCH   1  26
ATOM     26  S   LIG    1       26.274 -27.960  14.754  0.00  0.00    -0.084 S 
BRANCH  26  28
ATOM     27  C   LIG    1       27.098 -25.630  13.572  0.00  0.00    +0.099 C 
ATOM     28  C   LIG    1       27.442 -26.655  14.611  0.00  0.00    +0.187 C 
ATOM     29  O   LIG    1       28.479 -26.604  15.259  0.00  0.00    -0.285 OA
ENDBRANCH  26  28
ENDBRANCH   1  26
TORSDOF 2
ENDMDL
MODEL 3
REMARK VINA RESULT:      -6.0      2.333      6.252
REMARK  Name = *****
REMARK                            x       y       z     vdW  Elec       q    Type
REMARK                         _______ _______ _______ _____ _____    ______ ____
ROOT
ATOM      1  C   LIG    1       24.751 -29.528  11.655  0.00  0.00    +0.062 C 
ATOM      2  C   LIG    1       23.921 -29.495  12.959  0.00  0.00    +0.010 C 
ATOM      3  C   LIG    1       24.790 -29.297  14.233  0.00  0.00    +0.003 C 
ATOM      4  C   LIG    1       23.906 -29.167  15.500  0.00  0.00    +0.005 C 
ATOM      5  C   LIG    1       22.399 -29.244  15.238  0.00  0.00    +0.011 C 
ATOM      6  C   LIG    1       21.920 -28.259  14.144  0.00  0.00    +0.011 C 
ATOM      7  C   LIG    1       22.202 -26.809  14.589  0.00  0.00    +0.015 C 
ATOM      8  C   LIG    1       20.410 -28.470  13.762  0.00  0.00    +0.120 C 
ATOM      9  O   LIG    1       19.878 -27.308  13.094  0.00  0.00    -0.458 OA
ATOM     10  C   LIG    1       19.018 -26.637  13.915  0.00  0.00    +0.308 C 
ATOM     11  O   LIG    1       18.489 -25.579  13.639  0.00  0.00    -0.251 OA
ATOM     12  C   LIG    1       18.878 -27.370  15.215  0.00  0.00    +0.124 C 
ATOM     13  C   LIG    1       19.400 -28.741  14.863  0.00  0.00    +0.060 C 
ATOM     14  C   LIG    1       20.470 -29.588  12.729  0.00  0.00    +0.049 C 
ATOM     15  C   LIG    1       21.644 -29.173  11.855  0.00  0.00    +0.008 C 
ATOM     16  C   LIG    1       26.058 -28.340  14.098  0.00  0.00    -0.007 C 
ATOM     17  C   LIG    1       27.351 -29.206  14.182  0.00  0.00    +0.016 C 
ATOM     18  C   LIG    1       26.090 -27.581  12.770  0.00  0.00    -0.059 C 
ATOM     19  C   LIG    1       26.583 -26.329  12.664  0.00  0.00    +0.046 C 
ATOM     20  C   LIG    1       27.201 -25.606  13.801  0.00  0.00    +0.156 C 
ATOM     21  O   LIG    1       27.677 -24.488  13.619  0.00  0.00    -0.293 OA
ATOM     22  C   LIG    1       27.291 -26.306  15.130  0.00  0.00    +0.080 C 
ATOM     23  C   LIG    1       26.161 -27.316  15.271  0.00  0.00    +0.019 C 
ATOM     24  C   LIG    1       22.693 -28.547  12.813  0.00  0.00    +0.003 C 
ATOM     25  C   LIG    1       25.571 -28.233  11.502  0.00  0.00    +0.046 C 
ENDROOT
BRANCH   1  26
ATOM     26  S   LIG    1       25.838 -30.999  11.472  0.00  0.00    -0.084 S 
BRANCH  26  28
ATOM     27  C   LIG    1       26.581 -30.541   8.876  0.00  0.00    +0.099 C 
ATOM     28  C   LIG    1       27.030 -30.449  10.303  0.00  0.00    +0.187 C 
ATOM     29  O   LIG    1       28.153 -30.074  10.611  0.00  0.00    -0.285 OA
ENDBRANCH  26  28
ENDBRANCH   1  26
TORSDOF 2
ENDMDL
MODEL 4
REMARK VINA RESULT:      -5.7      2.692      6.791
REMARK  Name = *****
REMARK                            x       y       z     vdW  Elec       q    Type
REMARK                         _______ _______ _______ _____ _____    ______ ____
ROOT
ATOM      1  C   LIG    1       22.118 -30.492  11.751  0.00  0.00    +0.062 C 
ATOM      2  C   LIG    1       23.386 -30.174  12.576  0.00  0.00    +0.010 C 
ATOM      3  C   LIG    1       24.625 -31.008  12.143  0.00  0.00    +0.003 C 
ATOM      4  C   LIG    1       25.892 -30.580  12.926  0.00  0.00    +0.005 C 
ATOM      5  C   LIG    1       25.670 -29.443  13.929  0.00  0.00    +0.011 C 
ATOM      6  C   LIG    1       24.980 -28.207  13.303  0.00  0.00    +0.011 C 
ATOM      7  C   LIG    1       25.870 -27.623  12.186  0.00  0.00    +0.015 C 
ATOM      8  C   LIG    1       24.600 -27.122  14.374  0.00  0.00    +0.120 C 
ATOM      9  O   LIG    1       24.373 -25.839  13.755  0.00  0.00    -0.458 OA
ATOM     10  C   LIG    1       25.398 -24.983  14.038  0.00  0.00    +0.308 C 
ATOM     11  O   LIG    1       25.505 -23.864  13.579  0.00  0.00    -0.251 OA
ATOM     12  C   LIG    1       26.385 -25.653  14.945  0.00  0.00    +0.124 C 
ATOM     13  C   LIG    1       25.582 -26.808  15.490  0.00  0.00    +0.060 C 
ATOM     14  C   LIG    1       23.253 -27.609  14.894  0.00  0.00    +0.049 C 
ATOM     15  C   LIG    1       22.528 -28.009  13.619  0.00  0.00    +0.008 C 
ATOM     16  C   LIG    1       24.772 -31.323  10.586  0.00  0.00    -0.007 C 
ATOM     17  C   LIG    1       24.522 -32.843  10.356  0.00  0.00    +0.016 C 
ATOM     18  C   LIG    1       23.770 -30.549   9.727  0.00  0.00    -0.059 C 
ATOM     19  C   LIG    1       24.068 -30.110   8.486  0.00  0.00    +0.046 C 
ATOM     20  C   LIG    1       25.359 -30.399   7.816  0.00  0.00    +0.156 C 
ATOM     21  O   LIG    1       25.542 -30.012   6.665  0.00  0.00    -0.293 OA
ATOM     22  C   LIG    1       26.377 -31.227   8.553  0.00  0.00    +0.080 C 
ATOM     23  C   LIG    1       26.213 -31.049  10.056  0.00  0.00    +0.019 C 
ATOM     24  C   LIG    1       23.603 -28.635  12.690  0.00  0.00    +0.003 C 
ATOM     25  C   LIG    1       22.375 -30.258  10.250  0.00  0.00    +0.046 C 
ENDROOT
BRANCH   1  26
ATOM     26  S   LIG    1       21.422 -32.171  12.027  0.00  0.00    -0.084 S 
BRANCH  26  28
ATOM     27  C   LIG    1       20.756 -33.445   9.696  0.00  0.00    +0.099 C 
ATOM     28  C   LIG    1       20.345 -32.367  10.653  0.00  0.00    +0.187 C 
ATOM     29  O   LIG    1       19.371 -31.654  10.453  0.00  0.00    -0.285 OA
ENDBRANCH  26  28
ENDBRANCH   1  26
TORSDOF 2
ENDMDL
MODEL 5
REMARK VINA RESULT:      -5.5      2.673      3.734
REMARK  Name = *****
REMARK                            x       y       z     vdW  Elec       q    Type
REMARK                         _______ _______ _______ _____ _____    ______ ____
ROOT
ATOM      1  C   LIG    1       23.006 -29.670  11.827  0.00  0.00    +0.062 C 
ATOM      2  C   LIG    1       23.792 -30.879  11.270  0.00  0.00    +0.010 C 
ATOM      3  C   LIG    1       23.150 -32.248  11.634  0.00  0.00    +0.003 C 
ATOM      4  C   LIG    1       23.913 -33.420  10.967  0.00  0.00    +0.005 C 
ATOM      5  C   LIG    1       25.101 -32.998  10.098  0.00  0.00    +0.011 C 
ATOM      6  C   LIG    1       24.732 -31.926   9.044  0.00  0.00    +0.011 C 
ATOM      7  C   LIG    1       23.674 -32.491   8.074  0.00  0.00    +0.015 C 
ATOM      8  C   LIG    1       25.990 -31.375   8.280  0.00  0.00    +0.120 C 
ATOM      9  O   LIG    1       25.607 -30.732   7.047  0.00  0.00    -0.458 OA
ATOM     10  C   LIG    1       25.963 -31.500   5.976  0.00  0.00    +0.308 C 
ATOM     11  O   LIG    1       25.689 -31.240   4.822  0.00  0.00    -0.251 OA
ATOM     12  C   LIG    1       26.683 -32.727   6.447  0.00  0.00    +0.124 C 
ATOM     13  C   LIG    1       27.079 -32.344   7.851  0.00  0.00    +0.060 C 
ATOM     14  C   LIG    1       26.505 -30.283   9.209  0.00  0.00    +0.049 C 
ATOM     15  C   LIG    1       25.229 -29.566   9.621  0.00  0.00    +0.008 C 
ATOM     16  C   LIG    1       21.557 -32.309  11.671  0.00  0.00    -0.007 C 
ATOM     17  C   LIG    1       21.094 -32.472  13.150  0.00  0.00    +0.016 C 
ATOM     18  C   LIG    1       20.901 -31.044  11.113  0.00  0.00    -0.059 C 
ATOM     19  C   LIG    1       19.734 -31.072  10.437  0.00  0.00    +0.046 C 
ATOM     20  C   LIG    1       18.946 -32.313  10.236  0.00  0.00    +0.156 C 
ATOM     21  O   LIG    1       17.866 -32.255   9.656  0.00  0.00    -0.293 OA
ATOM     22  C   LIG    1       19.471 -33.595  10.823  0.00  0.00    +0.080 C 
ATOM     23  C   LIG    1       20.990 -33.550  10.914  0.00  0.00    +0.019 C 
ATOM     24  C   LIG    1       24.145 -30.667   9.767  0.00  0.00    +0.003 C 
ATOM     25  C   LIG    1       21.551 -29.689  11.321  0.00  0.00    +0.046 C 
ENDROOT
BRANCH   1  26
ATOM     26  S   LIG    1       23.044 -29.507  13.658  0.00  0.00    -0.084 S 
BRANCH  26  28
ATOM     27  C   LIG    1       22.744 -26.800  13.358  0.00  0.00    +0.099 C 
ATOM     28  C   LIG    1       23.651 -27.873  13.882  0.00  0.00    +0.187 C 
ATOM     29  O   LIG    1       24.744 -27.621  14.371  0.00  0.00    -0.285 OA
ENDBRANCH  26  28
ENDBRANCH   1  26
TORSDOF 2
ENDMDL
MODEL 6
REMARK VINA RESULT:      -5.4      2.319      6.106
REMARK  Name = *****
REMARK                            x       y       z     vdW  Elec       q    Type
REMARK                         _______ _______ _______ _____ _____    ______ ____
ROOT
ATOM      1  C   LIG    1       25.778 -29.097  11.311  0.00  0.00    +0.062 C 
ATOM      2  C   LIG    1       25.006 -29.472  12.597  0.00  0.00    +0.010 C 
ATOM      3  C   LIG    1       25.872 -29.369  13.884  0.00  0.00    +0.003 C 
ATOM      4  C   LIG    1       25.028 -29.653  15.152  0.00  0.00    +0.005 C 
ATOM      5  C   LIG    1       23.551 -29.954  14.882  0.00  0.00    +0.011 C 
ATOM      6  C   LIG    1       22.862 -28.881  14.006  0.00  0.00    +0.011 C 
ATOM      7  C   LIG    1       22.894 -27.518  14.729  0.00  0.00    +0.015 C 
ATOM      8  C   LIG    1       21.401 -29.288  13.591  0.00  0.00    +0.120 C 
ATOM      9  O   LIG    1       20.643 -28.136  13.168  0.00  0.00    -0.458 OA
ATOM     10  C   LIG    1       19.707 -27.808  14.107  0.00  0.00    +0.308 C 
ATOM     11  O   LIG    1       18.987 -26.832  14.046  0.00  0.00    -0.251 OA
ATOM     12  C   LIG    1       19.751 -28.793  15.235  0.00  0.00    +0.124 C 
ATOM     13  C   LIG    1       20.499 -29.949  14.618  0.00  0.00    +0.060 C 
ATOM     14  C   LIG    1       21.623 -30.152  12.357  0.00  0.00    +0.049 C 
ATOM     15  C   LIG    1       22.668 -29.366  11.582  0.00  0.00    +0.008 C 
ATOM     16  C   LIG    1       26.942 -28.187  13.940  0.00  0.00    -0.007 C 
ATOM     17  C   LIG    1       28.372 -28.799  13.848  0.00  0.00    +0.016 C 
ATOM     18  C   LIG    1       26.786 -27.191  12.788  0.00  0.00    -0.059 C 
ATOM     19  C   LIG    1       27.040 -25.874  12.931  0.00  0.00    +0.046 C 
ATOM     20  C   LIG    1       27.561 -25.284  14.189  0.00  0.00    +0.156 C 
ATOM     21  O   LIG    1       27.819 -24.085  14.231  0.00  0.00    -0.293 OA
ATOM     22  C   LIG    1       27.826 -26.201  15.352  0.00  0.00    +0.080 C 
ATOM     23  C   LIG    1       26.902 -27.410  15.292  0.00  0.00    +0.019 C 
ATOM     24  C   LIG    1       23.623 -28.756  12.643  0.00  0.00    +0.003 C 
ATOM     25  C   LIG    1       26.345 -27.668  11.417  0.00  0.00    +0.046 C 
ENDROOT
BRANCH   1  26
ATOM     26  S   LIG    1       27.106 -30.278  10.839  0.00  0.00    -0.084 S 
BRANCH  26  28
ATOM     27  C   LIG    1       27.053 -32.206   8.893  0.00  0.00    +0.099 C 
ATOM     28  C   LIG    1       26.577 -30.832   9.256  0.00  0.00    +0.187 C 
ATOM     29  O   LIG    1       25.924 -30.142   8.484  0.00  0.00    -0.285 OA
ENDBRANCH  26  28
ENDBRANCH   1  26
TORSDOF 2
ENDMDL
MODEL 7
REMARK VINA RESULT:      -5.3      9.885     11.982
REMARK  Name = *****
REMARK                            x       y       z     vdW  Elec       q    Type
REMARK                         _______ _______ _______ _____ _____    ______ ____
ROOT
ATOM      1  C   LIG    1       25.399 -20.177   4.298  0.00  0.00    +0.062 C 
ATOM      2  C   LIG    1       25.781 -20.058   5.791  0.00  0.00    +0.010 C 
ATOM      3  C   LIG    1       24.745 -20.718   6.744  0.00  0.00    +0.003 C 
ATOM      4  C   LIG    1       25.223 -20.663   8.218  0.00  0.00    +0.005 C 
ATOM      5  C   LIG    1       26.588 -20.000   8.422  0.00  0.00    +0.011 C 
ATOM      6  C   LIG    1       27.695 -20.596   7.519  0.00  0.00    +0.011 C 
ATOM      7  C   LIG    1       27.892 -22.090   7.852  0.00  0.00    +0.015 C 
ATOM      8  C   LIG    1       29.044 -19.794   7.610  0.00  0.00    +0.120 C 
ATOM      9  O   LIG    1       30.150 -20.585   7.128  0.00  0.00    -0.458 OA
ATOM     10  C   LIG    1       30.941 -20.983   8.167  0.00  0.00    +0.308 C 
ATOM     11  O   LIG    1       31.895 -21.727   8.058  0.00  0.00    -0.251 OA
ATOM     12  C   LIG    1       30.420 -20.414   9.452  0.00  0.00    +0.124 C 
ATOM     13  C   LIG    1       29.522 -19.303   8.965  0.00  0.00    +0.060 C 
ATOM     14  C   LIG    1       28.839 -18.662   6.611  0.00  0.00    +0.049 C 
ATOM     15  C   LIG    1       28.211 -19.375   5.423  0.00  0.00    +0.008 C 
ATOM     16  C   LIG    1       24.042 -22.053   6.229  0.00  0.00    -0.007 C 
ATOM     17  C   LIG    1       22.545 -21.747   5.924  0.00  0.00    +0.016 C 
ATOM     18  C   LIG    1       24.677 -22.603   4.950  0.00  0.00    -0.059 C 
ATOM     19  C   LIG    1       24.763 -23.925   4.695  0.00  0.00    +0.046 C 
ATOM     20  C   LIG    1       24.189 -24.959   5.590  0.00  0.00    +0.156 C 
ATOM     21  O   LIG    1       24.258 -26.142   5.268  0.00  0.00    -0.293 OA
ATOM     22  C   LIG    1       23.470 -24.509   6.833  0.00  0.00    +0.080 C 
ATOM     23  C   LIG    1       24.029 -23.176   7.312  0.00  0.00    +0.019 C 
ATOM     24  C   LIG    1       27.271 -20.457   6.018  0.00  0.00    +0.003 C 
ATOM     25  C   LIG    1       25.227 -21.656   3.900  0.00  0.00    +0.046 C 
ENDROOT
BRANCH   1  26
ATOM     26  S   LIG    1       23.919 -19.205   3.803  0.00  0.00    -0.084 S 
BRANCH  26  28
ATOM     27  C   LIG    1       25.984 -17.492   3.249  0.00  0.00    +0.099 C 
ATOM     28  C   LIG    1       24.556 -17.570   3.698  0.00  0.00    +0.187 C 
ATOM     29  O   LIG    1       23.916 -16.577   4.015  0.00  0.00    -0.285 OA
ENDBRANCH  26  28
ENDBRANCH   1  26
TORSDOF 2
ENDMDL
MODEL 8
REMARK VINA RESULT:      -4.8      2.870      6.880
REMARK  Name = *****
REMARK                            x       y       z     vdW  Elec       q    Type
REMARK                         _______ _______ _______ _____ _____    ______ ____
ROOT
ATOM      1  C   LIG    1       22.933 -32.230   9.258  0.00  0.00    +0.062 C 
ATOM      2  C   LIG    1       23.183 -31.854  10.737  0.00  0.00    +0.010 C 
ATOM      3  C   LIG    1       24.668 -31.509  11.039  0.00  0.00    +0.003 C 
ATOM      4  C   LIG    1       24.848 -31.040  12.506  0.00  0.00    +0.005 C 
ATOM      5  C   LIG    1       23.556 -31.000  13.327  0.00  0.00    +0.011 C 
ATOM      6  C   LIG    1       22.423 -30.200  12.640  0.00  0.00    +0.011 C 
ATOM      7  C   LIG    1       22.858 -28.731  12.459  0.00  0.00    +0.015 C 
ATOM      8  C   LIG    1       21.055 -30.314  13.405  0.00  0.00    +0.120 C 
ATOM      9  O   LIG    1       20.157 -29.252  13.022  0.00  0.00    -0.458 OA
ATOM     10  C   LIG    1       20.031 -28.344  14.034  0.00  0.00    +0.308 C 
ATOM     11  O   LIG    1       19.402 -27.308  13.953  0.00  0.00    -0.251 OA
ATOM     12  C   LIG    1       20.828 -28.791  15.222  0.00  0.00    +0.124 C 
ATOM     13  C   LIG    1       21.049 -30.253  14.923  0.00  0.00    +0.060 C 
ATOM     14  C   LIG    1       20.465 -31.610  12.864  0.00  0.00    +0.049 C 
ATOM     15  C   LIG    1       20.737 -31.504  11.372  0.00  0.00    +0.008 C 
ATOM     16  C   LIG    1       25.476 -30.742   9.898  0.00  0.00    -0.007 C 
ATOM     17  C   LIG    1       26.536 -31.711   9.295  0.00  0.00    +0.016 C 
ATOM     18  C   LIG    1       24.578 -30.262   8.755  0.00  0.00    -0.059 C 
ATOM     19  C   LIG    1       24.813 -29.117   8.082  0.00  0.00    +0.046 C 
ATOM     20  C   LIG    1       25.996 -28.259   8.337  0.00  0.00    +0.156 C 
ATOM     21  O   LIG    1       26.174 -27.257   7.649  0.00  0.00    -0.293 OA
ATOM     22  C   LIG    1       26.982 -28.694   9.386  0.00  0.00    +0.080 C 
ATOM     23  C   LIG    1       26.283 -29.527  10.453  0.00  0.00    +0.019 C 
ATOM     24  C   LIG    1       22.125 -30.823  11.234  0.00  0.00    +0.003 C 
ATOM     25  C   LIG    1       23.379 -31.087   8.326  0.00  0.00    +0.046 C 
ENDROOT
BRANCH   1  26
ATOM     26  S   LIG    1       23.693 -33.819   8.730  0.00  0.00    -0.084 S 
BRANCH  26  28
ATOM     27  C   LIG    1       24.748 -33.639   6.209  0.00  0.00    +0.099 C 
ATOM     28  C   LIG    1       23.475 -33.784   6.986  0.00  0.00    +0.187 C 
ATOM     29  O   LIG    1       22.378 -33.816   6.443  0.00  0.00    -0.285 OA
ENDBRANCH  26  28
ENDBRANCH   1  26
TORSDOF 2
ENDMDL
MODEL 9
REMARK VINA RESULT:      -4.7      2.065      2.584
REMARK  Name = *****
REMARK                            x       y       z     vdW  Elec       q    Type
REMARK                         _______ _______ _______ _____ _____    ______ ____
ROOT
ATOM      1  C   LIG    1       24.231 -28.861  12.005  0.00  0.00    +0.062 C 
ATOM      2  C   LIG    1       24.575 -30.300  11.557  0.00  0.00    +0.010 C 
ATOM      3  C   LIG    1       24.149 -31.382  12.589  0.00  0.00    +0.003 C 
ATOM      4  C   LIG    1       24.420 -32.809  12.050  0.00  0.00    +0.005 C 
ATOM      5  C   LIG    1       25.022 -32.857  10.642  0.00  0.00    +0.011 C 
ATOM      6  C   LIG    1       24.216 -32.034   9.608  0.00  0.00    +0.011 C 
ATOM      7  C   LIG    1       22.790 -32.610   9.482  0.00  0.00    +0.015 C 
ATOM      8  C   LIG    1       24.936 -31.947   8.214  0.00  0.00    +0.120 C 
ATOM      9  O   LIG    1       24.008 -31.573   7.174  0.00  0.00    -0.458 OA
ATOM     10  C   LIG    1       23.742 -32.640   6.365  0.00  0.00    +0.308 C 
ATOM     11  O   LIG    1       22.933 -32.630   5.459  0.00  0.00    -0.251 OA
ATOM     12  C   LIG    1       24.549 -33.825   6.802  0.00  0.00    +0.124 C 
ATOM     13  C   LIG    1       25.616 -33.184   7.654  0.00  0.00    +0.060 C 
ATOM     14  C   LIG    1       25.895 -30.778   8.395  0.00  0.00    +0.049 C 
ATOM     15  C   LIG    1       25.034 -29.747   9.109  0.00  0.00    +0.008 C 
ATOM     16  C   LIG    1       22.793 -31.123  13.387  0.00  0.00    -0.007 C 
ATOM     17  C   LIG    1       23.135 -30.815  14.875  0.00  0.00    +0.016 C 
ATOM     18  C   LIG    1       21.998 -29.936  12.835  0.00  0.00    -0.059 C 
ATOM     19  C   LIG    1       20.649 -29.906  12.834  0.00  0.00    +0.046 C 
ATOM     20  C   LIG    1       19.817 -30.981  13.428  0.00  0.00    +0.156 C 
ATOM     21  O   LIG    1       18.595 -30.863  13.438  0.00  0.00    -0.293 OA
ATOM     22  C   LIG    1       20.513 -32.151  14.070  0.00  0.00    +0.080 C 
ATOM     23  C   LIG    1       21.870 -32.380  13.418  0.00  0.00    +0.019 C 
ATOM     24  C   LIG    1       24.128 -30.545  10.084  0.00  0.00    +0.003 C 
ATOM     25  C   LIG    1       22.720 -28.724  12.276  0.00  0.00    +0.046 C 
ENDROOT
BRANCH   1  26
ATOM     26  S   LIG    1       25.196 -28.253  13.447  0.00  0.00    -0.084 S 
BRANCH  26  28
ATOM     27  C   LIG    1       26.606 -25.936  13.067  0.00  0.00    +0.099 C 
ATOM     28  C   LIG    1       26.516 -27.381  12.681  0.00  0.00    +0.187 C 
ATOM     29  O   LIG    1       27.269 -27.885  11.858  0.00  0.00    -0.285 OA
ENDBRANCH  26  28
ENDBRANCH   1  26
TORSDOF 2
ENDMDL
