MODEL 1
REMARK VINA RESULT:      -2.9      0.000      0.000
REMARK  Name = *****
REMARK                            x       y       z     vdW  Elec       q    Type
REMARK                         _______ _______ _______ _____ _____    ______ ____
ROOT
ATOM      1  O   LIG    1       26.752 -14.281   1.916  0.00  0.00    -0.137 OA
ATOM      2  S   LIG    1       27.171 -13.962   3.313  0.00  0.00    +0.137 S 
ENDROOT
BRANCH   2   3
ATOM      3  O   LIG    1       28.554 -13.176   3.172  0.00  0.00    -0.246 OA
ATOM      4  H   LIG    1       28.424 -12.513   2.458  0.00  0.00    +0.245 HD
ENDBRANCH   2   3
BRANCH   2   5
ATOM      5  O   LIG    1       27.774 -15.320   3.897  0.00  0.00    -0.246 OA
ATOM      6  H   LIG    1       27.999 -15.880   3.121  0.00  0.00    +0.245 HD
ENDBRANCH   2   5
TORSDOF 2
ENDMDL
MODEL 2
REMARK VINA RESULT:      -2.8      1.191      1.557
REMARK  Name = *****
REMARK                            x       y       z     vdW  Elec       q    Type
REMARK                         _______ _______ _______ _____ _____    ______ ____
ROOT
ATOM      1  O   LIG    1       26.665 -14.334   1.939  0.00  0.00    -0.137 OA
ATOM      2  S   LIG    1       26.466 -14.857   3.323  0.00  0.00    +0.137 S 
ENDROOT
BRANCH   2   3
ATOM      3  O   LIG    1       27.929 -14.959   3.954  0.00  0.00    -0.246 OA
ATOM      4  H   LIG    1       28.254 -14.036   4.048  0.00  0.00    +0.245 HD
ENDBRANCH   2   3
BRANCH   2   5
ATOM      5  O   LIG    1       26.214 -16.425   3.153  0.00  0.00    -0.246 OA
ATOM      6  H   LIG    1       26.206 -16.803   4.060  0.00  0.00    +0.245 HD
ENDBRANCH   2   5
TORSDOF 2
ENDMDL
MODEL 3
REMARK VINA RESULT:      -2.8      1.145      1.757
REMARK  Name = *****
REMARK                            x       y       z     vdW  Elec       q    Type
REMARK                         _______ _______ _______ _____ _____    ______ ____
ROOT
ATOM      1  O   LIG    1       26.260 -16.234   3.115  0.00  0.00    -0.137 OA
ATOM      2  S   LIG    1       26.547 -14.787   3.340  0.00  0.00    +0.137 S 
ENDROOT
BRANCH   2   3
ATOM      3  O   LIG    1       26.904 -14.195   1.901  0.00  0.00    -0.246 OA
ATOM      4  H   LIG    1       26.372 -13.374   1.799  0.00  0.00    +0.245 HD
ENDBRANCH   2   3
BRANCH   2   5
ATOM      5  O   LIG    1       28.024 -14.735   3.947  0.00  0.00    -0.246 OA
ATOM      6  H   LIG    1       28.407 -13.873   3.669  0.00  0.00    +0.245 HD
ENDBRANCH   2   5
TORSDOF 2
ENDMDL
MODEL 4
REMARK VINA RESULT:      -2.8      0.183      2.067
REMARK  Name = *****
REMARK                            x       y       z     vdW  Elec       q    Type
REMARK                         _______ _______ _______ _____ _____    ______ ____
ROOT
ATOM      1  O   LIG    1       27.604 -15.231   3.960  0.00  0.00    -0.137 OA
ATOM      2  S   LIG    1       27.254 -13.886   3.415  0.00  0.00    +0.137 S 
ENDROOT
BRANCH   2   3
ATOM      3  O   LIG    1       26.928 -14.125   1.870  0.00  0.00    -0.246 OA
ATOM      4  H   LIG    1       27.502 -13.506   1.367  0.00  0.00    +0.245 HD
ENDBRANCH   2   3
BRANCH   2   5
ATOM      5  O   LIG    1       28.648 -13.134   3.209  0.00  0.00    -0.246 OA
ATOM      6  H   LIG    1       28.618 -12.334   3.780  0.00  0.00    +0.245 HD
ENDBRANCH   2   5
TORSDOF 2
ENDMDL
MODEL 5
REMARK VINA RESULT:      -2.7      1.209      1.745
REMARK  Name = *****
REMARK                            x       y       z     vdW  Elec       q    Type
REMARK                         _______ _______ _______ _____ _____    ______ ____
ROOT
ATOM      1  O   LIG    1       26.344 -13.434   4.178  0.00  0.00    -0.137 OA
ATOM      2  S   LIG    1       27.398 -14.177   3.426  0.00  0.00    +0.137 S 
ENDROOT
BRANCH   2   3
ATOM      3  O   LIG    1       28.612 -13.151   3.270  0.00  0.00    -0.246 OA
ATOM      4  H   LIG    1       28.542 -12.776   2.363  0.00  0.00    +0.245 HD
ENDBRANCH   2   3
BRANCH   2   5
ATOM      5  O   LIG    1       26.926 -14.158   1.900  0.00  0.00    -0.246 OA
ATOM      6  H   LIG    1       26.466 -15.013   1.743  0.00  0.00    +0.245 HD
ENDBRANCH   2   5
TORSDOF 2
ENDMDL
MODEL 6
REMARK VINA RESULT:      -2.7      1.223      1.711
REMARK  Name = *****
REMARK                            x       y       z     vdW  Elec       q    Type
REMARK                         _______ _______ _______ _____ _____    ______ ____
ROOT
ATOM      1  O   LIG    1       26.634 -14.278   1.930  0.00  0.00    -0.137 OA
ATOM      2  S   LIG    1       27.262 -14.298   3.284  0.00  0.00    +0.137 S 
ENDROOT
BRANCH   2   3
ATOM      3  O   LIG    1       26.287 -13.445   4.217  0.00  0.00    -0.246 OA
ATOM      4  H   LIG    1       25.764 -12.868   3.617  0.00  0.00    +0.245 HD
ENDBRANCH   2   3
BRANCH   2   5
ATOM      5  O   LIG    1       28.452 -13.236   3.217  0.00  0.00    -0.246 OA
ATOM      6  H   LIG    1       29.208 -13.637   3.701  0.00  0.00    +0.245 HD
ENDBRANCH   2   5
TORSDOF 2
ENDMDL
MODEL 7
REMARK VINA RESULT:      -2.4      1.322      2.441
REMARK  Name = *****
REMARK                            x       y       z     vdW  Elec       q    Type
REMARK                         _______ _______ _______ _____ _____    ______ ____
ROOT
ATOM      1  O   LIG    1       27.129 -13.292   5.199  0.00  0.00    -0.137 OA
ATOM      2  S   LIG    1       27.437 -13.746   3.811  0.00  0.00    +0.137 S 
ENDROOT
BRANCH   2   3
ATOM      3  O   LIG    1       27.885 -15.272   3.953  0.00  0.00    -0.246 OA
ATOM      4  H   LIG    1       28.531 -15.303   4.693  0.00  0.00    +0.245 HD
ENDBRANCH   2   3
BRANCH   2   5
ATOM      5  O   LIG    1       28.879 -13.147   3.476  0.00  0.00    -0.246 OA
ATOM      6  H   LIG    1       29.208 -12.737   4.307  0.00  0.00    +0.245 HD
ENDBRANCH   2   5
TORSDOF 2
ENDMDL
MODEL 8
REMARK VINA RESULT:      -2.4      2.189      3.113
REMARK  Name = *****
REMARK                            x       y       z     vdW  Elec       q    Type
REMARK                         _______ _______ _______ _____ _____    ______ ____
ROOT
ATOM      1  O   LIG    1       24.747 -14.417   3.703  0.00  0.00    -0.137 OA
ATOM      2  S   LIG    1       25.384 -13.344   2.884  0.00  0.00    +0.137 S 
ENDROOT
BRANCH   2   3
ATOM      3  O   LIG    1       24.280 -12.915   1.812  0.00  0.00    -0.246 OA
ATOM      4  H   LIG    1       23.408 -13.036   2.250  0.00  0.00    +0.245 HD
ENDBRANCH   2   3
BRANCH   2   5
ATOM      5  O   LIG    1       26.358 -14.103   1.872  0.00  0.00    -0.246 OA
ATOM      6  H   LIG    1       26.180 -15.063   1.983  0.00  0.00    +0.245 HD
ENDBRANCH   2   5
TORSDOF 2
ENDMDL
MODEL 9
REMARK VINA RESULT:      -2.3      1.989      2.629
REMARK  Name = *****
REMARK                            x       y       z     vdW  Elec       q    Type
REMARK                         _______ _______ _______ _____ _____    ______ ____
ROOT
ATOM      1  O   LIG    1       27.530 -13.883   4.750  0.00  0.00    -0.137 OA
ATOM      2  S   LIG    1       28.188 -12.699   4.124  0.00  0.00    +0.137 S 
ENDROOT
BRANCH   2   3
ATOM      3  O   LIG    1       29.474 -13.275   3.372  0.00  0.00    -0.246 OA
ATOM      4  H   LIG    1       29.871 -13.943   3.975  0.00  0.00    +0.245 HD
ENDBRANCH   2   3
BRANCH   2   5
ATOM      5  O   LIG    1       28.966 -11.967   5.312  0.00  0.00    -0.246 OA
ATOM      6  H   LIG    1       29.763 -12.512   5.498  0.00  0.00    +0.245 HD
ENDBRANCH   2   5
TORSDOF 2
ENDMDL
