MODEL 1
REMARK VINA RESULT:      -5.9      0.000      0.000
REMARK  Name = *****
REMARK                            x       y       z     vdW  Elec       q    Type
REMARK                         _______ _______ _______ _____ _____    ______ ____
ROOT
ATOM      1  C   LIG    1       21.208 -26.730  13.921  0.00  0.00    +0.011 C 
ATOM      2  C   LIG    1       22.116 -27.626  13.088  0.00  0.00    +0.026 C 
ATOM      3  C   LIG    1       21.744 -29.140  12.949  0.00  0.00    +0.133 C 
ATOM      4  C   LIG    1       23.013 -29.923  13.463  0.00  0.00    +0.009 C 
ATOM      5  C   LIG    1       24.177 -28.933  13.205  0.00  0.00    +0.005 C 
ATOM      6  C   LIG    1       24.739 -28.907  11.754  0.00  0.00    +0.034 C 
ATOM      7  C   LIG    1       25.018 -30.321  11.178  0.00  0.00    +0.153 C 
ATOM      8  C   LIG    1       23.800 -31.254  11.364  0.00  0.00    +0.154 C 
ATOM      9  F   LIG    1       26.012 -30.853  11.981  0.00  0.00    -0.238 F 
ATOM     10  C   LIG    1       25.585 -30.259   9.681  0.00  0.00    +0.044 C 
ATOM     11  C   LIG    1       26.323 -28.925   9.473  0.00  0.00    -0.053 C 
ATOM     12  C   LIG    1       26.229 -28.170   8.364  0.00  0.00    +0.051 C 
ATOM     13  C   LIG    1       25.322 -28.539   7.259  0.00  0.00    +0.179 C 
ATOM     14  C   LIG    1       24.418 -29.683   7.491  0.00  0.00    +0.047 C 
ATOM     15  O   LIG    1       25.281 -27.890   6.224  0.00  0.00    -0.288 OA
ATOM     16  C   LIG    1       27.057 -28.418  10.676  0.00  0.00    +0.032 C 
ATOM     17  C   LIG    1       26.611 -31.398   9.452  0.00  0.00    +0.023 C 
ATOM     18  C   LIG    1       24.529 -30.440   8.591  0.00  0.00    -0.009 C 
ATOM     19  C   LIG    1       26.030 -28.031  11.739  0.00  0.00    +0.011 C 
ATOM     20  C   LIG    1       22.921 -30.191  14.994  0.00  0.00    +0.015 C 
ATOM     21  C   LIG    1       23.294 -31.286  12.805  0.00  0.00    +0.044 C 
ATOM     22  C   LIG    1       23.562 -27.585  13.609  0.00  0.00    +0.011 C 
ENDROOT
BRANCH   3  23
ATOM     23  O   LIG    1       21.599 -29.358  11.539  0.00  0.00    -0.380 OA
ATOM     24  H   LIG    1       22.272 -30.010  11.259  0.00  0.00    +0.211 HD
ENDBRANCH   3  23
BRANCH   3  25
ATOM     25  C   LIG    1       20.443 -29.618  13.657  0.00  0.00    +0.180 C 
ATOM     26  O   LIG    1       20.098 -29.201  14.766  0.00  0.00    -0.293 OA
BRANCH  25  27
ATOM     27  C   LIG    1       19.611 -30.672  12.961  0.00  0.00    +0.186 C 
ATOM     28 CL   LIG    1       19.909 -32.233  13.749  0.00  0.00    -0.117 Cl
ENDBRANCH  25  27
ENDBRANCH   3  25
BRANCH   8  29
ATOM     29  O   LIG    1       24.131 -32.604  11.009  0.00  0.00    -0.389 OA
ATOM     30  H   LIG    1       23.292 -33.105  11.000  0.00  0.00    +0.210 HD
ENDBRANCH   8  29
TORSDOF 4
ENDMDL
MODEL 2
REMARK VINA RESULT:      -5.8      1.728      2.146
REMARK  Name = *****
REMARK                            x       y       z     vdW  Elec       q    Type
REMARK                         _______ _______ _______ _____ _____    ______ ____
ROOT
ATOM      1  C   LIG    1       20.527 -29.021  13.181  0.00  0.00    +0.011 C 
ATOM      2  C   LIG    1       21.532 -29.512  12.145  0.00  0.00    +0.026 C 
ATOM      3  C   LIG    1       21.313 -30.923  11.506  0.00  0.00    +0.133 C 
ATOM      4  C   LIG    1       22.646 -31.715  11.797  0.00  0.00    +0.009 C 
ATOM      5  C   LIG    1       23.710 -30.597  11.927  0.00  0.00    +0.005 C 
ATOM      6  C   LIG    1       24.288 -30.048  10.590  0.00  0.00    +0.034 C 
ATOM      7  C   LIG    1       24.714 -31.165   9.601  0.00  0.00    +0.153 C 
ATOM      8  C   LIG    1       23.592 -32.212   9.418  0.00  0.00    +0.154 C 
ATOM      9  F   LIG    1       25.744 -31.840  10.234  0.00  0.00    -0.238 F 
ATOM     10  C   LIG    1       25.294 -30.567   8.233  0.00  0.00    +0.044 C 
ATOM     11  C   LIG    1       25.898 -29.178   8.502  0.00  0.00    -0.053 C 
ATOM     12  C   LIG    1       25.746 -28.115   7.694  0.00  0.00    +0.051 C 
ATOM     13  C   LIG    1       24.897 -28.181   6.489  0.00  0.00    +0.179 C 
ATOM     14  C   LIG    1       24.107 -29.414   6.296  0.00  0.00    +0.047 C 
ATOM     15  O   LIG    1       24.806 -27.236   5.719  0.00  0.00    -0.288 OA
ATOM     16  C   LIG    1       26.561 -29.029   9.837  0.00  0.00    +0.032 C 
ATOM     17  C   LIG    1       26.430 -31.473   7.695  0.00  0.00    +0.023 C 
ATOM     18  C   LIG    1       24.277 -30.476   7.095  0.00  0.00    -0.009 C 
ATOM     19  C   LIG    1       25.485 -29.104  10.919  0.00  0.00    +0.011 C 
ATOM     20  C   LIG    1       22.559 -32.476  13.153  0.00  0.00    +0.015 C 
ATOM     21  C   LIG    1       23.071 -32.758  10.747  0.00  0.00    +0.044 C 
ATOM     22  C   LIG    1       22.958 -29.515  12.717  0.00  0.00    +0.011 C 
ENDROOT
BRANCH   3  23
ATOM     23  O   LIG    1       21.211 -30.682  10.096  0.00  0.00    -0.380 OA
ATOM     24  H   LIG    1       21.377 -29.731   9.935  0.00  0.00    +0.211 HD
ENDBRANCH   3  23
BRANCH   3  25
ATOM     25  C   LIG    1       20.056 -31.721  11.961  0.00  0.00    +0.180 C 
ATOM     26  O   LIG    1       19.733 -31.833  13.147  0.00  0.00    -0.293 OA
BRANCH  25  27
ATOM     27  C   LIG    1       19.241 -32.416  10.893  0.00  0.00    +0.186 C 
ATOM     28 CL   LIG    1       17.863 -31.381  10.476  0.00  0.00    -0.117 Cl
ENDBRANCH  25  27
ENDBRANCH   3  25
BRANCH   8  29
ATOM     29  O   LIG    1       24.060 -33.337   8.661  0.00  0.00    -0.389 OA
ATOM     30  H   LIG    1       23.509 -34.100   8.923  0.00  0.00    +0.210 HD
ENDBRANCH   8  29
TORSDOF 4
ENDMDL
MODEL 3
REMARK VINA RESULT:      -5.4      2.783      6.723
REMARK  Name = *****
REMARK                            x       y       z     vdW  Elec       q    Type
REMARK                         _______ _______ _______ _____ _____    ______ ____
ROOT
ATOM      1  C   LIG    1       23.415 -32.891   5.750  0.00  0.00    +0.011 C 
ATOM      2  C   LIG    1       23.641 -32.294   7.134  0.00  0.00    +0.026 C 
ATOM      3  C   LIG    1       24.509 -30.997   7.252  0.00  0.00    +0.133 C 
ATOM      4  C   LIG    1       25.668 -31.371   8.254  0.00  0.00    +0.009 C 
ATOM      5  C   LIG    1       25.049 -32.496   9.120  0.00  0.00    +0.005 C 
ATOM      6  C   LIG    1       24.139 -32.029  10.293  0.00  0.00    +0.034 C 
ATOM      7  C   LIG    1       24.769 -30.898  11.147  0.00  0.00    +0.153 C 
ATOM      8  C   LIG    1       25.289 -29.746  10.258  0.00  0.00    +0.154 C 
ATOM      9  F   LIG    1       25.900 -31.457  11.718  0.00  0.00    -0.238 F 
ATOM     10  C   LIG    1       23.804 -30.434  12.338  0.00  0.00    +0.044 C 
ATOM     11  C   LIG    1       22.893 -31.608  12.738  0.00  0.00    -0.053 C 
ATOM     12  C   LIG    1       21.583 -31.491  13.019  0.00  0.00    +0.051 C 
ATOM     13  C   LIG    1       20.882 -30.199  12.885  0.00  0.00    +0.179 C 
ATOM     14  C   LIG    1       21.644 -29.084  12.288  0.00  0.00    +0.047 C 
ATOM     15  O   LIG    1       19.706 -30.075  13.199  0.00  0.00    -0.288 OA
ATOM     16  C   LIG    1       23.532 -32.959  12.647  0.00  0.00    +0.032 C 
ATOM     17  C   LIG    1       24.641 -30.049  13.584  0.00  0.00    +0.023 C 
ATOM     18  C   LIG    1       22.952 -29.203  12.026  0.00  0.00    -0.009 C 
ATOM     19  C   LIG    1       23.792 -33.270  11.174  0.00  0.00    +0.011 C 
ATOM     20  C   LIG    1       26.898 -31.950   7.495  0.00  0.00    +0.015 C 
ATOM     21  C   LIG    1       26.208 -30.231   9.138  0.00  0.00    +0.044 C 
ATOM     22  C   LIG    1       24.274 -33.323   8.083  0.00  0.00    +0.011 C 
ENDROOT
BRANCH   3  23
ATOM     23  O   LIG    1       23.650 -30.029   7.870  0.00  0.00    -0.380 OA
ATOM     24  H   LIG    1       22.723 -30.294   7.705  0.00  0.00    +0.211 HD
ENDBRANCH   3  23
BRANCH   3  25
ATOM     25  C   LIG    1       25.062 -30.390   5.929  0.00  0.00    +0.180 C 
ATOM     26  O   LIG    1       25.900 -30.969   5.232  0.00  0.00    -0.293 OA
BRANCH  25  27
ATOM     27  C   LIG    1       24.574 -29.016   5.529  0.00  0.00    +0.186 C 
ATOM     28 CL   LIG    1       25.525 -27.805   6.409  0.00  0.00    -0.117 Cl
ENDBRANCH  25  27
ENDBRANCH   3  25
BRANCH   8  29
ATOM     29  O   LIG    1       26.040 -28.800  11.032  0.00  0.00    -0.389 OA
ATOM     30  H   LIG    1       26.918 -28.726  10.610  0.00  0.00    +0.210 HD
ENDBRANCH   8  29
TORSDOF 4
ENDMDL
MODEL 4
REMARK VINA RESULT:      -5.3      2.837      6.378
REMARK  Name = *****
REMARK                            x       y       z     vdW  Elec       q    Type
REMARK                         _______ _______ _______ _____ _____    ______ ____
ROOT
ATOM      1  C   LIG    1       22.921 -33.353   7.525  0.00  0.00    +0.011 C 
ATOM      2  C   LIG    1       23.498 -32.426   8.588  0.00  0.00    +0.026 C 
ATOM      3  C   LIG    1       24.229 -31.123   8.122  0.00  0.00    +0.133 C 
ATOM      4  C   LIG    1       25.669 -31.211   8.757  0.00  0.00    +0.009 C 
ATOM      5  C   LIG    1       25.458 -32.099  10.009  0.00  0.00    +0.005 C 
ATOM      6  C   LIG    1       24.908 -31.375  11.272  0.00  0.00    +0.034 C 
ATOM      7  C   LIG    1       25.655 -30.054  11.596  0.00  0.00    +0.153 C 
ATOM      8  C   LIG    1       25.761 -29.148  10.349  0.00  0.00    +0.154 C 
ATOM      9  F   LIG    1       26.955 -30.430  11.887  0.00  0.00    -0.238 F 
ATOM     10  C   LIG    1       25.058 -29.329  12.894  0.00  0.00    +0.044 C 
ATOM     11  C   LIG    1       24.433 -30.385  13.822  0.00  0.00    -0.053 C 
ATOM     12  C   LIG    1       23.267 -30.230  14.473  0.00  0.00    +0.051 C 
ATOM     13  C   LIG    1       22.434 -29.026  14.279  0.00  0.00    +0.179 C 
ATOM     14  C   LIG    1       22.863 -28.079  13.231  0.00  0.00    +0.047 C 
ATOM     15  O   LIG    1       21.405 -28.853  14.916  0.00  0.00    -0.288 OA
ATOM     16  C   LIG    1       25.144 -31.703  13.843  0.00  0.00    +0.032 C 
ATOM     17  C   LIG    1       26.193 -28.629  13.683  0.00  0.00    +0.023 C 
ATOM     18  C   LIG    1       24.035 -28.232  12.599  0.00  0.00    -0.009 C 
ATOM     19  C   LIG    1       24.971 -32.365  12.477  0.00  0.00    +0.011 C 
ATOM     20  C   LIG    1       26.659 -31.936   7.798  0.00  0.00    +0.015 C 
ATOM     21  C   LIG    1       26.338 -29.877   9.136  0.00  0.00    +0.044 C 
ATOM     22  C   LIG    1       24.489 -33.174   9.494  0.00  0.00    +0.011 C 
ENDROOT
BRANCH   3  23
ATOM     23  O   LIG    1       23.508 -30.050   8.743  0.00  0.00    -0.380 OA
ATOM     24  H   LIG    1       22.723 -29.850   8.195  0.00  0.00    +0.211 HD
ENDBRANCH   3  23
BRANCH   3  25
ATOM     25  C   LIG    1       24.288 -30.852   6.589  0.00  0.00    +0.180 C 
ATOM     26  O   LIG    1       24.574 -31.731   5.770  0.00  0.00    -0.293 OA
BRANCH  25  27
ATOM     27  C   LIG    1       24.029 -29.440   6.115  0.00  0.00    +0.186 C 
ATOM     28 CL   LIG    1       25.501 -28.832   5.334  0.00  0.00    -0.117 Cl
ENDBRANCH  25  27
ENDBRANCH   3  25
BRANCH   8  29
ATOM     29  O   LIG    1       26.616 -28.025  10.604  0.00  0.00    -0.389 OA
ATOM     30  H   LIG    1       27.499 -28.259  10.258  0.00  0.00    +0.210 HD
ENDBRANCH   8  29
TORSDOF 4
ENDMDL
MODEL 5
REMARK VINA RESULT:      -5.2      3.251      6.008
REMARK  Name = *****
REMARK                            x       y       z     vdW  Elec       q    Type
REMARK                         _______ _______ _______ _____ _____    ______ ____
ROOT
ATOM      1  C   LIG    1       24.298 -30.232   7.226  0.00  0.00    +0.011 C 
ATOM      2  C   LIG    1       24.478 -29.976   8.717  0.00  0.00    +0.026 C 
ATOM      3  C   LIG    1       25.590 -30.769   9.480  0.00  0.00    +0.133 C 
ATOM      4  C   LIG    1       24.837 -31.506  10.653  0.00  0.00    +0.009 C 
ATOM      5  C   LIG    1       23.599 -30.611  10.907  0.00  0.00    +0.005 C 
ATOM      6  C   LIG    1       23.836 -29.359  11.800  0.00  0.00    +0.034 C 
ATOM      7  C   LIG    1       24.622 -29.673  13.101  0.00  0.00    +0.153 C 
ATOM      8  C   LIG    1       25.903 -30.483  12.801  0.00  0.00    +0.154 C 
ATOM      9  F   LIG    1       23.808 -30.530  13.822  0.00  0.00    -0.238 F 
ATOM     10  C   LIG    1       24.857 -28.363  13.992  0.00  0.00    +0.044 C 
ATOM     11  C   LIG    1       23.729 -27.354  13.718  0.00  0.00    -0.053 C 
ATOM     12  C   LIG    1       23.913 -26.029  13.577  0.00  0.00    +0.051 C 
ATOM     13  C   LIG    1       25.264 -25.435  13.600  0.00  0.00    +0.179 C 
ATOM     14  C   LIG    1       26.405 -26.372  13.631  0.00  0.00    +0.047 C 
ATOM     15  O   LIG    1       25.431 -24.225  13.535  0.00  0.00    -0.288 OA
ATOM     16  C   LIG    1       22.388 -27.966  13.455  0.00  0.00    +0.032 C 
ATOM     17  C   LIG    1       24.802 -28.726  15.497  0.00  0.00    +0.023 C 
ATOM     18  C   LIG    1       26.214 -27.689  13.788  0.00  0.00    -0.009 C 
ATOM     19  C   LIG    1       22.453 -28.713  12.124  0.00  0.00    +0.011 C 
ATOM     20  C   LIG    1       24.346 -32.914  10.203  0.00  0.00    +0.015 C 
ATOM     21  C   LIG    1       25.633 -31.725  11.953  0.00  0.00    +0.044 C 
ATOM     22  C   LIG    1       23.169 -30.229   9.482  0.00  0.00    +0.011 C 
ENDROOT
BRANCH   3  23
ATOM     23  O   LIG    1       26.449 -29.763  10.035  0.00  0.00    -0.380 OA
ATOM     24  H   LIG    1       26.616 -29.986  10.972  0.00  0.00    +0.211 HD
ENDBRANCH   3  23
BRANCH   3  25
ATOM     25  C   LIG    1       26.461 -31.752   8.643  0.00  0.00    +0.180 C 
ATOM     26  O   LIG    1       27.432 -32.348   9.117  0.00  0.00    -0.293 OA
BRANCH  25  27
ATOM     27  C   LIG    1       26.112 -31.930   7.183  0.00  0.00    +0.186 C 
ATOM     28 CL   LIG    1       27.500 -32.668   6.360  0.00  0.00    -0.117 Cl
ENDBRANCH  25  27
ENDBRANCH   3  25
BRANCH   8  29
ATOM     29  O   LIG    1       26.519 -30.935  14.015  0.00  0.00    -0.389 OA
ATOM     30  H   LIG    1       27.481 -30.800  13.910  0.00  0.00    +0.210 HD
ENDBRANCH   8  29
TORSDOF 4
ENDMDL
MODEL 6
REMARK VINA RESULT:      -5.0      3.521      6.676
REMARK  Name = *****
REMARK                            x       y       z     vdW  Elec       q    Type
REMARK                         _______ _______ _______ _____ _____    ______ ____
ROOT
ATOM      1  C   LIG    1       25.200 -29.986   5.391  0.00  0.00    +0.011 C 
ATOM      2  C   LIG    1       25.139 -30.310   6.879  0.00  0.00    +0.026 C 
ATOM      3  C   LIG    1       25.951 -31.539   7.408  0.00  0.00    +0.133 C 
ATOM      4  C   LIG    1       24.886 -32.458   8.122  0.00  0.00    +0.009 C 
ATOM      5  C   LIG    1       23.780 -31.462   8.552  0.00  0.00    +0.005 C 
ATOM      6  C   LIG    1       24.043 -30.682   9.873  0.00  0.00    +0.034 C 
ATOM      7  C   LIG    1       24.514 -31.591  11.039  0.00  0.00    +0.153 C 
ATOM      8  C   LIG    1       25.684 -32.502  10.604  0.00  0.00    +0.154 C 
ATOM      9  F   LIG    1       23.455 -32.448  11.286  0.00  0.00    -0.238 F 
ATOM     10  C   LIG    1       24.785 -30.756  12.379  0.00  0.00    +0.044 C 
ATOM     11  C   LIG    1       23.902 -29.497  12.380  0.00  0.00    -0.053 C 
ATOM     12  C   LIG    1       24.317 -28.279  12.771  0.00  0.00    +0.051 C 
ATOM     13  C   LIG    1       25.717 -28.036  13.170  0.00  0.00    +0.179 C 
ATOM     14  C   LIG    1       26.669 -29.148  12.975  0.00  0.00    +0.047 C 
ATOM     15  O   LIG    1       26.082 -26.946  13.586  0.00  0.00    -0.288 OA
ATOM     16  C   LIG    1       22.554 -29.674  11.754  0.00  0.00    +0.032 C 
ATOM     17  C   LIG    1       24.395 -31.599  13.620  0.00  0.00    +0.023 C 
ATOM     18  C   LIG    1       26.246 -30.362  12.601  0.00  0.00    -0.009 C 
ATOM     19  C   LIG    1       22.744 -29.906  10.256  0.00  0.00    +0.011 C 
ATOM     20  C   LIG    1       24.270 -33.480   7.121  0.00  0.00    +0.015 C 
ATOM     21  C   LIG    1       25.382 -33.281   9.325  0.00  0.00    +0.044 C 
ATOM     22  C   LIG    1       23.688 -30.525   7.338  0.00  0.00    +0.011 C 
ENDROOT
BRANCH   3  23
ATOM     23  O   LIG    1       26.840 -31.000   8.395  0.00  0.00    -0.380 OA
ATOM     24  H   LIG    1       27.117 -31.727   8.988  0.00  0.00    +0.211 HD
ENDBRANCH   3  23
BRANCH   3  25
ATOM     25  C   LIG    1       26.794 -32.333   6.367  0.00  0.00    +0.180 C 
ATOM     26  O   LIG    1       26.502 -32.376   5.169  0.00  0.00    -0.293 OA
BRANCH  25  27
ATOM     27  C   LIG    1       27.986 -33.112   6.876  0.00  0.00    +0.186 C 
ATOM     28 CL   LIG    1       28.826 -33.824   5.486  0.00  0.00    -0.117 Cl
ENDBRANCH  25  27
ENDBRANCH   3  25
BRANCH   8  29
ATOM     29  O   LIG    1       25.985 -33.469  11.619  0.00  0.00    -0.389 OA
ATOM     30  H   LIG    1       25.147 -33.928  11.826  0.00  0.00    +0.210 HD
ENDBRANCH   8  29
TORSDOF 4
ENDMDL
MODEL 7
REMARK VINA RESULT:      -4.9      2.706      6.589
REMARK  Name = *****
REMARK                            x       y       z     vdW  Elec       q    Type
REMARK                         _______ _______ _______ _____ _____    ______ ____
ROOT
ATOM      1  C   LIG    1       23.488 -32.960   6.879  0.00  0.00    +0.011 C 
ATOM      2  C   LIG    1       23.552 -32.247   8.225  0.00  0.00    +0.026 C 
ATOM      3  C   LIG    1       24.332 -30.894   8.315  0.00  0.00    +0.133 C 
ATOM      4  C   LIG    1       25.412 -31.118   9.442  0.00  0.00    +0.009 C 
ATOM      5  C   LIG    1       24.779 -32.213  10.337  0.00  0.00    +0.005 C 
ATOM      6  C   LIG    1       23.740 -31.717  11.384  0.00  0.00    +0.034 C 
ATOM      7  C   LIG    1       24.225 -30.488  12.197  0.00  0.00    +0.153 C 
ATOM      8  C   LIG    1       24.760 -29.375  11.268  0.00  0.00    +0.154 C 
ATOM      9  F   LIG    1       25.328 -30.932  12.908  0.00  0.00    -0.238 F 
ATOM     10  C   LIG    1       23.129 -29.998  13.258  0.00  0.00    +0.044 C 
ATOM     11  C   LIG    1       22.252 -31.193  13.669  0.00  0.00    -0.053 C 
ATOM     12  C   LIG    1       20.918 -31.138  13.824  0.00  0.00    +0.051 C 
ATOM     13  C   LIG    1       20.161 -29.906  13.526  0.00  0.00    +0.179 C 
ATOM     14  C   LIG    1       20.912 -28.794  12.910  0.00  0.00    +0.047 C 
ATOM     15  O   LIG    1       18.956 -29.833  13.725  0.00  0.00    -0.288 OA
ATOM     16  C   LIG    1       22.971 -32.505  13.743  0.00  0.00    +0.032 C 
ATOM     17  C   LIG    1       23.825 -29.469  14.538  0.00  0.00    +0.023 C 
ATOM     18  C   LIG    1       22.243 -28.850  12.775  0.00  0.00    -0.009 C 
ATOM     19  C   LIG    1       23.383 -32.908  12.328  0.00  0.00    +0.011 C 
ATOM     20  C   LIG    1       26.738 -31.675   8.842  0.00  0.00    +0.015 C 
ATOM     21  C   LIG    1       25.804 -29.884  10.276  0.00  0.00    +0.044 C 
ATOM     22  C   LIG    1       24.150 -33.162   9.306  0.00  0.00    +0.011 C 
ENDROOT
BRANCH   3  23
ATOM     23  O   LIG    1       23.367 -29.938   8.775  0.00  0.00    -0.380 OA
ATOM     24  H   LIG    1       23.191 -29.307   8.050  0.00  0.00    +0.211 HD
ENDBRANCH   3  23
BRANCH   3  25
ATOM     25  C   LIG    1       24.970 -30.354   7.001  0.00  0.00    +0.180 C 
ATOM     26  O   LIG    1       25.603 -31.076   6.225  0.00  0.00    -0.293 OA
BRANCH  25  27
ATOM     27  C   LIG    1       24.837 -28.876   6.712  0.00  0.00    +0.186 C 
ATOM     28 CL   LIG    1       25.525 -28.555   5.108  0.00  0.00    -0.117 Cl
ENDBRANCH  25  27
ENDBRANCH   3  25
BRANCH   8  29
ATOM     29  O   LIG    1       25.382 -28.330  12.027  0.00  0.00    -0.389 OA
ATOM     30  H   LIG    1       25.668 -27.649  11.387  0.00  0.00    +0.210 HD
ENDBRANCH   8  29
TORSDOF 4
ENDMDL
MODEL 8
REMARK VINA RESULT:      -4.6      3.085      6.580
REMARK  Name = *****
REMARK                            x       y       z     vdW  Elec       q    Type
REMARK                         _______ _______ _______ _____ _____    ______ ____
ROOT
ATOM      1  C   LIG    1       26.256 -32.182   7.976  0.00  0.00    +0.011 C 
ATOM      2  C   LIG    1       25.082 -31.902   8.907  0.00  0.00    +0.026 C 
ATOM      3  C   LIG    1       24.774 -30.417   9.290  0.00  0.00    +0.133 C 
ATOM      4  C   LIG    1       24.817 -30.383  10.866  0.00  0.00    +0.009 C 
ATOM      5  C   LIG    1       24.462 -31.836  11.269  0.00  0.00    +0.005 C 
ATOM      6  C   LIG    1       22.945 -32.186  11.284  0.00  0.00    +0.034 C 
ATOM      7  C   LIG    1       22.079 -31.133  12.024  0.00  0.00    +0.153 C 
ATOM      8  C   LIG    1       22.389 -29.702  11.529  0.00  0.00    +0.154 C 
ATOM      9  F   LIG    1       22.509 -31.165  13.340  0.00  0.00    -0.238 F 
ATOM     10  C   LIG    1       20.525 -31.517  12.013  0.00  0.00    +0.044 C 
ATOM     11  C   LIG    1       20.381 -33.046  11.912  0.00  0.00    -0.053 C 
ATOM     12  C   LIG    1       19.479 -33.675  11.139  0.00  0.00    +0.051 C 
ATOM     13  C   LIG    1       18.581 -32.922  10.240  0.00  0.00    +0.179 C 
ATOM     14  C   LIG    1       18.822 -31.471  10.118  0.00  0.00    +0.047 C 
ATOM     15  O   LIG    1       17.718 -33.486   9.582  0.00  0.00    -0.288 OA
ATOM     16  C   LIG    1       21.438 -33.825  12.632  0.00  0.00    +0.032 C 
ATOM     17  C   LIG    1       19.856 -31.073  13.338  0.00  0.00    +0.023 C 
ATOM     18  C   LIG    1       19.710 -30.849  10.905  0.00  0.00    -0.009 C 
ATOM     19  C   LIG    1       22.771 -33.601  11.918  0.00  0.00    +0.011 C 
ATOM     20  C   LIG    1       26.253 -30.065  11.378  0.00  0.00    +0.015 C 
ATOM     21  C   LIG    1       23.881 -29.376  11.559  0.00  0.00    +0.044 C 
ATOM     22  C   LIG    1       25.234 -32.666  10.232  0.00  0.00    +0.011 C 
ENDROOT
BRANCH   3  23
ATOM     23  O   LIG    1       23.426 -30.193   8.854  0.00  0.00    -0.380 OA
ATOM     24  H   LIG    1       23.285 -30.692   8.025  0.00  0.00    +0.211 HD
ENDBRANCH   3  23
BRANCH   3  25
ATOM     25  C   LIG    1       25.683 -29.319   8.663  0.00  0.00    +0.180 C 
ATOM     26  O   LIG    1       26.757 -28.979   9.166  0.00  0.00    -0.293 OA
BRANCH  25  27
ATOM     27  C   LIG    1       25.185 -28.624   7.415  0.00  0.00    +0.186 C 
ATOM     28 CL   LIG    1       25.953 -27.027   7.319  0.00  0.00    -0.117 Cl
ENDBRANCH  25  27
ENDBRANCH   3  25
BRANCH   8  29
ATOM     29  O   LIG    1       21.733 -28.724  12.346  0.00  0.00    -0.389 OA
ATOM     30  H   LIG    1       22.279 -28.616  13.149  0.00  0.00    +0.210 HD
ENDBRANCH   8  29
TORSDOF 4
ENDMDL
MODEL 9
REMARK VINA RESULT:      -4.1      2.703      3.821
REMARK  Name = *****
REMARK                            x       y       z     vdW  Elec       q    Type
REMARK                         _______ _______ _______ _____ _____    ______ ____
ROOT
ATOM      1  C   LIG    1       18.622 -30.074  13.469  0.00  0.00    +0.011 C 
ATOM      2  C   LIG    1       19.833 -30.576  12.691  0.00  0.00    +0.026 C 
ATOM      3  C   LIG    1       19.594 -31.280  11.315  0.00  0.00    +0.133 C 
ATOM      4  C   LIG    1       20.275 -32.696  11.455  0.00  0.00    +0.009 C 
ATOM      5  C   LIG    1       21.374 -32.464  12.522  0.00  0.00    +0.005 C 
ATOM      6  C   LIG    1       22.702 -31.838  12.006  0.00  0.00    +0.034 C 
ATOM      7  C   LIG    1       23.248 -32.525  10.726  0.00  0.00    +0.153 C 
ATOM      8  C   LIG    1       22.151 -32.652   9.645  0.00  0.00    +0.154 C 
ATOM      9  F   LIG    1       23.540 -33.825  11.105  0.00  0.00    -0.238 F 
ATOM     10  C   LIG    1       24.609 -31.852  10.216  0.00  0.00    +0.044 C 
ATOM     11  C   LIG    1       25.345 -31.226  11.413  0.00  0.00    -0.053 C 
ATOM     12  C   LIG    1       25.958 -30.029  11.387  0.00  0.00    +0.051 C 
ATOM     13  C   LIG    1       25.902 -29.165  10.191  0.00  0.00    +0.179 C 
ATOM     14  C   LIG    1       25.023 -29.604   9.090  0.00  0.00    +0.047 C 
ATOM     15  O   LIG    1       26.510 -28.105  10.141  0.00  0.00    -0.288 OA
ATOM     16  C   LIG    1       25.207 -31.979  12.700  0.00  0.00    +0.032 C 
ATOM     17  C   LIG    1       25.542 -32.929   9.607  0.00  0.00    +0.023 C 
ATOM     18  C   LIG    1       24.429 -30.805   9.116  0.00  0.00    -0.009 C 
ATOM     19  C   LIG    1       23.753 -31.885  13.159  0.00  0.00    +0.011 C 
ATOM     20  C   LIG    1       19.267 -33.748  12.004  0.00  0.00    +0.015 C 
ATOM     21  C   LIG    1       20.873 -33.303  10.173  0.00  0.00    +0.044 C 
ATOM     22  C   LIG    1       20.665 -31.553  13.536  0.00  0.00    +0.011 C 
ENDROOT
BRANCH   3  23
ATOM     23  O   LIG    1       20.331 -30.498  10.365  0.00  0.00    -0.380 OA
ATOM     24  H   LIG    1       20.028 -30.742   9.467  0.00  0.00    +0.211 HD
ENDBRANCH   3  23
BRANCH   3  25
ATOM     25  C   LIG    1       18.121 -31.393  10.822  0.00  0.00    +0.180 C 
ATOM     26  O   LIG    1       17.182 -31.630  11.586  0.00  0.00    -0.293 OA
BRANCH  25  27
ATOM     27  C   LIG    1       17.865 -31.252   9.338  0.00  0.00    +0.186 C 
ATOM     28 CL   LIG    1       17.576 -32.866   8.662  0.00  0.00    -0.117 Cl
ENDBRANCH  25  27
ENDBRANCH   3  25
BRANCH   8  29
ATOM     29  O   LIG    1       22.605 -33.457   8.548  0.00  0.00    -0.389 OA
ATOM     30  H   LIG    1       23.418 -33.036   8.208  0.00  0.00    +0.210 HD
ENDBRANCH   8  29
TORSDOF 4
ENDMDL
