MODEL 1
REMARK VINA RESULT:      -7.1      0.000      0.000
REMARK  Name = *****
REMARK                            x       y       z     vdW  Elec       q    Type
REMARK                         _______ _______ _______ _____ _____    ______ ____
ROOT
ATOM      1  C   LIG    1       25.432 -20.956   5.308  0.00  0.00    +0.252 C 
ATOM      2  N   LIG    1       26.549 -20.478   6.015  0.00  0.00    -0.297 N 
ATOM      3  H   LIG    1       26.620 -19.483   6.203  0.00  0.00    +0.150 HD
ATOM      4  O   LIG    1       25.396 -22.147   4.996  0.00  0.00    -0.270 OA
ENDROOT
BRANCH   2   5
ATOM      5  CA  LIG    1       27.625 -21.472   6.405  0.00  0.00    +0.190 C 
ATOM      6  C   LIG    1       29.141 -21.181   6.350  0.00  0.00    +0.165 C 
ATOM      7  S   LIG    1       29.710 -19.484   6.208  0.00  0.00    -0.127 S 
ATOM      8  C   LIG    1       30.199 -19.333   7.992  0.00  0.00    +0.042 C 
ATOM      9  CA  LIG    1       30.072 -20.727   8.661  0.00  0.00    +0.201 C 
ATOM     10  C   LIG    1       29.170 -18.363   8.588  0.00  0.00    +0.025 C 
ATOM     11  C   LIG    1       31.599 -18.713   8.007  0.00  0.00    +0.025 C 
ATOM     12  N   LIG    1       29.249 -21.564   7.772  0.00  0.00    -0.271 N 
ATOM     13  C   LIG    1       27.890 -21.623   7.942  0.00  0.00    +0.240 C 
ATOM     14  O   LIG    1       27.259 -21.611   8.988  0.00  0.00    -0.273 OA
BRANCH   9  15
ATOM     15  C   LIG    1       31.394 -21.442   8.999  0.00  0.00    +0.327 C 
ATOM     16  O   LIG    1       32.374 -20.895   9.483  0.00  0.00    -0.249 OA
BRANCH  15  17
ATOM     17  OXT LIG    1       31.377 -22.773   8.747  0.00  0.00    -0.479 OA
ATOM     18  HXT LIG    1       31.575 -23.275   9.564  0.00  0.00    +0.295 HD
ENDBRANCH  15  17
ENDBRANCH   9  15
ENDBRANCH   2   5
BRANCH   1  20
ATOM     19  C   LIG    1       24.497 -18.927   4.027  0.00  0.00    +0.136 A 
ATOM     20  C   LIG    1       24.301 -20.022   4.905  0.00  0.00    +0.120 A 
ATOM     21  C   LIG    1       22.972 -20.268   5.374  0.00  0.00    +0.136 A 
ATOM     22  C   LIG    1       21.913 -19.423   4.992  0.00  0.00    +0.046 A 
ATOM     23  C   LIG    1       22.122 -18.362   4.131  0.00  0.00    +0.007 A 
ATOM     24  C   LIG    1       23.398 -18.132   3.637  0.00  0.00    +0.046 A 
BRANCH  19  26
ATOM     25  C   LIG    1       26.053 -17.283   3.273  0.00  0.00    +0.277 C 
ATOM     26  O   LIG    1       25.772 -18.651   3.585  0.00  0.00    -0.494 OA
ENDBRANCH  19  26
BRANCH  21  27
ATOM     27  O   LIG    1       22.714 -21.357   6.178  0.00  0.00    -0.494 OA
ATOM     28  C   LIG    1       23.234 -21.303   7.508  0.00  0.00    +0.277 C 
ENDBRANCH  21  27
ENDBRANCH   1  20
TORSDOF 6
ENDMDL
MODEL 2
REMARK VINA RESULT:      -6.9      0.123      2.415
REMARK  Name = *****
REMARK                            x       y       z     vdW  Elec       q    Type
REMARK                         _______ _______ _______ _____ _____    ______ ____
ROOT
ATOM      1  C   LIG    1       25.386 -20.971   5.303  0.00  0.00    +0.252 C 
ATOM      2  N   LIG    1       26.501 -20.485   6.009  0.00  0.00    -0.297 N 
ATOM      3  H   LIG    1       26.564 -19.490   6.198  0.00  0.00    +0.150 HD
ATOM      4  O   LIG    1       25.360 -22.161   4.989  0.00  0.00    -0.270 OA
ENDROOT
BRANCH   2   5
ATOM      5  CA  LIG    1       27.587 -21.470   6.393  0.00  0.00    +0.190 C 
ATOM      6  C   LIG    1       29.100 -21.167   6.329  0.00  0.00    +0.165 C 
ATOM      7  S   LIG    1       29.655 -19.466   6.185  0.00  0.00    -0.127 S 
ATOM      8  C   LIG    1       30.152 -19.311   7.967  0.00  0.00    +0.042 C 
ATOM      9  CA  LIG    1       30.039 -20.706   8.636  0.00  0.00    +0.201 C 
ATOM     10  C   LIG    1       29.118 -18.350   8.569  0.00  0.00    +0.025 C 
ATOM     11  C   LIG    1       31.547 -18.680   7.975  0.00  0.00    +0.025 C 
ATOM     12  N   LIG    1       29.219 -21.549   7.751  0.00  0.00    -0.271 N 
ATOM     13  C   LIG    1       27.861 -21.619   7.928  0.00  0.00    +0.240 C 
ATOM     14  O   LIG    1       27.236 -21.613   8.977  0.00  0.00    -0.273 OA
BRANCH   9  15
ATOM     15  C   LIG    1       31.369 -21.411   8.967  0.00  0.00    +0.327 C 
ATOM     16  O   LIG    1       32.343 -20.858   9.457  0.00  0.00    -0.249 OA
BRANCH  15  17
ATOM     17  OXT LIG    1       31.366 -22.739   8.700  0.00  0.00    -0.479 OA
ATOM     18  HXT LIG    1       32.245 -23.020   8.372  0.00  0.00    +0.295 HD
ENDBRANCH  15  17
ENDBRANCH   9  15
ENDBRANCH   2   5
BRANCH   1  20
ATOM     19  C   LIG    1       22.952 -20.150   5.474  0.00  0.00    +0.136 A 
ATOM     20  C   LIG    1       24.246 -20.047   4.906  0.00  0.00    +0.120 A 
ATOM     21  C   LIG    1       24.477 -18.994   3.965  0.00  0.00    +0.136 A 
ATOM     22  C   LIG    1       23.435 -18.119   3.604  0.00  0.00    +0.046 A 
ATOM     23  C   LIG    1       22.179 -18.231   4.173  0.00  0.00    +0.007 A 
ATOM     24  C   LIG    1       21.949 -19.224   5.114  0.00  0.00    +0.046 A 
BRANCH  19  26
ATOM     25  C   LIG    1       23.387 -21.120   7.610  0.00  0.00    +0.277 C 
ATOM     26  O   LIG    1       22.695 -21.173   6.359  0.00  0.00    -0.494 OA
ENDBRANCH  19  26
BRANCH  21  27
ATOM     27  O   LIG    1       25.733 -18.808   3.431  0.00  0.00    -0.494 OA
ATOM     28  C   LIG    1       26.190 -17.457   3.336  0.00  0.00    +0.277 C 
ENDBRANCH  21  27
ENDBRANCH   1  20
TORSDOF 6
ENDMDL
MODEL 3
REMARK VINA RESULT:      -6.1     10.148     11.879
REMARK  Name = *****
REMARK                            x       y       z     vdW  Elec       q    Type
REMARK                         _______ _______ _______ _____ _____    ______ ____
ROOT
ATOM      1  C   LIG    1       23.816 -29.703  12.292  0.00  0.00    +0.252 C 
ATOM      2  N   LIG    1       24.668 -29.575  11.181  0.00  0.00    -0.297 N 
ATOM      3  H   LIG    1       24.617 -28.731  10.619  0.00  0.00    +0.150 HD
ATOM      4  O   LIG    1       23.810 -30.767  12.912  0.00  0.00    -0.270 OA
ENDROOT
BRANCH   2   5
ATOM      5  CA  LIG    1       25.576 -30.740  10.841  0.00  0.00    +0.190 C 
ATOM      6  C   LIG    1       25.233 -31.841   9.813  0.00  0.00    +0.165 C 
ATOM      7  S   LIG    1       23.896 -31.574   8.646  0.00  0.00    -0.127 S 
ATOM      8  C   LIG    1       25.014 -31.204   7.210  0.00  0.00    +0.042 C 
ATOM      9  CA  LIG    1       26.479 -31.481   7.637  0.00  0.00    +0.201 C 
ATOM     10  C   LIG    1       24.812 -29.705   6.947  0.00  0.00    +0.025 C 
ATOM     11  C   LIG    1       24.495 -32.034   6.031  0.00  0.00    +0.025 C 
ATOM     12  N   LIG    1       26.498 -31.551   9.108  0.00  0.00    -0.271 N 
ATOM     13  C   LIG    1       26.747 -30.425   9.849  0.00  0.00    +0.240 C 
ATOM     14  O   LIG    1       27.515 -29.510   9.596  0.00  0.00    -0.273 OA
BRANCH   9  15
ATOM     15  C   LIG    1       27.138 -32.735   7.032  0.00  0.00    +0.327 C 
ATOM     16  O   LIG    1       27.692 -32.770   5.943  0.00  0.00    -0.249 OA
BRANCH  15  17
ATOM     17  OXT LIG    1       27.089 -33.823   7.838  0.00  0.00    -0.479 OA
ATOM     18  HXT LIG    1       27.524 -33.630   8.694  0.00  0.00    +0.295 HD
ENDBRANCH  15  17
ENDBRANCH   9  15
ENDBRANCH   2   5
BRANCH   1  20
ATOM     19  C   LIG    1       23.382 -27.362  13.274  0.00  0.00    +0.136 A 
ATOM     20  C   LIG    1       22.895 -28.566  12.708  0.00  0.00    +0.120 A 
ATOM     21  C   LIG    1       21.486 -28.672  12.481  0.00  0.00    +0.136 A 
ATOM     22  C   LIG    1       20.625 -27.618  12.844  0.00  0.00    +0.046 A 
ATOM     23  C   LIG    1       21.119 -26.449  13.391  0.00  0.00    +0.007 A 
ATOM     24  C   LIG    1       22.486 -26.316  13.583  0.00  0.00    +0.046 A 
BRANCH  19  26
ATOM     25  C   LIG    1       25.255 -25.919  13.592  0.00  0.00    +0.277 C 
ATOM     26  O   LIG    1       24.731 -27.248  13.530  0.00  0.00    -0.494 OA
ENDBRANCH  19  26
BRANCH  21  27
ATOM     27  O   LIG    1       20.966 -29.793  11.874  0.00  0.00    -0.494 OA
ATOM     28  C   LIG    1       20.055 -30.573  12.652  0.00  0.00    +0.277 C 
ENDBRANCH  21  27
ENDBRANCH   1  20
TORSDOF 6
ENDMDL
MODEL 4
REMARK VINA RESULT:      -6.1     10.195     12.052
REMARK  Name = *****
REMARK                            x       y       z     vdW  Elec       q    Type
REMARK                         _______ _______ _______ _____ _____    ______ ____
ROOT
ATOM      1  C   LIG    1       23.713 -29.728  12.232  0.00  0.00    +0.252 C 
ATOM      2  N   LIG    1       24.650 -29.572  11.196  0.00  0.00    -0.297 N 
ATOM      3  H   LIG    1       24.653 -28.706  10.665  0.00  0.00    +0.150 HD
ATOM      4  O   LIG    1       23.646 -30.814  12.808  0.00  0.00    -0.270 OA
ENDROOT
BRANCH   2   5
ATOM      5  CA  LIG    1       25.566 -30.737  10.880  0.00  0.00    +0.190 C 
ATOM      6  C   LIG    1       25.246 -31.843   9.851  0.00  0.00    +0.165 C 
ATOM      7  S   LIG    1       23.933 -31.584   8.655  0.00  0.00    -0.127 S 
ATOM      8  C   LIG    1       25.079 -31.220   7.241  0.00  0.00    +0.042 C 
ATOM      9  CA  LIG    1       26.535 -31.493   7.699  0.00  0.00    +0.201 C 
ATOM     10  C   LIG    1       24.881 -29.723   6.966  0.00  0.00    +0.025 C 
ATOM     11  C   LIG    1       24.586 -32.056   6.056  0.00  0.00    +0.025 C 
ATOM     12  N   LIG    1       26.525 -31.555   9.170  0.00  0.00    -0.271 N 
ATOM     13  C   LIG    1       26.757 -30.425   9.911  0.00  0.00    +0.240 C 
ATOM     14  O   LIG    1       27.528 -29.510   9.669  0.00  0.00    -0.273 OA
BRANCH   9  15
ATOM     15  C   LIG    1       27.208 -32.749   7.114  0.00  0.00    +0.327 C 
ATOM     16  O   LIG    1       27.762 -32.795   6.025  0.00  0.00    -0.249 OA
BRANCH  15  17
ATOM     17  OXT LIG    1       27.172 -33.824   7.937  0.00  0.00    -0.479 OA
ATOM     18  HXT LIG    1       27.680 -33.641   8.755  0.00  0.00    +0.295 HD
ENDBRANCH  15  17
ENDBRANCH   9  15
ENDBRANCH   2   5
BRANCH   1  20
ATOM     19  C   LIG    1       21.369 -28.699  12.509  0.00  0.00    +0.136 A 
ATOM     20  C   LIG    1       22.778 -28.594  12.621  0.00  0.00    +0.120 A 
ATOM     21  C   LIG    1       23.313 -27.386  13.172  0.00  0.00    +0.136 A 
ATOM     22  C   LIG    1       22.456 -26.336  13.555  0.00  0.00    +0.046 A 
ATOM     23  C   LIG    1       21.084 -26.459  13.443  0.00  0.00    +0.007 A 
ATOM     24  C   LIG    1       20.548 -27.637  12.945  0.00  0.00    +0.046 A 
BRANCH  19  26
ATOM     25  C   LIG    1       19.871 -30.539  12.750  0.00  0.00    +0.277 C 
ATOM     26  O   LIG    1       20.831 -29.838  11.954  0.00  0.00    -0.494 OA
ENDBRANCH  19  26
BRANCH  21  27
ATOM     27  O   LIG    1       24.670 -27.257  13.363  0.00  0.00    -0.494 OA
ATOM     28  C   LIG    1       25.138 -25.962  13.750  0.00  0.00    +0.277 C 
ENDBRANCH  21  27
ENDBRANCH   1  20
TORSDOF 6
ENDMDL
MODEL 5
REMARK VINA RESULT:      -5.4      6.647      9.129
REMARK  Name = *****
REMARK                            x       y       z     vdW  Elec       q    Type
REMARK                         _______ _______ _______ _____ _____    ______ ____
ROOT
ATOM      1  C   LIG    1       24.931 -28.464   6.544  0.00  0.00    +0.252 C 
ATOM      2  N   LIG    1       24.370 -27.181   6.667  0.00  0.00    -0.297 N 
ATOM      3  H   LIG    1       23.873 -26.943   7.520  0.00  0.00    +0.150 HD
ATOM      4  O   LIG    1       25.447 -28.782   5.473  0.00  0.00    -0.270 OA
ENDROOT
BRANCH   2   5
ATOM      5  CA  LIG    1       24.482 -26.237   5.486  0.00  0.00    +0.190 C 
ATOM      6  C   LIG    1       23.748 -24.883   5.381  0.00  0.00    +0.165 C 
ATOM      7  S   LIG    1       23.030 -24.150   6.854  0.00  0.00    -0.127 S 
ATOM      8  C   LIG    1       24.379 -22.894   7.077  0.00  0.00    +0.042 C 
ATOM      9  CA  LIG    1       25.318 -22.950   5.844  0.00  0.00    +0.201 C 
ATOM     10  C   LIG    1       25.127 -23.358   8.335  0.00  0.00    +0.025 C 
ATOM     11  C   LIG    1       23.686 -21.551   7.325  0.00  0.00    +0.025 C 
ATOM     12  N   LIG    1       25.045 -24.217   5.145  0.00  0.00    -0.271 N 
ATOM     13  C   LIG    1       25.768 -25.342   5.448  0.00  0.00    +0.240 C 
ATOM     14  O   LIG    1       26.951 -25.424   5.734  0.00  0.00    -0.273 OA
BRANCH   9  15
ATOM     15  C   LIG    1       25.224 -21.766   4.863  0.00  0.00    +0.327 C 
ATOM     16  O   LIG    1       24.333 -21.618   4.039  0.00  0.00    -0.249 OA
BRANCH  15  17
ATOM     17  OXT LIG    1       26.213 -20.852   5.012  0.00  0.00    -0.479 OA
ATOM     18  HXT LIG    1       25.832 -19.953   5.094  0.00  0.00    +0.295 HD
ENDBRANCH  15  17
ENDBRANCH   9  15
ENDBRANCH   2   5
BRANCH   1  20
ATOM     19  C   LIG    1       25.529 -29.218   8.933  0.00  0.00    +0.136 A 
ATOM     20  C   LIG    1       24.879 -29.456   7.696  0.00  0.00    +0.120 A 
ATOM     21  C   LIG    1       24.109 -30.655   7.570  0.00  0.00    +0.136 A 
ATOM     22  C   LIG    1       24.036 -31.571   8.636  0.00  0.00    +0.046 A 
ATOM     23  C   LIG    1       24.674 -31.320   9.837  0.00  0.00    +0.007 A 
ATOM     24  C   LIG    1       25.394 -30.145   9.989  0.00  0.00    +0.046 A 
BRANCH  19  26
ATOM     25  C   LIG    1       26.891 -27.872  10.355  0.00  0.00    +0.277 C 
ATOM     26  O   LIG    1       26.302 -28.086   9.070  0.00  0.00    -0.494 OA
ENDBRANCH  19  26
BRANCH  21  27
ATOM     27  O   LIG    1       23.404 -30.904   6.413  0.00  0.00    -0.494 OA
ATOM     28  C   LIG    1       23.517 -32.221   5.870  0.00  0.00    +0.277 C 
ENDBRANCH  21  27
ENDBRANCH   1  20
TORSDOF 6
ENDMDL
MODEL 6
REMARK VINA RESULT:      -5.3      6.669      9.239
REMARK  Name = *****
REMARK                            x       y       z     vdW  Elec       q    Type
REMARK                         _______ _______ _______ _____ _____    ______ ____
ROOT
ATOM      1  C   LIG    1       24.868 -28.501   6.517  0.00  0.00    +0.252 C 
ATOM      2  N   LIG    1       24.361 -27.198   6.658  0.00  0.00    -0.297 N 
ATOM      3  H   LIG    1       23.890 -26.947   7.522  0.00  0.00    +0.150 HD
ATOM      4  O   LIG    1       25.350 -28.833   5.434  0.00  0.00    -0.270 OA
ENDROOT
BRANCH   2   5
ATOM      5  CA  LIG    1       24.487 -26.252   5.481  0.00  0.00    +0.190 C 
ATOM      6  C   LIG    1       23.757 -24.895   5.372  0.00  0.00    +0.165 C 
ATOM      7  S   LIG    1       23.027 -24.164   6.839  0.00  0.00    -0.127 S 
ATOM      8  C   LIG    1       24.377 -22.912   7.079  0.00  0.00    +0.042 C 
ATOM      9  CA  LIG    1       25.328 -22.968   5.854  0.00  0.00    +0.201 C 
ATOM     10  C   LIG    1       25.111 -23.381   8.342  0.00  0.00    +0.025 C 
ATOM     11  C   LIG    1       23.685 -21.568   7.323  0.00  0.00    +0.025 C 
ATOM     12  N   LIG    1       25.058 -24.233   5.150  0.00  0.00    -0.271 N 
ATOM     13  C   LIG    1       25.775 -25.360   5.457  0.00  0.00    +0.240 C 
ATOM     14  O   LIG    1       26.956 -25.445   5.754  0.00  0.00    -0.273 OA
BRANCH   9  15
ATOM     15  C   LIG    1       25.246 -21.781   4.876  0.00  0.00    +0.327 C 
ATOM     16  O   LIG    1       24.365 -21.630   4.042  0.00  0.00    -0.249 OA
BRANCH  15  17
ATOM     17  OXT LIG    1       26.234 -20.869   5.038  0.00  0.00    -0.479 OA
ATOM     18  HXT LIG    1       25.891 -19.966   4.872  0.00  0.00    +0.295 HD
ENDBRANCH  15  17
ENDBRANCH   9  15
ENDBRANCH   2   5
BRANCH   1  20
ATOM     19  C   LIG    1       24.083 -30.717   7.569  0.00  0.00    +0.136 A 
ATOM     20  C   LIG    1       24.800 -29.498   7.664  0.00  0.00    +0.120 A 
ATOM     21  C   LIG    1       25.519 -29.242   8.874  0.00  0.00    +0.136 A 
ATOM     22  C   LIG    1       25.479 -30.166   9.936  0.00  0.00    +0.046 A 
ATOM     23  C   LIG    1       24.779 -31.353   9.823  0.00  0.00    +0.007 A 
ATOM     24  C   LIG    1       24.107 -31.633   8.643  0.00  0.00    +0.046 A 
BRANCH  19  26
ATOM     25  C   LIG    1       23.543 -32.262   5.833  0.00  0.00    +0.277 C 
ATOM     26  O   LIG    1       23.358 -30.974   6.427  0.00  0.00    -0.494 OA
ENDBRANCH  19  26
BRANCH  21  27
ATOM     27  O   LIG    1       26.283 -28.103   8.995  0.00  0.00    -0.494 OA
ATOM     28  C   LIG    1       26.909 -27.888  10.262  0.00  0.00    +0.277 C 
ENDBRANCH  21  27
ENDBRANCH   1  20
TORSDOF 6
ENDMDL
MODEL 7
REMARK VINA RESULT:      -5.2      2.208      7.270
REMARK  Name = *****
REMARK                            x       y       z     vdW  Elec       q    Type
REMARK                         _______ _______ _______ _____ _____    ______ ____
ROOT
ATOM      1  C   LIG    1       27.992 -20.989   7.994  0.00  0.00    +0.252 C 
ATOM      2  N   LIG    1       27.569 -22.102   7.247  0.00  0.00    -0.297 N 
ATOM      3  H   LIG    1       28.121 -22.393   6.446  0.00  0.00    +0.150 HD
ATOM      4  O   LIG    1       27.270 -20.579   8.903  0.00  0.00    -0.270 OA
ENDROOT
BRANCH   2   5
ATOM      5  CA  LIG    1       26.267 -22.772   7.640  0.00  0.00    +0.190 C 
ATOM      6  C   LIG    1       24.906 -22.048   7.726  0.00  0.00    +0.165 C 
ATOM      7  S   LIG    1       24.711 -20.439   6.957  0.00  0.00    -0.127 S 
ATOM      8  C   LIG    1       23.773 -21.079   5.488  0.00  0.00    +0.042 C 
ATOM      9  CA  LIG    1       23.457 -22.581   5.718  0.00  0.00    +0.201 C 
ATOM     10  C   LIG    1       24.748 -20.917   4.314  0.00  0.00    +0.025 C 
ATOM     11  C   LIG    1       22.559 -20.162   5.314  0.00  0.00    +0.025 C 
ATOM     12  N   LIG    1       24.335 -23.050   6.803  0.00  0.00    -0.271 N 
ATOM     13  C   LIG    1       25.558 -23.598   6.514  0.00  0.00    +0.240 C 
ATOM     14  O   LIG    1       25.859 -24.314   5.572  0.00  0.00    -0.273 OA
BRANCH   9  15
ATOM     15  C   LIG    1       21.988 -22.926   6.029  0.00  0.00    +0.327 C 
ATOM     16  O   LIG    1       21.025 -22.430   5.463  0.00  0.00    -0.249 OA
BRANCH  15  17
ATOM     17  OXT LIG    1       21.839 -23.878   6.982  0.00  0.00    -0.479 OA
ATOM     18  HXT LIG    1       22.359 -23.644   7.778  0.00  0.00    +0.295 HD
ENDBRANCH  15  17
ENDBRANCH   9  15
ENDBRANCH   2   5
BRANCH   1  20
ATOM     19  C   LIG    1       30.471 -20.460   8.450  0.00  0.00    +0.136 A 
ATOM     20  C   LIG    1       29.299 -20.281   7.673  0.00  0.00    +0.120 A 
ATOM     21  C   LIG    1       29.389 -19.439   6.520  0.00  0.00    +0.136 A 
ATOM     22  C   LIG    1       30.599 -18.793   6.201  0.00  0.00    +0.046 A 
ATOM     23  C   LIG    1       31.733 -18.984   6.968  0.00  0.00    +0.007 A 
ATOM     24  C   LIG    1       31.673 -19.826   8.068  0.00  0.00    +0.046 A 
BRANCH  19  26
ATOM     25  C   LIG    1       31.205 -22.425   9.586  0.00  0.00    +0.277 C 
ATOM     26  O   LIG    1       30.403 -21.241   9.583  0.00  0.00    -0.494 OA
ENDBRANCH  19  26
BRANCH  21  27
ATOM     27  O   LIG    1       28.299 -19.281   5.694  0.00  0.00    -0.494 OA
ATOM     28  C   LIG    1       28.323 -18.152   4.817  0.00  0.00    +0.277 C 
ENDBRANCH  21  27
ENDBRANCH   1  20
TORSDOF 6
ENDMDL
MODEL 8
REMARK VINA RESULT:      -5.2      2.207      7.044
REMARK  Name = *****
REMARK                            x       y       z     vdW  Elec       q    Type
REMARK                         _______ _______ _______ _____ _____    ______ ____
ROOT
ATOM      1  C   LIG    1       27.987 -21.020   7.891  0.00  0.00    +0.252 C 
ATOM      2  N   LIG    1       27.561 -22.137   7.152  0.00  0.00    -0.297 N 
ATOM      3  H   LIG    1       28.108 -22.430   6.348  0.00  0.00    +0.150 HD
ATOM      4  O   LIG    1       27.270 -20.608   8.803  0.00  0.00    -0.270 OA
ENDROOT
BRANCH   2   5
ATOM      5  CA  LIG    1       26.264 -22.808   7.556  0.00  0.00    +0.190 C 
ATOM      6  C   LIG    1       24.908 -22.080   7.679  0.00  0.00    +0.165 C 
ATOM      7  S   LIG    1       24.707 -20.456   6.941  0.00  0.00    -0.127 S 
ATOM      8  C   LIG    1       23.740 -21.068   5.479  0.00  0.00    +0.042 C 
ATOM      9  CA  LIG    1       23.421 -22.571   5.688  0.00  0.00    +0.201 C 
ATOM     10  C   LIG    1       24.695 -20.889   4.290  0.00  0.00    +0.025 C 
ATOM     11  C   LIG    1       22.527 -20.142   5.342  0.00  0.00    +0.025 C 
ATOM     12  N   LIG    1       24.315 -23.063   6.749  0.00  0.00    -0.271 N 
ATOM     13  C   LIG    1       25.531 -23.611   6.428  0.00  0.00    +0.240 C 
ATOM     14  O   LIG    1       25.812 -24.312   5.469  0.00  0.00    -0.273 OA
BRANCH   9  15
ATOM     15  C   LIG    1       21.956 -22.915   6.019  0.00  0.00    +0.327 C 
ATOM     16  O   LIG    1       20.986 -22.417   5.467  0.00  0.00    -0.249 OA
BRANCH  15  17
ATOM     17  OXT LIG    1       21.819 -23.869   6.972  0.00  0.00    -0.479 OA
ATOM     18  HXT LIG    1       22.344 -23.633   7.764  0.00  0.00    +0.295 HD
ENDBRANCH  15  17
ENDBRANCH   9  15
ENDBRANCH   2   5
BRANCH   1  20
ATOM     19  C   LIG    1       29.406 -19.402   6.477  0.00  0.00    +0.136 A 
ATOM     20  C   LIG    1       29.291 -20.310   7.559  0.00  0.00    +0.120 A 
ATOM     21  C   LIG    1       30.442 -20.511   8.385  0.00  0.00    +0.136 A 
ATOM     22  C   LIG    1       31.649 -19.845   8.099  0.00  0.00    +0.046 A 
ATOM     23  C   LIG    1       31.742 -18.958   7.042  0.00  0.00    +0.007 A 
ATOM     24  C   LIG    1       30.625 -18.725   6.254  0.00  0.00    +0.046 A 
BRANCH  19  26
ATOM     25  C   LIG    1       28.360 -18.061   4.805  0.00  0.00    +0.277 C 
ATOM     26  O   LIG    1       28.322 -19.215   5.649  0.00  0.00    -0.494 OA
ENDBRANCH  19  26
BRANCH  21  27
ATOM     27  O   LIG    1       30.366 -21.333   9.487  0.00  0.00    -0.494 OA
ATOM     28  C   LIG    1       31.216 -22.482   9.484  0.00  0.00    +0.277 C 
ENDBRANCH  21  27
ENDBRANCH   1  20
TORSDOF 6
ENDMDL
MODEL 9
REMARK VINA RESULT:      -5.2     10.205     12.444
REMARK  Name = *****
REMARK                            x       y       z     vdW  Elec       q    Type
REMARK                         _______ _______ _______ _____ _____    ______ ____
ROOT
ATOM      1  C   LIG    1       24.110 -30.559   8.886  0.00  0.00    +0.252 C 
ATOM      2  N   LIG    1       23.113 -30.149   9.789  0.00  0.00    -0.297 N 
ATOM      3  H   LIG    1       22.787 -29.188   9.754  0.00  0.00    +0.150 HD
ATOM      4  O   LIG    1       24.573 -31.695   8.995  0.00  0.00    -0.270 OA
ENDROOT
BRANCH   2   5
ATOM      5  CA  LIG    1       22.624 -31.151  10.816  0.00  0.00    +0.190 C 
ATOM      6  C   LIG    1       22.883 -31.039  12.334  0.00  0.00    +0.165 C 
ATOM      7  S   LIG    1       23.437 -29.477  13.024  0.00  0.00    -0.127 S 
ATOM      8  C   LIG    1       21.780 -29.020  13.725  0.00  0.00    +0.042 C 
ATOM      9  CA  LIG    1       20.820 -30.227  13.558  0.00  0.00    +0.201 C 
ATOM     10  C   LIG    1       21.310 -27.845  12.855  0.00  0.00    +0.025 C 
ATOM     11  C   LIG    1       22.029 -28.561  15.164  0.00  0.00    +0.025 C 
ATOM     12  N   LIG    1       21.429 -31.135  12.572  0.00  0.00    -0.271 N 
ATOM     13  C   LIG    1       21.122 -31.013  11.241  0.00  0.00    +0.240 C 
ATOM     14  O   LIG    1       20.049 -30.723  10.737  0.00  0.00    -0.273 OA
BRANCH   9  15
ATOM     15  C   LIG    1       20.463 -30.995  14.845  0.00  0.00    +0.327 C 
ATOM     16  O   LIG    1       21.169 -31.850  15.360  0.00  0.00    -0.249 OA
BRANCH  15  17
ATOM     17  OXT LIG    1       19.290 -30.613  15.404  0.00  0.00    -0.479 OA
ATOM     18  HXT LIG    1       18.610 -31.305  15.269  0.00  0.00    +0.295 HD
ENDBRANCH  15  17
ENDBRANCH   9  15
ENDBRANCH   2   5
BRANCH   1  20
ATOM     19  C   LIG    1       24.196 -29.683   6.466  0.00  0.00    +0.136 A 
ATOM     20  C   LIG    1       24.632 -29.616   7.813  0.00  0.00    +0.120 A 
ATOM     21  C   LIG    1       25.557 -28.583   8.162  0.00  0.00    +0.136 A 
ATOM     22  C   LIG    1       26.033 -27.691   7.181  0.00  0.00    +0.046 A 
ATOM     23  C   LIG    1       25.593 -27.768   5.873  0.00  0.00    +0.007 A 
ATOM     24  C   LIG    1       24.668 -28.742   5.526  0.00  0.00    +0.046 A 
BRANCH  19  26
ATOM     25  C   LIG    1       23.926 -31.913   5.662  0.00  0.00    +0.277 C 
ATOM     26  O   LIG    1       23.329 -30.688   6.098  0.00  0.00    -0.494 OA
ENDBRANCH  19  26
BRANCH  21  27
ATOM     27  O   LIG    1       25.963 -28.431   9.469  0.00  0.00    -0.494 OA
ATOM     28  C   LIG    1       27.058 -29.247   9.894  0.00  0.00    +0.277 C 
ENDBRANCH  21  27
ENDBRANCH   1  20
TORSDOF 6
ENDMDL
