MODEL 1
REMARK VINA RESULT:      -5.3      0.000      0.000
REMARK  Name = *****
REMARK                            x       y       z     vdW  Elec       q    Type
REMARK                         _______ _______ _______ _____ _____    ______ ____
ROOT
ATOM      1  C   LIG    1       24.654 -31.529  12.062  0.00  0.00    +0.173 A 
ATOM      2  C   LIG    1       24.709 -30.339  12.920  0.00  0.00    +0.206 A 
ATOM      3  C   LIG    1       23.548 -29.528  13.055  0.00  0.00    +0.187 A 
ATOM      4  C   LIG    1       22.466 -29.756  12.133  0.00  0.00    +0.085 A 
ATOM      5  C   LIG    1       22.545 -30.812  11.192  0.00  0.00    +0.094 A 
ATOM      6  C   LIG    1       21.487 -31.126  10.186  0.00  0.00    +0.342 C 
ATOM      7  O   LIG    1       22.106 -31.995   9.311  0.00  0.00    -0.451 OA
ATOM      8  C   LIG    1       23.442 -32.442   9.745  0.00  0.00    +0.233 C 
ATOM      9  O   LIG    1       20.408 -30.728  10.142  0.00  0.00    -0.245 OA
ATOM     10  C   LIG    1       23.645 -31.651  11.056  0.00  0.00    +0.056 A 
ENDROOT
BRANCH   8  11
ATOM     11  C   LIG    1       24.438 -32.185   8.462  0.00  0.00    +0.136 C 
ATOM     12  N   LIG    1       23.620 -31.877   7.241  0.00  0.00    -0.295 NA
ATOM     13  C   LIG    1       23.707 -32.927   6.214  0.00  0.00    +0.105 C 
ATOM     14  C   LIG    1       23.957 -30.598   6.600  0.00  0.00    +0.089 C 
ATOM     15  C   LIG    1       24.071 -29.446   7.599  0.00  0.00    +0.051 C 
ATOM     16  C   LIG    1       25.178 -29.732   8.575  0.00  0.00    -0.034 A 
ATOM     17  C   LIG    1       25.886 -28.678   9.186  0.00  0.00    +0.053 A 
ATOM     18  C   LIG    1       26.898 -28.999  10.057  0.00  0.00    +0.170 A 
ATOM     19  O   LIG    1       27.640 -28.127  10.796  0.00  0.00    -0.453 OA
ATOM     20  C   LIG    1       28.442 -29.036  11.571  0.00  0.00    +0.467 C 
ATOM     21  O   LIG    1       28.303 -30.387  11.140  0.00  0.00    -0.449 OA
ATOM     22  C   LIG    1       27.302 -30.298  10.214  0.00  0.00    +0.208 A 
ATOM     23  C   LIG    1       26.742 -31.348   9.483  0.00  0.00    +0.170 A 
ATOM     24  C   LIG    1       25.514 -31.091   8.818  0.00  0.00    +0.022 A 
BRANCH  23  25
ATOM     25  O   LIG    1       27.407 -32.538   9.268  0.00  0.00    -0.491 OA
ATOM     26  C   LIG    1       27.563 -32.894   7.879  0.00  0.00    +0.277 C 
ENDBRANCH  23  25
ENDBRANCH   8  11
BRANCH   4  27
ATOM     27  N   LIG    1       21.295 -28.947  12.151  0.00  0.00    -0.354 N 
ATOM     28  H   LIG    1       20.722 -29.134  11.336  0.00  0.00    +0.142 HD
ATOM     29  H   LIG    1       21.539 -27.945  12.128  0.00  0.00    +0.142 HD
ENDBRANCH   4  27
BRANCH   1  30
ATOM     30  O   LIG    1       25.543 -32.588  12.248  0.00  0.00    -0.488 OA
BRANCH  30  32
ATOM     31  C   LIG    1       24.803 -33.737  14.368  0.00  0.00    +0.048 C 
ATOM     32  C   LIG    1       25.053 -33.825  12.864  0.00  0.00    +0.226 C 
ENDBRANCH  30  32
ENDBRANCH   1  30
BRANCH   2  33
ATOM     33  O   LIG    1       25.955 -30.129  13.501  0.00  0.00    -0.485 OA
BRANCH  33  34
ATOM     34  C   LIG    1       26.355 -30.358  14.870  0.00  0.00    +0.226 C 
ATOM     35  C   LIG    1       27.754 -30.908  14.983  0.00  0.00    +0.048 C 
ENDBRANCH  33  34
ENDBRANCH   2  33
BRANCH   3  36
ATOM     36  O   LIG    1       23.494 -28.402  13.881  0.00  0.00    -0.487 OA
BRANCH  36  37
ATOM     37  C   LIG    1       24.158 -27.150  13.461  0.00  0.00    +0.226 C 
ATOM     38  C   LIG    1       23.259 -25.977  13.639  0.00  0.00    +0.048 C 
ENDBRANCH  36  37
ENDBRANCH   3  36
TORSDOF 9
ENDMDL
MODEL 2
REMARK VINA RESULT:      -5.0      3.273      7.068
REMARK  Name = *****
REMARK                            x       y       z     vdW  Elec       q    Type
REMARK                         _______ _______ _______ _____ _____    ______ ____
ROOT
ATOM      1  C   LIG    1       23.237 -28.620  12.873  0.00  0.00    +0.173 A 
ATOM      2  C   LIG    1       24.688 -28.459  13.026  0.00  0.00    +0.206 A 
ATOM      3  C   LIG    1       25.539 -28.775  11.930  0.00  0.00    +0.187 A 
ATOM      4  C   LIG    1       24.962 -29.492  10.823  0.00  0.00    +0.085 A 
ATOM      5  C   LIG    1       23.576 -29.787  10.814  0.00  0.00    +0.094 A 
ATOM      6  C   LIG    1       22.881 -30.534   9.724  0.00  0.00    +0.342 C 
ATOM      7  O   LIG    1       21.651 -30.849  10.266  0.00  0.00    -0.451 OA
ATOM      8  C   LIG    1       21.385 -30.214  11.571  0.00  0.00    +0.233 C 
ATOM      9  O   LIG    1       23.279 -30.799   8.677  0.00  0.00    -0.245 OA
ATOM     10  C   LIG    1       22.705 -29.461  11.847  0.00  0.00    +0.056 A 
ENDROOT
BRANCH   8  11
ATOM     11  C   LIG    1       20.904 -31.430  12.569  0.00  0.00    +0.136 C 
ATOM     12  N   LIG    1       22.096 -32.004  13.278  0.00  0.00    -0.295 NA
ATOM     13  C   LIG    1       22.393 -33.386  12.873  0.00  0.00    +0.105 C 
ATOM     14  C   LIG    1       21.989 -31.982  14.744  0.00  0.00    +0.089 C 
ATOM     15  C   LIG    1       21.514 -30.633  15.285  0.00  0.00    +0.051 C 
ATOM     16  C   LIG    1       20.138 -30.336  14.758  0.00  0.00    -0.034 A 
ATOM     17  C   LIG    1       19.244 -29.534  15.497  0.00  0.00    +0.053 A 
ATOM     18  C   LIG    1       17.994 -29.309  14.974  0.00  0.00    +0.170 A 
ATOM     19  O   LIG    1       17.027 -28.507  15.500  0.00  0.00    -0.453 OA
ATOM     20  C   LIG    1       16.016 -28.589  14.480  0.00  0.00    +0.467 C 
ATOM     21  O   LIG    1       16.317 -29.573  13.494  0.00  0.00    -0.449 OA
ATOM     22  C   LIG    1       17.580 -29.962  13.845  0.00  0.00    +0.208 A 
ATOM     23  C   LIG    1       18.376 -30.905  13.191  0.00  0.00    +0.170 A 
ATOM     24  C   LIG    1       19.756 -30.928  13.524  0.00  0.00    +0.022 A 
BRANCH  23  25
ATOM     25  O   LIG    1       17.846 -31.885  12.375  0.00  0.00    -0.491 OA
ATOM     26  C   LIG    1       17.693 -31.496  10.995  0.00  0.00    +0.277 C 
ENDBRANCH  23  25
ENDBRANCH   8  11
BRANCH   4  27
ATOM     27  N   LIG    1       25.754 -29.908   9.717  0.00  0.00    -0.354 N 
ATOM     28  H   LIG    1       26.052 -29.106   9.172  0.00  0.00    +0.142 HD
ATOM     29  H   LIG    1       25.214 -30.520   9.086  0.00  0.00    +0.142 HD
ENDBRANCH   4  27
BRANCH   1  30
ATOM     30  O   LIG    1       22.349 -27.910  13.682  0.00  0.00    -0.488 OA
BRANCH  30  32
ATOM     31  C   LIG    1       20.202 -26.728  13.086  0.00  0.00    +0.048 C 
ATOM     32  C   LIG    1       21.727 -26.692  13.155  0.00  0.00    +0.226 C 
ENDBRANCH  30  32
ENDBRANCH   1  30
BRANCH   2  33
ATOM     33  O   LIG    1       25.070 -28.025  14.291  0.00  0.00    -0.485 OA
BRANCH  33  34
ATOM     34  C   LIG    1       25.628 -26.747  14.668  0.00  0.00    +0.226 C 
ATOM     35  C   LIG    1       25.197 -25.631  13.751  0.00  0.00    +0.048 C 
ENDBRANCH  33  34
ENDBRANCH   2  33
BRANCH   3  36
ATOM     36  O   LIG    1       26.926 -28.614  11.969  0.00  0.00    -0.487 OA
BRANCH  36  37
ATOM     37  C   LIG    1       27.764 -29.624  12.652  0.00  0.00    +0.226 C 
ATOM     38  C   LIG    1       28.451 -29.042  13.837  0.00  0.00    +0.048 C 
ENDBRANCH  36  37
ENDBRANCH   3  36
TORSDOF 9
ENDMDL
MODEL 3
REMARK VINA RESULT:      -4.6      2.098      4.215
REMARK  Name = *****
REMARK                            x       y       z     vdW  Elec       q    Type
REMARK                         _______ _______ _______ _____ _____    ______ ____
ROOT
ATOM      1  C   LIG    1       23.660 -29.870  13.392  0.00  0.00    +0.173 A 
ATOM      2  C   LIG    1       22.751 -28.988  14.134  0.00  0.00    +0.206 A 
ATOM      3  C   LIG    1       21.359 -29.021  13.839  0.00  0.00    +0.187 A 
ATOM      4  C   LIG    1       20.947 -29.715  12.646  0.00  0.00    +0.085 A 
ATOM      5  C   LIG    1       21.904 -30.401  11.858  0.00  0.00    +0.094 A 
ATOM      6  C   LIG    1       21.585 -31.139  10.599  0.00  0.00    +0.342 C 
ATOM      7  O   LIG    1       22.820 -31.372  10.028  0.00  0.00    -0.451 OA
ATOM      8  C   LIG    1       23.963 -31.015  10.888  0.00  0.00    +0.233 C 
ATOM      9  O   LIG    1       20.551 -31.436  10.192  0.00  0.00    -0.245 OA
ATOM     10  C   LIG    1       23.266 -30.425  12.134  0.00  0.00    +0.056 A 
ENDROOT
BRANCH   8  11
ATOM     11  C   LIG    1       24.940 -30.069   9.963  0.00  0.00    +0.136 C 
ATOM     12  N   LIG    1       26.165 -29.690  10.746  0.00  0.00    -0.295 NA
ATOM     13  C   LIG    1       26.225 -28.253  11.053  0.00  0.00    +0.105 C 
ATOM     14  C   LIG    1       27.430 -30.060  10.096  0.00  0.00    +0.089 C 
ATOM     15  C   LIG    1       27.429 -31.496   9.570  0.00  0.00    +0.051 C 
ATOM     16  C   LIG    1       26.359 -31.649   8.525  0.00  0.00    -0.034 A 
ATOM     17  C   LIG    1       26.495 -32.598   7.491  0.00  0.00    +0.053 A 
ATOM     18  C   LIG    1       25.493 -32.682   6.555  0.00  0.00    +0.170 A 
ATOM     19  O   LIG    1       25.410 -33.580   5.534  0.00  0.00    -0.453 OA
ATOM     20  C   LIG    1       24.125 -33.249   4.979  0.00  0.00    +0.467 C 
ATOM     21  O   LIG    1       23.579 -32.060   5.545  0.00  0.00    -0.449 OA
ATOM     22  C   LIG    1       24.468 -31.775   6.543  0.00  0.00    +0.208 A 
ATOM     23  C   LIG    1       24.401 -30.709   7.443  0.00  0.00    +0.170 A 
ATOM     24  C   LIG    1       25.239 -30.776   8.588  0.00  0.00    +0.022 A 
BRANCH  23  25
ATOM     25  O   LIG    1       23.685 -29.559   7.178  0.00  0.00    -0.491 OA
ATOM     26  C   LIG    1       24.399 -28.576   6.401  0.00  0.00    +0.277 C 
ENDBRANCH  23  25
ENDBRANCH   8  11
BRANCH   4  27
ATOM     27  N   LIG    1       19.585 -29.741  12.239  0.00  0.00    -0.354 N 
ATOM     28  H   LIG    1       19.121 -28.875  12.493  0.00  0.00    +0.142 HD
ATOM     29  H   LIG    1       19.075 -30.506  12.705  0.00  0.00    +0.142 HD
ENDBRANCH   4  27
BRANCH   1  30
ATOM     30  O   LIG    1       24.897 -30.235  13.924  0.00  0.00    -0.488 OA
BRANCH  30  32
ATOM     31  C   LIG    1       25.504 -32.677  14.094  0.00  0.00    +0.048 C 
ATOM     32  C   LIG    1       24.978 -31.420  14.783  0.00  0.00    +0.226 C 
ENDBRANCH  30  32
ENDBRANCH   1  30
BRANCH   2  33
ATOM     33  O   LIG    1       23.396 -28.171  15.056  0.00  0.00    -0.485 OA
BRANCH  33  34
ATOM     34  C   LIG    1       24.157 -26.968  14.808  0.00  0.00    +0.226 C 
ATOM     35  C   LIG    1       23.677 -26.216  13.593  0.00  0.00    +0.048 C 
ENDBRANCH  33  34
ENDBRANCH   2  33
BRANCH   3  36
ATOM     36  O   LIG    1       20.415 -28.250  14.521  0.00  0.00    -0.487 OA
BRANCH  36  37
ATOM     37  C   LIG    1       20.148 -26.861  14.086  0.00  0.00    +0.226 C 
ATOM     38  C   LIG    1       18.721 -26.495  14.297  0.00  0.00    +0.048 C 
ENDBRANCH  36  37
ENDBRANCH   3  36
TORSDOF 9
ENDMDL
MODEL 4
REMARK VINA RESULT:      -4.6      2.186      6.217
REMARK  Name = *****
REMARK                            x       y       z     vdW  Elec       q    Type
REMARK                         _______ _______ _______ _____ _____    ______ ____
ROOT
ATOM      1  C   LIG    1       24.549 -30.508   9.031  0.00  0.00    +0.173 A 
ATOM      2  C   LIG    1       24.569 -31.686   8.155  0.00  0.00    +0.206 A 
ATOM      3  C   LIG    1       23.431 -32.540   8.116  0.00  0.00    +0.187 A 
ATOM      4  C   LIG    1       22.429 -32.362   9.135  0.00  0.00    +0.085 A 
ATOM      5  C   LIG    1       22.556 -31.314  10.080  0.00  0.00    +0.094 A 
ATOM      6  C   LIG    1       21.583 -31.050  11.181  0.00  0.00    +0.342 C 
ATOM      7  O   LIG    1       22.247 -30.167  12.008  0.00  0.00    -0.451 OA
ATOM      8  C   LIG    1       23.520 -29.665  11.460  0.00  0.00    +0.233 C 
ATOM      9  O   LIG    1       20.528 -31.489  11.318  0.00  0.00    -0.245 OA
ATOM     10  C   LIG    1       23.632 -30.435  10.126  0.00  0.00    +0.056 A 
ENDROOT
BRANCH   8  11
ATOM     11  C   LIG    1       24.638 -29.898  12.644  0.00  0.00    +0.136 C 
ATOM     12  N   LIG    1       25.652 -30.909  12.191  0.00  0.00    -0.295 NA
ATOM     13  C   LIG    1       25.592 -32.163  12.959  0.00  0.00    +0.105 C 
ATOM     14  C   LIG    1       27.039 -30.428  12.232  0.00  0.00    +0.089 C 
ATOM     15  C   LIG    1       27.204 -29.039  11.614  0.00  0.00    +0.051 C 
ATOM     16  C   LIG    1       26.389 -28.041  12.390  0.00  0.00    -0.034 A 
ATOM     17  C   LIG    1       26.779 -26.688  12.451  0.00  0.00    +0.053 A 
ATOM     18  C   LIG    1       26.005 -25.825  13.188  0.00  0.00    +0.170 A 
ATOM     19  O   LIG    1       26.177 -24.479  13.303  0.00  0.00    -0.453 OA
ATOM     20  C   LIG    1       25.029 -24.122  14.094  0.00  0.00    +0.467 C 
ATOM     21  O   LIG    1       24.331 -25.263  14.585  0.00  0.00    -0.449 OA
ATOM     22  C   LIG    1       24.974 -26.293  13.957  0.00  0.00    +0.208 A 
ATOM     23  C   LIG    1       24.676 -27.654  14.062  0.00  0.00    +0.170 A 
ATOM     24  C   LIG    1       25.251 -28.518  13.094  0.00  0.00    +0.022 A 
BRANCH  23  25
ATOM     25  O   LIG    1       23.992 -28.181  15.139  0.00  0.00    -0.491 OA
ATOM     26  C   LIG    1       22.556 -28.144  15.012  0.00  0.00    +0.277 C 
ENDBRANCH  23  25
ENDBRANCH   8  11
BRANCH   4  27
ATOM     27  N   LIG    1       21.293 -33.215   9.212  0.00  0.00    -0.354 N 
ATOM     28  H   LIG    1       21.470 -34.087   8.726  0.00  0.00    +0.142 HD
ATOM     29  H   LIG    1       20.473 -32.778   8.764  0.00  0.00    +0.142 HD
ENDBRANCH   4  27
BRANCH   1  30
ATOM     30  O   LIG    1       25.376 -29.414   8.779  0.00  0.00    -0.488 OA
BRANCH  30  32
ATOM     31  C   LIG    1       26.017 -27.371   7.447  0.00  0.00    +0.048 C 
ATOM     32  C   LIG    1       25.176 -28.640   7.551  0.00  0.00    +0.226 C 
ENDBRANCH  30  32
ENDBRANCH   1  30
BRANCH   2  33
ATOM     33  O   LIG    1       25.763 -31.843   7.461  0.00  0.00    -0.485 OA
BRANCH  33  34
ATOM     34  C   LIG    1       26.801 -32.825   7.677  0.00  0.00    +0.226 C 
ATOM     35  C   LIG    1       27.718 -32.972   6.490  0.00  0.00    +0.048 C 
ENDBRANCH  33  34
ENDBRANCH   2  33
BRANCH   3  36
ATOM     36  O   LIG    1       23.342 -33.658   7.283  0.00  0.00    -0.487 OA
BRANCH  36  37
ATOM     37  C   LIG    1       22.966 -33.488   5.862  0.00  0.00    +0.226 C 
ATOM     38  C   LIG    1       24.135 -33.706   4.966  0.00  0.00    +0.048 C 
ENDBRANCH  36  37
ENDBRANCH   3  36
TORSDOF 9
ENDMDL
MODEL 5
REMARK VINA RESULT:      -4.4      2.199      6.389
REMARK  Name = *****
REMARK                            x       y       z     vdW  Elec       q    Type
REMARK                         _______ _______ _______ _____ _____    ______ ____
ROOT
ATOM      1  C   LIG    1       24.974 -31.593   8.819  0.00  0.00    +0.173 A 
ATOM      2  C   LIG    1       24.492 -30.745   7.722  0.00  0.00    +0.206 A 
ATOM      3  C   LIG    1       25.080 -29.465   7.525  0.00  0.00    +0.187 A 
ATOM      4  C   LIG    1       25.926 -28.953   8.573  0.00  0.00    +0.085 A 
ATOM      5  C   LIG    1       26.211 -29.750   9.708  0.00  0.00    +0.094 A 
ATOM      6  C   LIG    1       27.064 -29.312  10.853  0.00  0.00    +0.342 C 
ATOM      7  O   LIG    1       26.815 -30.251  11.833  0.00  0.00    -0.451 OA
ATOM      8  C   LIG    1       26.004 -31.397  11.382  0.00  0.00    +0.233 C 
ATOM      9  O   LIG    1       27.759 -28.397  10.912  0.00  0.00    -0.245 OA
ATOM     10  C   LIG    1       25.687 -31.021   9.918  0.00  0.00    +0.056 A 
ENDROOT
BRANCH   8  11
ATOM     11  C   LIG    1       24.788 -31.544  12.479  0.00  0.00    +0.136 C 
ATOM     12  N   LIG    1       24.960 -32.817  13.257  0.00  0.00    -0.295 NA
ATOM     13  C   LIG    1       23.901 -33.801  12.986  0.00  0.00    +0.105 C 
ATOM     14  C   LIG    1       25.026 -32.625  14.713  0.00  0.00    +0.089 C 
ATOM     15  C   LIG    1       25.974 -31.496  15.120  0.00  0.00    +0.051 C 
ATOM     16  C   LIG    1       25.484 -30.195  14.546  0.00  0.00    -0.034 A 
ATOM     17  C   LIG    1       25.763 -28.975  15.194  0.00  0.00    +0.053 A 
ATOM     18  C   LIG    1       25.276 -27.820  14.633  0.00  0.00    +0.170 A 
ATOM     19  O   LIG    1       25.503 -26.548  15.067  0.00  0.00    -0.453 OA
ATOM     20  C   LIG    1       24.840 -25.785  14.043  0.00  0.00    +0.467 C 
ATOM     21  O   LIG    1       24.085 -26.606  13.157  0.00  0.00    -0.449 OA
ATOM     22  C   LIG    1       24.425 -27.866  13.562  0.00  0.00    +0.208 A 
ATOM     23  C   LIG    1       23.983 -29.070  13.010  0.00  0.00    +0.170 A 
ATOM     24  C   LIG    1       24.695 -30.246  13.366  0.00  0.00    +0.022 A 
BRANCH  23  25
ATOM     25  O   LIG    1       22.815 -29.165  12.279  0.00  0.00    -0.491 OA
ATOM     26  C   LIG    1       21.618 -29.276  13.076  0.00  0.00    +0.277 C 
ENDBRANCH  23  25
ENDBRANCH   8  11
BRANCH   4  27
ATOM     27  N   LIG    1       26.501 -27.654   8.491  0.00  0.00    -0.354 N 
ATOM     28  H   LIG    1       25.778 -26.943   8.516  0.00  0.00    +0.142 HD
ATOM     29  H   LIG    1       27.014 -27.534   7.605  0.00  0.00    +0.142 HD
ENDBRANCH   4  27
BRANCH   1  30
ATOM     30  O   LIG    1       24.802 -32.977   8.783  0.00  0.00    -0.488 OA
BRANCH  30  32
ATOM     31  C   LIG    1       26.806 -33.262   7.278  0.00  0.00    +0.048 C 
ATOM     32  C   LIG    1       25.936 -33.823   8.400  0.00  0.00    +0.226 C 
ENDBRANCH  30  32
ENDBRANCH   1  30
BRANCH   2  33
ATOM     33  O   LIG    1       23.451 -31.314   6.995  0.00  0.00    -0.485 OA
BRANCH  33  34
ATOM     34  C   LIG    1       23.530 -32.094   5.781  0.00  0.00    +0.226 C 
ATOM     35  C   LIG    1       22.954 -33.478   5.941  0.00  0.00    +0.048 C 
ENDBRANCH  33  34
ENDBRANCH   2  33
BRANCH   3  36
ATOM     36  O   LIG    1       24.716 -28.608   6.485  0.00  0.00    -0.487 OA
BRANCH  36  37
ATOM     37  C   LIG    1       25.499 -28.602   5.230  0.00  0.00    +0.226 C 
ATOM     38  C   LIG    1       25.982 -27.232   4.903  0.00  0.00    +0.048 C 
ENDBRANCH  36  37
ENDBRANCH   3  36
TORSDOF 9
ENDMDL
MODEL 6
REMARK VINA RESULT:      -4.4      3.283      7.487
REMARK  Name = *****
REMARK                            x       y       z     vdW  Elec       q    Type
REMARK                         _______ _______ _______ _____ _____    ______ ____
ROOT
ATOM      1  C   LIG    1       24.048 -29.570  11.484  0.00  0.00    +0.173 A 
ATOM      2  C   LIG    1       25.022 -30.565  11.021  0.00  0.00    +0.206 A 
ATOM      3  C   LIG    1       24.583 -31.626  10.181  0.00  0.00    +0.187 A 
ATOM      4  C   LIG    1       23.163 -31.828  10.050  0.00  0.00    +0.085 A 
ATOM      5  C   LIG    1       22.258 -30.936  10.678  0.00  0.00    +0.094 A 
ATOM      6  C   LIG    1       20.771 -31.061  10.616  0.00  0.00    +0.342 C 
ATOM      7  O   LIG    1       20.323 -30.195  11.593  0.00  0.00    -0.451 OA
ATOM      8  C   LIG    1       21.378 -29.353  12.186  0.00  0.00    +0.233 C 
ATOM      9  O   LIG    1       20.143 -31.732   9.924  0.00  0.00    -0.245 OA
ATOM     10  C   LIG    1       22.649 -29.865  11.473  0.00  0.00    +0.056 A 
ENDROOT
BRANCH   8  11
ATOM     11  C   LIG    1       21.220 -29.521  13.815  0.00  0.00    +0.136 C 
ATOM     12  N   LIG    1       22.523 -29.197  14.486  0.00  0.00    -0.295 NA
ATOM     13  C   LIG    1       23.147 -30.367  15.122  0.00  0.00    +0.105 C 
ATOM     14  C   LIG    1       22.429 -28.137  15.499  0.00  0.00    +0.089 C 
ATOM     15  C   LIG    1       21.642 -26.919  15.013  0.00  0.00    +0.051 C 
ATOM     16  C   LIG    1       20.229 -27.326  14.696  0.00  0.00    -0.034 A 
ATOM     17  C   LIG    1       19.173 -26.399  14.808  0.00  0.00    +0.053 A 
ATOM     18  C   LIG    1       17.901 -26.830  14.521  0.00  0.00    +0.170 A 
ATOM     19  O   LIG    1       16.771 -26.070  14.499  0.00  0.00    -0.453 OA
ATOM     20  C   LIG    1       15.802 -27.029  14.042  0.00  0.00    +0.467 C 
ATOM     21  O   LIG    1       16.327 -28.353  13.997  0.00  0.00    -0.449 OA
ATOM     22  C   LIG    1       17.650 -28.154  14.278  0.00  0.00    +0.208 A 
ATOM     23  C   LIG    1       18.647 -29.129  14.342  0.00  0.00    +0.170 A 
ATOM     24  C   LIG    1       19.993 -28.679  14.333  0.00  0.00    +0.022 A 
BRANCH  23  25
ATOM     25  O   LIG    1       18.367 -30.463  14.565  0.00  0.00    -0.491 OA
ATOM     26  C   LIG    1       17.865 -31.170  13.413  0.00  0.00    +0.277 C 
ENDBRANCH  23  25
ENDBRANCH   8  11
BRANCH   4  27
ATOM     27  N   LIG    1       22.635 -32.906   9.286  0.00  0.00    -0.354 N 
ATOM     28  H   LIG    1       22.067 -32.556   8.522  0.00  0.00    +0.142 HD
ATOM     29  H   LIG    1       22.029 -33.506   9.865  0.00  0.00    +0.142 HD
ENDBRANCH   4  27
BRANCH   1  30
ATOM     30  O   LIG    1       24.459 -28.298  11.883  0.00  0.00    -0.488 OA
BRANCH  30  32
ATOM     31  C   LIG    1       25.845 -26.777  13.342  0.00  0.00    +0.048 C 
ATOM     32  C   LIG    1       25.230 -28.157  13.122  0.00  0.00    +0.226 C 
ENDBRANCH  30  32
ENDBRANCH   1  30
BRANCH   2  33
ATOM     33  O   LIG    1       26.308 -30.353  11.506  0.00  0.00    -0.485 OA
BRANCH  33  34
ATOM     34  C   LIG    1       27.419 -29.708  10.844  0.00  0.00    +0.226 C 
ATOM     35  C   LIG    1       26.992 -28.892   9.652  0.00  0.00    +0.048 C 
ENDBRANCH  33  34
ENDBRANCH   2  33
BRANCH   3  36
ATOM     36  O   LIG    1       25.443 -32.595   9.659  0.00  0.00    -0.487 OA
BRANCH  36  37
ATOM     37  C   LIG    1       26.282 -32.274   8.483  0.00  0.00    +0.226 C 
ATOM     38  C   LIG    1       25.543 -32.512   7.213  0.00  0.00    +0.048 C 
ENDBRANCH  36  37
ENDBRANCH   3  36
TORSDOF 9
ENDMDL
MODEL 7
REMARK VINA RESULT:      -4.2      2.577      4.987
REMARK  Name = *****
REMARK                            x       y       z     vdW  Elec       q    Type
REMARK                         _______ _______ _______ _____ _____    ______ ____
ROOT
ATOM      1  C   LIG    1       22.305 -30.897  12.236  0.00  0.00    +0.173 A 
ATOM      2  C   LIG    1       20.950 -30.385  12.474  0.00  0.00    +0.206 A 
ATOM      3  C   LIG    1       19.853 -30.986  11.797  0.00  0.00    +0.187 A 
ATOM      4  C   LIG    1       20.151 -31.882  10.710  0.00  0.00    +0.085 A 
ATOM      5  C   LIG    1       21.497 -32.200  10.401  0.00  0.00    +0.094 A 
ATOM      6  C   LIG    1       21.915 -33.106   9.290  0.00  0.00    +0.342 C 
ATOM      7  O   LIG    1       23.271 -32.882   9.169  0.00  0.00    -0.451 OA
ATOM      8  C   LIG    1       23.842 -32.035  10.233  0.00  0.00    +0.233 C 
ATOM      9  O   LIG    1       21.259 -33.818   8.668  0.00  0.00    -0.245 OA
ATOM     10  C   LIG    1       22.594 -31.665  11.065  0.00  0.00    +0.056 A 
ENDROOT
BRANCH   8  11
ATOM     11  C   LIG    1       24.697 -30.861   9.459  0.00  0.00    +0.136 C 
ATOM     12  N   LIG    1       25.794 -30.362  10.354  0.00  0.00    -0.295 NA
ATOM     13  C   LIG    1       25.596 -28.969  10.781  0.00  0.00    +0.105 C 
ATOM     14  C   LIG    1       27.138 -30.460   9.766  0.00  0.00    +0.089 C 
ATOM     15  C   LIG    1       27.407 -31.823   9.125  0.00  0.00    +0.051 C 
ATOM     16  C   LIG    1       26.438 -32.050   7.999  0.00  0.00    -0.034 A 
ATOM     17  C   LIG    1       26.789 -32.864   6.903  0.00  0.00    +0.053 A 
ATOM     18  C   LIG    1       25.869 -33.024   5.896  0.00  0.00    +0.170 A 
ATOM     19  O   LIG    1       25.995 -33.824   4.801  0.00  0.00    -0.453 OA
ATOM     20  C   LIG    1       24.705 -33.656   4.187  0.00  0.00    +0.467 C 
ATOM     21  O   LIG    1       23.937 -32.630   4.808  0.00  0.00    -0.449 OA
ATOM     22  C   LIG    1       24.709 -32.298   5.886  0.00  0.00    +0.208 A 
ATOM     23  C   LIG    1       24.414 -31.345   6.864  0.00  0.00    +0.170 A 
ATOM     24  C   LIG    1       25.186 -31.380   8.055  0.00  0.00    +0.022 A 
BRANCH  23  25
ATOM     25  O   LIG    1       23.530 -30.307   6.644  0.00  0.00    -0.491 OA
ATOM     26  C   LIG    1       24.102 -29.167   5.971  0.00  0.00    +0.277 C 
ENDBRANCH  23  25
ENDBRANCH   8  11
BRANCH   4  27
ATOM     27  N   LIG    1       19.116 -32.475   9.934  0.00  0.00    -0.354 N 
ATOM     28  H   LIG    1       19.507 -32.978   9.144  0.00  0.00    +0.142 HD
ATOM     29  H   LIG    1       18.483 -31.756   9.553  0.00  0.00    +0.142 HD
ENDBRANCH   4  27
BRANCH   1  30
ATOM     30  O   LIG    1       23.319 -30.701  13.173  0.00  0.00    -0.488 OA
BRANCH  30  32
ATOM     31  C   LIG    1       23.686 -32.977  14.197  0.00  0.00    +0.048 C 
ATOM     32  C   LIG    1       23.321 -31.508  14.397  0.00  0.00    +0.226 C 
ENDBRANCH  30  32
ENDBRANCH   1  30
BRANCH   2  33
ATOM     33  O   LIG    1       20.909 -29.307  13.352  0.00  0.00    -0.485 OA
BRANCH  33  34
ATOM     34  C   LIG    1       20.786 -27.902  13.039  0.00  0.00    +0.226 C 
ATOM     35  C   LIG    1       22.101 -27.172  13.117  0.00  0.00    +0.048 C 
ENDBRANCH  33  34
ENDBRANCH   2  33
BRANCH   3  36
ATOM     36  O   LIG    1       18.526 -30.595  11.992  0.00  0.00    -0.487 OA
BRANCH  36  37
ATOM     37  C   LIG    1       17.680 -31.322  12.963  0.00  0.00    +0.226 C 
ATOM     38  C   LIG    1       16.277 -31.434  12.478  0.00  0.00    +0.048 C 
ENDBRANCH  36  37
ENDBRANCH   3  36
TORSDOF 9
ENDMDL
MODEL 8
REMARK VINA RESULT:      -3.8      2.875      5.186
REMARK  Name = *****
REMARK                            x       y       z     vdW  Elec       q    Type
REMARK                         _______ _______ _______ _____ _____    ______ ____
ROOT
ATOM      1  C   LIG    1       20.814 -31.010  13.157  0.00  0.00    +0.173 A 
ATOM      2  C   LIG    1       19.378 -30.711  13.200  0.00  0.00    +0.206 A 
ATOM      3  C   LIG    1       18.520 -31.292  12.225  0.00  0.00    +0.187 A 
ATOM      4  C   LIG    1       19.136 -31.922  11.086  0.00  0.00    +0.085 A 
ATOM      5  C   LIG    1       20.547 -32.019  11.005  0.00  0.00    +0.094 A 
ATOM      6  C   LIG    1       21.286 -32.640   9.866  0.00  0.00    +0.342 C 
ATOM      7  O   LIG    1       22.593 -32.243  10.060  0.00  0.00    -0.451 OA
ATOM      8  C   LIG    1       22.834 -31.557  11.343  0.00  0.00    +0.233 C 
ATOM      9  O   LIG    1       20.864 -33.289   9.014  0.00  0.00    -0.245 OA
ATOM     10  C   LIG    1       21.417 -31.499  11.956  0.00  0.00    +0.056 A 
ENDROOT
BRANCH   8  11
ATOM     11  C   LIG    1       23.628 -30.167  10.964  0.00  0.00    +0.136 C 
ATOM     12  N   LIG    1       24.086 -29.487  12.222  0.00  0.00    -0.295 NA
ATOM     13  C   LIG    1       23.397 -28.211  12.467  0.00  0.00    +0.105 C 
ATOM     14  C   LIG    1       25.532 -29.229  12.271  0.00  0.00    +0.089 C 
ATOM     15  C   LIG    1       26.366 -30.444  11.863  0.00  0.00    +0.051 C 
ATOM     16  C   LIG    1       26.053 -30.815  10.439  0.00  0.00    -0.034 A 
ATOM     17  C   LIG    1       27.020 -31.448   9.633  0.00  0.00    +0.053 A 
ATOM     18  C   LIG    1       26.684 -31.749   8.336  0.00  0.00    +0.170 A 
ATOM     19  O   LIG    1       27.451 -32.422   7.434  0.00  0.00    -0.453 OA
ATOM     20  C   LIG    1       26.546 -32.518   6.320  0.00  0.00    +0.467 C 
ATOM     21  O   LIG    1       25.365 -31.744   6.510  0.00  0.00    -0.449 OA
ATOM     22  C   LIG    1       25.501 -31.315   7.801  0.00  0.00    +0.208 A 
ATOM     23  C   LIG    1       24.600 -30.526   8.519  0.00  0.00    +0.170 A 
ATOM     24  C   LIG    1       24.776 -30.461   9.926  0.00  0.00    +0.022 A 
BRANCH  23  25
ATOM     25  O   LIG    1       23.673 -29.710   7.901  0.00  0.00    -0.491 OA
ATOM     26  C   LIG    1       24.233 -28.783   6.949  0.00  0.00    +0.277 C 
ENDBRANCH  23  25
ENDBRANCH   8  11
BRANCH   4  27
ATOM     27  N   LIG    1       18.355 -32.468  10.030  0.00  0.00    -0.354 N 
ATOM     28  H   LIG    1       18.440 -31.900   9.194  0.00  0.00    +0.142 HD
ATOM     29  H   LIG    1       17.356 -32.488  10.283  0.00  0.00    +0.142 HD
ENDBRANCH   4  27
BRANCH   1  30
ATOM     30  O   LIG    1       21.606 -30.883  14.298  0.00  0.00    -0.488 OA
BRANCH  30  32
ATOM     31  C   LIG    1       23.667 -32.195  14.926  0.00  0.00    +0.048 C 
ATOM     32  C   LIG    1       22.143 -32.094  14.927  0.00  0.00    +0.226 C 
ENDBRANCH  30  32
ENDBRANCH   1  30
BRANCH   2  33
ATOM     33  O   LIG    1       19.022 -29.834  14.218  0.00  0.00    -0.485 OA
BRANCH  33  34
ATOM     34  C   LIG    1       18.868 -28.399  14.151  0.00  0.00    +0.226 C 
ATOM     35  C   LIG    1       20.111 -27.660  14.574  0.00  0.00    +0.048 C 
ENDBRANCH  33  34
ENDBRANCH   2  33
BRANCH   3  36
ATOM     36  O   LIG    1       17.136 -31.099  12.211  0.00  0.00    -0.487 OA
BRANCH  36  37
ATOM     37  C   LIG    1       16.284 -31.822  13.181  0.00  0.00    +0.226 C 
ATOM     38  C   LIG    1       16.045 -33.225  12.746  0.00  0.00    +0.048 C 
ENDBRANCH  36  37
ENDBRANCH   3  36
TORSDOF 9
ENDMDL
MODEL 9
REMARK VINA RESULT:      -3.5      3.404      7.224
REMARK  Name = *****
REMARK                            x       y       z     vdW  Elec       q    Type
REMARK                         _______ _______ _______ _____ _____    ______ ____
ROOT
ATOM      1  C   LIG    1       23.063 -29.680  12.301  0.00  0.00    +0.173 A 
ATOM      2  C   LIG    1       24.512 -29.905  12.223  0.00  0.00    +0.206 A 
ATOM      3  C   LIG    1       25.028 -30.750  11.200  0.00  0.00    +0.187 A 
ATOM      4  C   LIG    1       24.088 -31.556  10.465  0.00  0.00    +0.085 A 
ATOM      5  C   LIG    1       22.699 -31.432  10.714  0.00  0.00    +0.094 A 
ATOM      6  C   LIG    1       21.644 -32.227  10.018  0.00  0.00    +0.342 C 
ATOM      7  O   LIG    1       20.509 -32.008  10.772  0.00  0.00    -0.451 OA
ATOM      8  C   LIG    1       20.666 -30.980  11.818  0.00  0.00    +0.233 C 
ATOM      9  O   LIG    1       21.751 -32.881   9.077  0.00  0.00    -0.245 OA
ATOM     10  C   LIG    1       22.154 -30.590  11.676  0.00  0.00    +0.056 A 
ENDROOT
BRANCH   8  11
ATOM     11  C   LIG    1       20.122 -31.671  13.208  0.00  0.00    +0.136 C 
ATOM     12  N   LIG    1       21.271 -32.294  13.947  0.00  0.00    -0.295 NA
ATOM     13  C   LIG    1       21.189 -33.761  14.001  0.00  0.00    +0.105 C 
ATOM     14  C   LIG    1       21.435 -31.806  15.323  0.00  0.00    +0.089 C 
ATOM     15  C   LIG    1       21.363 -30.282  15.425  0.00  0.00    +0.051 C 
ATOM     16  C   LIG    1       20.011 -29.809  14.969  0.00  0.00    -0.034 A 
ATOM     17  C   LIG    1       19.455 -28.619  15.482  0.00  0.00    +0.053 A 
ATOM     18  C   LIG    1       18.210 -28.245  15.041  0.00  0.00    +0.170 A 
ATOM     19  O   LIG    1       17.546 -27.099  15.361  0.00  0.00    -0.453 OA
ATOM     20  C   LIG    1       16.375 -27.219  14.534  0.00  0.00    +0.467 C 
ATOM     21  O   LIG    1       16.279 -28.496  13.909  0.00  0.00    -0.449 OA
ATOM     22  C   LIG    1       17.471 -29.077  14.243  0.00  0.00    +0.208 A 
ATOM     23  C   LIG    1       17.918 -30.345  13.867  0.00  0.00    +0.170 A 
ATOM     24  C   LIG    1       19.297 -30.625  14.050  0.00  0.00    +0.022 A 
BRANCH  23  25
ATOM     25  O   LIG    1       17.054 -31.352  13.484  0.00  0.00    -0.491 OA
ATOM     26  C   LIG    1       16.655 -32.236  14.551  0.00  0.00    +0.277 C 
ENDBRANCH  23  25
ENDBRANCH   8  11
BRANCH   4  27
ATOM     27  N   LIG    1       24.522 -32.478   9.472  0.00  0.00    -0.354 N 
ATOM     28  H   LIG    1       25.004 -33.261   9.901  0.00  0.00    +0.142 HD
ATOM     29  H   LIG    1       25.186 -32.033   8.820  0.00  0.00    +0.142 HD
ENDBRANCH   4  27
BRANCH   1  30
ATOM     30  O   LIG    1       22.547 -28.547  12.930  0.00  0.00    -0.488 OA
BRANCH  30  32
ATOM     31  C   LIG    1       22.800 -26.228  13.887  0.00  0.00    +0.048 C 
ATOM     32  C   LIG    1       23.386 -27.349  13.033  0.00  0.00    +0.226 C 
ENDBRANCH  30  32
ENDBRANCH   1  30
BRANCH   2  33
ATOM     33  O   LIG    1       25.231 -29.258  13.221  0.00  0.00    -0.485 OA
BRANCH  33  34
ATOM     34  C   LIG    1       25.876 -29.835  14.378  0.00  0.00    +0.226 C 
ATOM     35  C   LIG    1       27.185 -29.165  14.708  0.00  0.00    +0.048 C 
ENDBRANCH  33  34
ENDBRANCH   2  33
BRANCH   3  36
ATOM     36  O   LIG    1       26.392 -30.989  11.022  0.00  0.00    -0.487 OA
BRANCH  36  37
ATOM     37  C   LIG    1       27.130 -30.276   9.957  0.00  0.00    +0.226 C 
ATOM     38  C   LIG    1       26.665 -28.868   9.829  0.00  0.00    +0.048 C 
ENDBRANCH  36  37
ENDBRANCH   3  36
TORSDOF 9
ENDMDL
