MODEL 1
REMARK VINA RESULT:      -6.8      0.000      0.000
REMARK  Name = *****
REMARK                            x       y       z     vdW  Elec       q    Type
REMARK                         _______ _______ _______ _____ _____    ______ ____
ROOT
ATOM      1  C   LIG    1       24.999 -26.694   6.358  0.00  0.00    -0.011 C 
ATOM      2  C   LIG    1       25.555 -27.614   7.300  0.00  0.00    -0.018 C 
ATOM      3  C   LIG    1       26.286 -27.107   8.528  0.00  0.00    +0.046 C 
ATOM      4  C   LIG    1       25.535 -29.013   7.024  0.00  0.00    +0.057 C 
ATOM      5  C   LIG    1       25.257 -29.433   5.709  0.00  0.00    +0.046 C 
ATOM      6  C   LIG    1       25.424 -30.852   5.326  0.00  0.00    +0.203 C 
ATOM      7  C   LIG    1       25.889 -31.807   6.351  0.00  0.00    +0.122 C 
ATOM      8  C   LIG    1       26.006 -31.332   7.599  0.00  0.00    +0.105 C 
ATOM      9  O   LIG    1       25.203 -31.240   4.180  0.00  0.00    -0.286 OA
ATOM     10  C   LIG    1       24.828 -28.537   4.742  0.00  0.00    +0.014 C 
ATOM     11  N   LIG    1       25.785 -30.021   8.008  0.00  0.00    -0.342 NA
ATOM     12  C   LIG    1       24.643 -27.206   5.089  0.00  0.00    +0.009 C 
ENDROOT
BRANCH   1  17
ATOM     13  C   LIG    1       24.371 -22.490   7.042  0.00  0.00    +0.121 A 
ATOM     14  C   LIG    1       25.672 -22.995   7.062  0.00  0.00    -0.010 A 
ATOM     15  C   LIG    1       26.866 -22.122   7.307  0.00  0.00    +0.047 C 
ATOM     16  C   LIG    1       25.857 -24.373   6.865  0.00  0.00    +0.016 A 
ATOM     17  C   LIG    1       24.785 -25.240   6.612  0.00  0.00    +0.001 A 
ATOM     18  C   LIG    1       23.548 -24.605   6.555  0.00  0.00    +0.121 A 
ATOM     19  N   LIG    1       23.317 -23.289   6.792  0.00  0.00    -0.240 NA
BRANCH  13  21
ATOM     20  C   LIG    1       23.216 -20.469   6.439  0.00  0.00    +0.127 C 
ATOM     21  N   LIG    1       24.161 -21.130   7.322  0.00  0.00    -0.332 N 
ATOM     22  H   LIG    1       25.060 -20.658   7.336  0.00  0.00    +0.147 HD
ENDBRANCH  13  21
ENDBRANCH   1  17
BRANCH  11  23
ATOM     23  C   LIG    1       25.301 -29.867   9.408  0.00  0.00    +0.087 C 
ATOM     24  C   LIG    1       25.164 -31.002  10.398  0.00  0.00    +0.027 C 
ATOM     25  C   LIG    1       26.263 -30.008  10.571  0.00  0.00    +0.027 C 
ENDBRANCH  11  23
BRANCH   7  26
ATOM     26  C   LIG    1       26.162 -33.221   6.059  0.00  0.00    +0.342 C 
ATOM     27  O   LIG    1       27.139 -33.822   6.505  0.00  0.00    -0.245 OA
BRANCH  26  28
ATOM     28  O   LIG    1       25.265 -33.824   5.249  0.00  0.00    -0.477 OA
ATOM     29  H   LIG    1       25.598 -33.988   4.336  0.00  0.00    +0.295 HD
ENDBRANCH  26  28
ENDBRANCH   7  26
TORSDOF 5
ENDMDL
MODEL 2
REMARK VINA RESULT:      -6.3      1.549      1.834
REMARK  Name = *****
REMARK                            x       y       z     vdW  Elec       q    Type
REMARK                         _______ _______ _______ _____ _____    ______ ____
ROOT
ATOM      1  C   LIG    1       24.594 -26.897   6.102  0.00  0.00    -0.011 C 
ATOM      2  C   LIG    1       25.419 -27.485   7.109  0.00  0.00    -0.018 C 
ATOM      3  C   LIG    1       26.478 -26.659   7.812  0.00  0.00    +0.046 C 
ATOM      4  C   LIG    1       25.337 -28.885   7.368  0.00  0.00    +0.057 C 
ATOM      5  C   LIG    1       24.683 -29.704   6.427  0.00  0.00    +0.046 C 
ATOM      6  C   LIG    1       24.747 -31.177   6.544  0.00  0.00    +0.203 C 
ATOM      7  C   LIG    1       25.512 -31.761   7.664  0.00  0.00    +0.122 C 
ATOM      8  C   LIG    1       25.991 -30.899   8.572  0.00  0.00    +0.105 C 
ATOM      9  O   LIG    1       24.197 -31.913   5.726  0.00  0.00    -0.286 OA
ATOM     10  C   LIG    1       23.971 -29.158   5.369  0.00  0.00    +0.014 C 
ATOM     11  N   LIG    1       25.885 -29.512   8.532  0.00  0.00    -0.342 NA
ATOM     12  C   LIG    1       23.880 -27.778   5.257  0.00  0.00    +0.009 C 
ENDROOT
BRANCH   1  17
ATOM     13  C   LIG    1       24.212 -22.658   5.452  0.00  0.00    +0.121 A 
ATOM     14  C   LIG    1       23.565 -23.240   6.543  0.00  0.00    -0.010 A 
ATOM     15  C   LIG    1       22.744 -22.438   7.507  0.00  0.00    +0.047 C 
ATOM     16  C   LIG    1       23.677 -24.627   6.724  0.00  0.00    +0.016 A 
ATOM     17  C   LIG    1       24.445 -25.431   5.871  0.00  0.00    +0.001 A 
ATOM     18  C   LIG    1       25.090 -24.725   4.860  0.00  0.00    +0.121 A 
ATOM     19  N   LIG    1       24.967 -23.395   4.616  0.00  0.00    -0.240 NA
BRANCH  13  21
ATOM     20  C   LIG    1       25.275 -20.550   5.001  0.00  0.00    +0.127 C 
ATOM     21  N   LIG    1       24.041 -21.286   5.207  0.00  0.00    -0.332 N 
ATOM     22  H   LIG    1       23.484 -20.889   5.957  0.00  0.00    +0.147 HD
ENDBRANCH  13  21
ENDBRANCH   1  17
BRANCH  11  23
ATOM     23  C   LIG    1       25.842 -28.841   9.860  0.00  0.00    +0.087 C 
ATOM     24  C   LIG    1       26.017 -29.550  11.185  0.00  0.00    +0.027 C 
ATOM     25  C   LIG    1       27.109 -28.671  10.674  0.00  0.00    +0.027 C 
ENDBRANCH  11  23
BRANCH   7  26
ATOM     26  C   LIG    1       25.704 -33.207   7.831  0.00  0.00    +0.342 C 
ATOM     27  O   LIG    1       25.330 -33.824   8.827  0.00  0.00    -0.245 OA
BRANCH  26  28
ATOM     28  O   LIG    1       26.338 -33.824   6.809  0.00  0.00    -0.477 OA
ATOM     29  H   LIG    1       26.195 -33.395   5.933  0.00  0.00    +0.295 HD
ENDBRANCH  26  28
ENDBRANCH   7  26
TORSDOF 5
ENDMDL
MODEL 3
REMARK VINA RESULT:      -6.2      2.146      3.409
REMARK  Name = *****
REMARK                            x       y       z     vdW  Elec       q    Type
REMARK                         _______ _______ _______ _____ _____    ______ ____
ROOT
ATOM      1  C   LIG    1       25.644 -27.107   7.241  0.00  0.00    -0.011 C 
ATOM      2  C   LIG    1       25.137 -28.362   6.784  0.00  0.00    -0.018 C 
ATOM      3  C   LIG    1       24.036 -28.412   5.744  0.00  0.00    +0.046 C 
ATOM      4  C   LIG    1       25.576 -29.572   7.399  0.00  0.00    +0.057 C 
ATOM      5  C   LIG    1       26.250 -29.492   8.633  0.00  0.00    +0.046 C 
ATOM      6  C   LIG    1       26.544 -30.717   9.406  0.00  0.00    +0.203 C 
ATOM      7  C   LIG    1       26.111 -32.017   8.855  0.00  0.00    +0.122 C 
ATOM      8  C   LIG    1       25.590 -31.997   7.621  0.00  0.00    +0.105 C 
ATOM      9  O   LIG    1       27.117 -30.671  10.493  0.00  0.00    -0.286 OA
ATOM     10  C   LIG    1       26.650 -28.271   9.157  0.00  0.00    +0.014 C 
ATOM     11  N   LIG    1       25.369 -30.871   6.835  0.00  0.00    -0.342 NA
ATOM     12  C   LIG    1       26.405 -27.112   8.433  0.00  0.00    +0.009 C 
ENDROOT
BRANCH   1  17
ATOM     13  C   LIG    1       25.028 -23.337   5.254  0.00  0.00    +0.121 A 
ATOM     14  C   LIG    1       25.508 -23.345   6.564  0.00  0.00    -0.010 A 
ATOM     15  C   LIG    1       25.826 -22.082   7.307  0.00  0.00    +0.047 C 
ATOM     16  C   LIG    1       25.676 -24.581   7.207  0.00  0.00    +0.016 A 
ATOM     17  C   LIG    1       25.416 -25.798   6.562  0.00  0.00    +0.001 A 
ATOM     18  C   LIG    1       25.004 -25.659   5.241  0.00  0.00    +0.121 A 
ATOM     19  N   LIG    1       24.777 -24.485   4.598  0.00  0.00    -0.240 NA
BRANCH  13  21
ATOM     20  C   LIG    1       23.507 -21.495   4.988  0.00  0.00    +0.127 C 
ATOM     21  N   LIG    1       24.773 -22.107   4.626  0.00  0.00    -0.332 N 
ATOM     22  H   LIG    1       24.861 -22.229   3.623  0.00  0.00    +0.147 HD
ENDBRANCH  13  21
ENDBRANCH   1  17
BRANCH  11  23
ATOM     23  C   LIG    1       25.457 -31.095   5.366  0.00  0.00    +0.087 C 
ATOM     24  C   LIG    1       26.267 -32.194   4.713  0.00  0.00    +0.027 C 
ATOM     25  C   LIG    1       24.778 -32.293   4.731  0.00  0.00    +0.027 C 
ENDBRANCH  11  23
BRANCH   7  26
ATOM     26  C   LIG    1       26.283 -33.286   9.576  0.00  0.00    +0.342 C 
ATOM     27  O   LIG    1       25.377 -33.825  10.211  0.00  0.00    -0.245 OA
BRANCH  26  28
ATOM     28  O   LIG    1       27.520 -33.825   9.504  0.00  0.00    -0.477 OA
ATOM     29  H   LIG    1       28.100 -33.596  10.268  0.00  0.00    +0.295 HD
ENDBRANCH  26  28
ENDBRANCH   7  26
TORSDOF 5
ENDMDL
MODEL 4
REMARK VINA RESULT:      -6.1      6.466      8.414
REMARK  Name = *****
REMARK                            x       y       z     vdW  Elec       q    Type
REMARK                         _______ _______ _______ _____ _____    ______ ____
ROOT
ATOM      1  C   LIG    1       21.338 -28.545  12.949  0.00  0.00    -0.011 C 
ATOM      2  C   LIG    1       22.536 -27.775  13.069  0.00  0.00    -0.018 C 
ATOM      3  C   LIG    1       22.487 -26.361  13.616  0.00  0.00    +0.046 C 
ATOM      4  C   LIG    1       23.764 -28.285  12.555  0.00  0.00    +0.057 C 
ATOM      5  C   LIG    1       23.718 -29.382  11.674  0.00  0.00    +0.046 C 
ATOM      6  C   LIG    1       24.936 -29.818  10.957  0.00  0.00    +0.203 C 
ATOM      7  C   LIG    1       26.191 -29.076  11.187  0.00  0.00    +0.122 C 
ATOM      8  C   LIG    1       26.158 -28.129  12.136  0.00  0.00    +0.105 C 
ATOM      9  O   LIG    1       24.917 -30.764  10.170  0.00  0.00    -0.286 OA
ATOM     10  C   LIG    1       22.538 -30.077  11.449  0.00  0.00    +0.014 C 
ATOM     11  N   LIG    1       25.048 -27.745  12.881  0.00  0.00    -0.342 NA
ATOM     12  C   LIG    1       21.390 -29.697  12.131  0.00  0.00    +0.009 C 
ENDROOT
BRANCH   1  17
ATOM     13  C   LIG    1       17.623 -27.571  14.896  0.00  0.00    +0.121 A 
ATOM     14  C   LIG    1       18.044 -28.901  14.860  0.00  0.00    -0.010 A 
ATOM     15  C   LIG    1       17.249 -30.009  15.484  0.00  0.00    +0.047 C 
ATOM     16  C   LIG    1       19.243 -29.205  14.196  0.00  0.00    +0.016 A 
ATOM     17  C   LIG    1       20.042 -28.214  13.610  0.00  0.00    +0.001 A 
ATOM     18  C   LIG    1       19.547 -26.924  13.769  0.00  0.00    +0.121 A 
ATOM     19  N   LIG    1       18.368 -26.590  14.354  0.00  0.00    -0.240 NA
BRANCH  13  21
ATOM     20  C   LIG    1       15.862 -25.952  15.131  0.00  0.00    +0.127 C 
ATOM     21  N   LIG    1       16.385 -27.261  15.481  0.00  0.00    -0.332 N 
ATOM     22  H   LIG    1       16.459 -27.382  16.485  0.00  0.00    +0.147 HD
ENDBRANCH  13  21
ENDBRANCH   1  17
BRANCH  11  23
ATOM     23  C   LIG    1       25.347 -27.243  14.251  0.00  0.00    +0.087 C 
ATOM     24  C   LIG    1       26.740 -27.023  14.799  0.00  0.00    +0.027 C 
ATOM     25  C   LIG    1       25.893 -25.844  14.453  0.00  0.00    +0.027 C 
ENDBRANCH  11  23
BRANCH   7  26
ATOM     26  C   LIG    1       27.438 -29.375  10.471  0.00  0.00    +0.342 C 
ATOM     27  O   LIG    1       28.482 -29.688  11.042  0.00  0.00    -0.245 OA
BRANCH  26  28
ATOM     28  O   LIG    1       27.367 -29.270   9.125  0.00  0.00    -0.477 OA
ATOM     29  H   LIG    1       26.994 -28.413   8.811  0.00  0.00    +0.295 HD
ENDBRANCH  26  28
ENDBRANCH   7  26
TORSDOF 5
ENDMDL
MODEL 5
REMARK VINA RESULT:      -6.1      6.511      8.539
REMARK  Name = *****
REMARK                            x       y       z     vdW  Elec       q    Type
REMARK                         _______ _______ _______ _____ _____    ______ ____
ROOT
ATOM      1  C   LIG    1       21.606 -27.835  13.411  0.00  0.00    -0.011 C 
ATOM      2  C   LIG    1       22.137 -28.928  12.659  0.00  0.00    -0.018 C 
ATOM      3  C   LIG    1       21.311 -30.180  12.438  0.00  0.00    +0.046 C 
ATOM      4  C   LIG    1       23.493 -28.898  12.221  0.00  0.00    +0.057 C 
ATOM      5  C   LIG    1       24.363 -27.951  12.796  0.00  0.00    +0.046 C 
ATOM      6  C   LIG    1       25.816 -28.010  12.529  0.00  0.00    +0.203 C 
ATOM      7  C   LIG    1       26.327 -29.083  11.653  0.00  0.00    +0.122 C 
ATOM      8  C   LIG    1       25.407 -29.855  11.057  0.00  0.00    +0.105 C 
ATOM      9  O   LIG    1       26.597 -27.204  13.033  0.00  0.00    -0.286 OA
ATOM     10  C   LIG    1       23.887 -26.948  13.627  0.00  0.00    +0.014 C 
ATOM     11  N   LIG    1       24.029 -29.778  11.227  0.00  0.00    -0.342 NA
ATOM     12  C   LIG    1       22.523 -26.862  13.869  0.00  0.00    +0.009 C 
ENDROOT
BRANCH   1  17
ATOM     13  C   LIG    1       17.462 -27.303  14.453  0.00  0.00    +0.121 A 
ATOM     14  C   LIG    1       18.033 -28.572  14.558  0.00  0.00    -0.010 A 
ATOM     15  C   LIG    1       17.254 -29.763  15.031  0.00  0.00    +0.047 C 
ATOM     16  C   LIG    1       19.377 -28.734  14.188  0.00  0.00    +0.016 A 
ATOM     17  C   LIG    1       20.165 -27.659  13.757  0.00  0.00    +0.001 A 
ATOM     18  C   LIG    1       19.500 -26.437  13.755  0.00  0.00    +0.121 A 
ATOM     19  N   LIG    1       18.190 -26.244  14.053  0.00  0.00    -0.240 NA
BRANCH  13  21
ATOM     20  C   LIG    1       15.775 -25.948  15.500  0.00  0.00    +0.127 C 
ATOM     21  N   LIG    1       16.097 -27.141  14.737  0.00  0.00    -0.332 N 
ATOM     22  H   LIG    1       15.756 -27.983  15.190  0.00  0.00    +0.147 HD
ENDBRANCH  13  21
ENDBRANCH   1  17
BRANCH  11  23
ATOM     23  C   LIG    1       23.220 -30.189  10.047  0.00  0.00    +0.087 C 
ATOM     24  C   LIG    1       23.799 -30.717   8.753  0.00  0.00    +0.027 C 
ATOM     25  C   LIG    1       23.094 -31.653   9.676  0.00  0.00    +0.027 C 
ENDBRANCH  11  23
BRANCH   7  26
ATOM     26  C   LIG    1       27.758 -29.280  11.384  0.00  0.00    +0.342 C 
ATOM     27  O   LIG    1       28.183 -29.764  10.335  0.00  0.00    -0.245 OA
BRANCH  26  28
ATOM     28  O   LIG    1       28.588 -28.902  12.381  0.00  0.00    -0.477 OA
ATOM     29  H   LIG    1       28.324 -29.240  13.269  0.00  0.00    +0.295 HD
ENDBRANCH  26  28
ENDBRANCH   7  26
TORSDOF 5
ENDMDL
MODEL 6
REMARK VINA RESULT:      -6.1      6.660      9.403
REMARK  Name = *****
REMARK                            x       y       z     vdW  Elec       q    Type
REMARK                         _______ _______ _______ _____ _____    ______ ____
ROOT
ATOM      1  C   LIG    1       21.991 -28.890  12.490  0.00  0.00    -0.011 C 
ATOM      2  C   LIG    1       23.380 -29.226  12.525  0.00  0.00    -0.018 C 
ATOM      3  C   LIG    1       23.822 -30.673  12.415  0.00  0.00    +0.046 C 
ATOM      4  C   LIG    1       24.349 -28.216  12.793  0.00  0.00    +0.057 C 
ATOM      5  C   LIG    1       23.908 -26.986  13.320  0.00  0.00    +0.046 C 
ATOM      6  C   LIG    1       24.885 -25.987  13.804  0.00  0.00    +0.203 C 
ATOM      7  C   LIG    1       26.323 -26.311  13.722  0.00  0.00    +0.122 C 
ATOM      8  C   LIG    1       26.642 -27.451  13.093  0.00  0.00    +0.105 C 
ATOM      9  O   LIG    1       24.523 -24.913  14.283  0.00  0.00    -0.286 OA
ATOM     10  C   LIG    1       22.558 -26.682  13.406  0.00  0.00    +0.014 C 
ATOM     11  N   LIG    1       25.752 -28.377  12.559  0.00  0.00    -0.342 NA
ATOM     12  C   LIG    1       21.628 -27.599  12.935  0.00  0.00    +0.009 C 
ENDROOT
BRANCH   1  17
ATOM     13  C   LIG    1       18.832 -31.491  11.149  0.00  0.00    +0.121 A 
ATOM     14  C   LIG    1       18.862 -31.090  12.486  0.00  0.00    -0.010 A 
ATOM     15  C   LIG    1       17.825 -31.528  13.476  0.00  0.00    +0.047 C 
ATOM     16  C   LIG    1       19.915 -30.265  12.913  0.00  0.00    +0.016 A 
ATOM     17  C   LIG    1       20.904 -29.805  12.033  0.00  0.00    +0.001 A 
ATOM     18  C   LIG    1       20.728 -30.223  10.718  0.00  0.00    +0.121 A 
ATOM     19  N   LIG    1       19.759 -31.062  10.273  0.00  0.00    -0.240 NA
BRANCH  13  21
ATOM     20  C   LIG    1       18.091 -33.010   9.440  0.00  0.00    +0.127 C 
ATOM     21  N   LIG    1       17.836 -32.385  10.726  0.00  0.00    -0.332 N 
ATOM     22  H   LIG    1       16.941 -31.907  10.743  0.00  0.00    +0.147 HD
ENDBRANCH  13  21
ENDBRANCH   1  17
BRANCH  11  23
ATOM     23  C   LIG    1       26.253 -29.132  11.378  0.00  0.00    +0.087 C 
ATOM     24  C   LIG    1       26.877 -28.495  10.155  0.00  0.00    +0.027 C 
ATOM     25  C   LIG    1       27.741 -29.242  11.114  0.00  0.00    +0.027 C 
ENDBRANCH  11  23
BRANCH   7  26
ATOM     26  C   LIG    1       27.372 -25.425  14.244  0.00  0.00    +0.342 C 
ATOM     27  O   LIG    1       28.345 -25.835  14.875  0.00  0.00    -0.245 OA
BRANCH  26  28
ATOM     28  O   LIG    1       27.191 -24.109  13.992  0.00  0.00    -0.477 OA
ATOM     29  H   LIG    1       26.436 -23.919  13.387  0.00  0.00    +0.295 HD
ENDBRANCH  26  28
ENDBRANCH   7  26
TORSDOF 5
ENDMDL
MODEL 7
REMARK VINA RESULT:      -5.7      5.702      7.314
REMARK  Name = *****
REMARK                            x       y       z     vdW  Elec       q    Type
REMARK                         _______ _______ _______ _____ _____    ______ ____
ROOT
ATOM      1  C   LIG    1       21.679 -29.258  12.112  0.00  0.00    -0.011 C 
ATOM      2  C   LIG    1       23.090 -29.044  12.202  0.00  0.00    -0.018 C 
ATOM      3  C   LIG    1       23.636 -27.826  12.922  0.00  0.00    +0.046 C 
ATOM      4  C   LIG    1       23.985 -29.906  11.505  0.00  0.00    +0.057 C 
ATOM      5  C   LIG    1       23.463 -30.748  10.504  0.00  0.00    +0.046 C 
ATOM      6  C   LIG    1       24.370 -31.507   9.616  0.00  0.00    +0.203 C 
ATOM      7  C   LIG    1       25.827 -31.358   9.806  0.00  0.00    +0.122 C 
ATOM      8  C   LIG    1       26.219 -30.633  10.862  0.00  0.00    +0.105 C 
ATOM      9  O   LIG    1       23.938 -32.236   8.725  0.00  0.00    -0.286 OA
ATOM     10  C   LIG    1       22.095 -30.883  10.318  0.00  0.00    +0.014 C 
ATOM     11  N   LIG    1       25.392 -29.967  11.761  0.00  0.00    -0.342 NA
ATOM     12  C   LIG    1       21.228 -30.197  11.157  0.00  0.00    +0.009 C 
ENDROOT
BRANCH   1  17
ATOM     13  C   LIG    1       18.764 -27.212  14.532  0.00  0.00    +0.121 A 
ATOM     14  C   LIG    1       18.851 -28.604  14.602  0.00  0.00    -0.010 A 
ATOM     15  C   LIG    1       17.967 -29.416  15.500  0.00  0.00    +0.047 C 
ATOM     16  C   LIG    1       19.787 -29.257  13.786  0.00  0.00    +0.016 A 
ATOM     17  C   LIG    1       20.656 -28.554  12.940  0.00  0.00    +0.001 A 
ATOM     18  C   LIG    1       20.514 -27.172  13.007  0.00  0.00    +0.121 A 
ATOM     19  N   LIG    1       19.587 -26.503  13.740  0.00  0.00    -0.240 NA
BRANCH  13  21
ATOM     20  C   LIG    1       16.552 -26.271  14.546  0.00  0.00    +0.127 C 
ATOM     21  N   LIG    1       17.774 -26.551  15.278  0.00  0.00    -0.332 N 
ATOM     22  H   LIG    1       18.177 -25.710  15.678  0.00  0.00    +0.147 HD
ENDBRANCH  13  21
ENDBRANCH   1  17
BRANCH  11  23
ATOM     23  C   LIG    1       25.929 -29.840  13.144  0.00  0.00    +0.087 C 
ATOM     24  C   LIG    1       27.355 -30.151  13.541  0.00  0.00    +0.027 C 
ATOM     25  C   LIG    1       26.901 -28.731  13.490  0.00  0.00    +0.027 C 
ENDBRANCH  11  23
BRANCH   7  26
ATOM     26  C   LIG    1       26.816 -32.004   8.932  0.00  0.00    +0.342 C 
ATOM     27  O   LIG    1       27.540 -32.927   9.306  0.00  0.00    -0.245 OA
BRANCH  26  28
ATOM     28  O   LIG    1       26.888 -31.506   7.678  0.00  0.00    -0.477 OA
ATOM     29  H   LIG    1       26.015 -31.244   7.302  0.00  0.00    +0.295 HD
ENDBRANCH  26  28
ENDBRANCH   7  26
TORSDOF 5
ENDMDL
MODEL 8
REMARK VINA RESULT:      -5.6      7.257      9.019
REMARK  Name = *****
REMARK                            x       y       z     vdW  Elec       q    Type
REMARK                         _______ _______ _______ _____ _____    ______ ____
ROOT
ATOM      1  C   LIG    1       22.942 -28.211  13.170  0.00  0.00    -0.011 C 
ATOM      2  C   LIG    1       21.815 -28.117  14.043  0.00  0.00    -0.018 C 
ATOM      3  C   LIG    1       21.944 -27.435  15.392  0.00  0.00    +0.046 C 
ATOM      4  C   LIG    1       20.597 -28.777  13.706  0.00  0.00    +0.057 C 
ATOM      5  C   LIG    1       20.621 -29.752  12.691  0.00  0.00    +0.046 C 
ATOM      6  C   LIG    1       19.439 -30.605  12.444  0.00  0.00    +0.203 C 
ATOM      7  C   LIG    1       18.242 -30.409  13.286  0.00  0.00    +0.122 C 
ATOM      8  C   LIG    1       18.276 -29.375  14.138  0.00  0.00    +0.105 C 
ATOM      9  O   LIG    1       19.442 -31.474  11.573  0.00  0.00    -0.286 OA
ATOM     10  C   LIG    1       21.747 -29.945  11.904  0.00  0.00    +0.014 C 
ATOM     11  N   LIG    1       19.343 -28.507  14.342  0.00  0.00    -0.342 NA
ATOM     12  C   LIG    1       22.858 -29.137  12.105  0.00  0.00    +0.009 C 
ENDROOT
BRANCH   1  17
ATOM     13  C   LIG    1       26.575 -25.943  13.618  0.00  0.00    +0.121 A 
ATOM     14  C   LIG    1       25.349 -25.319  13.855  0.00  0.00    -0.010 A 
ATOM     15  C   LIG    1       25.250 -23.882  14.269  0.00  0.00    +0.047 C 
ATOM     16  C   LIG    1       24.173 -26.065  13.677  0.00  0.00    +0.016 A 
ATOM     17  C   LIG    1       24.197 -27.417  13.310  0.00  0.00    +0.001 A 
ATOM     18  C   LIG    1       25.479 -27.940  13.166  0.00  0.00    +0.121 A 
ATOM     19  N   LIG    1       26.639 -27.243  13.275  0.00  0.00    -0.240 NA
BRANCH  13  21
ATOM     20  C   LIG    1       28.478 -25.343  14.959  0.00  0.00    +0.127 C 
ATOM     21  N   LIG    1       27.756 -25.189  13.708  0.00  0.00    -0.332 N 
ATOM     22  H   LIG    1       27.536 -24.217  13.515  0.00  0.00    +0.147 HD
ENDBRANCH  13  21
ENDBRANCH   1  17
BRANCH  11  23
ATOM     23  C   LIG    1       18.969 -27.124  14.749  0.00  0.00    +0.087 C 
ATOM     24  C   LIG    1       18.757 -25.975  13.788  0.00  0.00    +0.027 C 
ATOM     25  C   LIG    1       17.579 -26.592  14.465  0.00  0.00    +0.027 C 
ENDBRANCH  11  23
BRANCH   7  26
ATOM     26  C   LIG    1       17.043 -31.251  13.177  0.00  0.00    +0.342 C 
ATOM     27  O   LIG    1       16.761 -32.126  13.995  0.00  0.00    -0.245 OA
BRANCH  26  28
ATOM     28  O   LIG    1       16.264 -31.006  12.100  0.00  0.00    -0.477 OA
ATOM     29  H   LIG    1       15.679 -31.760  11.851  0.00  0.00    +0.295 HD
ENDBRANCH  26  28
ENDBRANCH   7  26
TORSDOF 5
ENDMDL
MODEL 9
REMARK VINA RESULT:      -5.6      3.670      6.109
REMARK  Name = *****
REMARK                            x       y       z     vdW  Elec       q    Type
REMARK                         _______ _______ _______ _____ _____    ______ ____
ROOT
ATOM      1  C   LIG    1       25.950 -30.783   9.740  0.00  0.00    -0.011 C 
ATOM      2  C   LIG    1       25.045 -30.526   8.664  0.00  0.00    -0.018 C 
ATOM      3  C   LIG    1       23.684 -29.915   8.936  0.00  0.00    +0.046 C 
ATOM      4  C   LIG    1       25.366 -30.963   7.345  0.00  0.00    +0.057 C 
ATOM      5  C   LIG    1       26.405 -31.899   7.183  0.00  0.00    +0.046 C 
ATOM      6  C   LIG    1       26.641 -32.534   5.868  0.00  0.00    +0.203 C 
ATOM      7  C   LIG    1       25.763 -32.164   4.741  0.00  0.00    +0.122 C 
ATOM      8  C   LIG    1       24.887 -31.175   4.967  0.00  0.00    +0.105 C 
ATOM      9  O   LIG    1       27.532 -33.366   5.706  0.00  0.00    -0.286 OA
ATOM     10  C   LIG    1       27.226 -32.255   8.242  0.00  0.00    +0.014 C 
ATOM     11  N   LIG    1       24.690 -30.505   6.170  0.00  0.00    -0.342 NA
ATOM     12  C   LIG    1       27.034 -31.651   9.478  0.00  0.00    +0.009 C 
ENDROOT
BRANCH   1  17
ATOM     13  C   LIG    1       25.535 -29.143  13.699  0.00  0.00    +0.121 A 
ATOM     14  C   LIG    1       26.005 -28.326  12.670  0.00  0.00    -0.010 A 
ATOM     15  C   LIG    1       26.365 -26.887  12.891  0.00  0.00    +0.047 C 
ATOM     16  C   LIG    1       26.161 -28.884  11.392  0.00  0.00    +0.016 A 
ATOM     17  C   LIG    1       25.824 -30.215  11.114  0.00  0.00    +0.001 A 
ATOM     18  C   LIG    1       25.309 -30.906  12.206  0.00  0.00    +0.121 A 
ATOM     19  N   LIG    1       25.192 -30.423  13.470  0.00  0.00    -0.240 NA
BRANCH  13  21
ATOM     20  C   LIG    1       24.102 -28.447  15.500  0.00  0.00    +0.127 C 
ATOM     21  N   LIG    1       25.455 -28.624  15.002  0.00  0.00    -0.332 N 
ATOM     22  H   LIG    1       25.988 -27.762  15.042  0.00  0.00    +0.147 HD
ENDBRANCH  13  21
ENDBRANCH   1  17
BRANCH  11  23
ATOM     23  C   LIG    1       24.239 -29.091   6.042  0.00  0.00    +0.087 C 
ATOM     24  C   LIG    1       25.043 -27.891   6.492  0.00  0.00    +0.027 C 
ATOM     25  C   LIG    1       24.891 -28.167   5.034  0.00  0.00    +0.027 C 
ENDBRANCH  11  23
BRANCH   7  26
ATOM     26  C   LIG    1       25.860 -32.789   3.415  0.00  0.00    +0.342 C 
ATOM     27  O   LIG    1       26.888 -32.773   2.739  0.00  0.00    -0.245 OA
BRANCH  26  28
ATOM     28  O   LIG    1       24.728 -33.381   2.974  0.00  0.00    -0.477 OA
ATOM     29  H   LIG    1       23.933 -33.179   3.521  0.00  0.00    +0.295 HD
ENDBRANCH  26  28
ENDBRANCH   7  26
TORSDOF 5
ENDMDL
