MODEL 1
REMARK VINA RESULT:      -8.1      0.000      0.000
REMARK  Name = *****
REMARK                            x       y       z     vdW  Elec       q    Type
REMARK                         _______ _______ _______ _____ _____    ______ ____
ROOT
ATOM      1  C   LIG    1       23.964 -31.706  10.095  0.00  0.00    +0.085 C 
ATOM      2  C   LIG    1       24.820 -30.714  10.831  0.00  0.00    +0.264 C 
ATOM      3  O   LIG    1       24.944 -30.818  12.057  0.00  0.00    -0.267 OA
ATOM      4  N   LIG    1       25.457 -29.704  10.121  0.00  0.00    -0.289 N 
ATOM      5  C   LIG    1       25.286 -29.571   8.712  0.00  0.00    +0.149 A 
ATOM      6  C   LIG    1       24.512 -30.509   8.055  0.00  0.00    +0.040 A 
ATOM      7  C   LIG    1       24.330 -30.235   6.716  0.00  0.00    +0.126 A 
ATOM      8  N   LIG    1       24.858 -29.179   6.081  0.00  0.00    -0.222 NA
ATOM      9  C   LIG    1       25.630 -28.342   6.778  0.00  0.00    +0.222 A 
ATOM     10  N   LIG    1       25.871 -28.521   8.082  0.00  0.00    -0.196 NA
ATOM     11  C   LIG    1       23.895 -31.660   8.741  0.00  0.00    -0.023 C 
ATOM     12  C   LIG    1       23.214 -32.689   7.862  0.00  0.00    +0.045 C 
ENDROOT
BRANCH   4  13
ATOM     13  C   LIG    1       26.262 -28.711  10.854  0.00  0.00    +0.092 C 
ATOM     14  C   LIG    1       25.591 -28.078  12.080  0.00  0.00    +0.025 C 
ATOM     15  C   LIG    1       26.764 -27.566  12.906  0.00  0.00    +0.002 C 
ATOM     16  C   LIG    1       27.831 -28.637  12.737  0.00  0.00    +0.002 C 
ATOM     17  C   LIG    1       27.652 -29.184  11.321  0.00  0.00    +0.025 C 
ENDBRANCH   4  13
BRANCH   1  19
ATOM     18  C   LIG    1       21.683 -32.478  11.144  0.00  0.00    +0.091 C 
ATOM     19  C   LIG    1       23.142 -32.733  10.853  0.00  0.00    +0.166 C 
ATOM     20  O   LIG    1       23.624 -33.820  11.176  0.00  0.00    -0.292 OA
ENDBRANCH   1  19
BRANCH   9  21
ATOM     21  N   LIG    1       26.232 -27.265   6.137  0.00  0.00    -0.268 N 
ATOM     22  H   LIG    1       26.934 -27.540   5.470  0.00  0.00    +0.156 HD
BRANCH  21  23
ATOM     23  C   LIG    1       25.771 -25.959   5.974  0.00  0.00    +0.125 A 
ATOM     24  N   LIG    1       25.218 -25.632   4.788  0.00  0.00    -0.238 NA
ATOM     25  C   LIG    1       24.775 -24.347   4.626  0.00  0.00    +0.136 A 
ATOM     26  C   LIG    1       24.836 -23.332   5.584  0.00  0.00    +0.048 A 
ATOM     27  C   LIG    1       25.421 -23.705   6.787  0.00  0.00    +0.028 A 
ATOM     28  C   LIG    1       25.900 -25.002   6.976  0.00  0.00    +0.045 A 
BRANCH  26  29
ATOM     29  N   LIG    1       24.409 -22.007   5.414  0.00  0.00    -0.326 N 
ATOM     30  C   LIG    1       23.242 -21.644   6.254  0.00  0.00    +0.120 C 
ATOM     31  C   LIG    1       22.900 -20.138   6.136  0.00  0.00    +0.100 C 
ATOM     32  N   LIG    1       22.776 -19.656   4.746  0.00  0.00    -0.313 NA
ATOM     33  H   LIG    1       22.027 -20.183   4.294  0.00  0.00    +0.122 HD
ATOM     34  C   LIG    1       24.039 -19.963   4.046  0.00  0.00    +0.100 C 
ATOM     35  C   LIG    1       24.374 -21.472   4.042  0.00  0.00    +0.120 C 
ENDBRANCH  26  29
ENDBRANCH  21  23
ENDBRANCH   9  21
TORSDOF 5
ENDMDL
MODEL 2
REMARK VINA RESULT:      -7.8      1.017      1.094
REMARK  Name = *****
REMARK                            x       y       z     vdW  Elec       q    Type
REMARK                         _______ _______ _______ _____ _____    ______ ____
ROOT
ATOM      1  C   LIG    1       23.975 -31.471   8.877  0.00  0.00    +0.085 C 
ATOM      2  C   LIG    1       24.767 -30.719   9.910  0.00  0.00    +0.264 C 
ATOM      3  O   LIG    1       24.807 -31.150  11.069  0.00  0.00    -0.267 OA
ATOM      4  N   LIG    1       25.439 -29.560   9.543  0.00  0.00    -0.289 N 
ATOM      5  C   LIG    1       25.364 -29.053   8.214  0.00  0.00    +0.149 A 
ATOM      6  C   LIG    1       24.648 -29.774   7.277  0.00  0.00    +0.040 A 
ATOM      7  C   LIG    1       24.555 -29.150   6.051  0.00  0.00    +0.126 A 
ATOM      8  N   LIG    1       25.113 -27.965   5.761  0.00  0.00    -0.222 NA
ATOM      9  C   LIG    1       25.825 -27.352   6.709  0.00  0.00    +0.222 A 
ATOM     10  N   LIG    1       25.978 -27.876   7.930  0.00  0.00    -0.196 NA
ATOM     11  C   LIG    1       23.999 -31.062   7.584  0.00  0.00    -0.023 C 
ATOM     12  C   LIG    1       23.392 -31.813   6.417  0.00  0.00    +0.045 C 
ENDROOT
BRANCH   4  13
ATOM     13  C   LIG    1       26.180 -28.806  10.570  0.00  0.00    +0.092 C 
ATOM     14  C   LIG    1       25.408 -28.490  11.857  0.00  0.00    +0.025 C 
ATOM     15  C   LIG    1       26.506 -28.233  12.881  0.00  0.00    +0.002 C 
ATOM     16  C   LIG    1       27.581 -29.252  12.532  0.00  0.00    +0.002 C 
ATOM     17  C   LIG    1       27.524 -29.415  11.014  0.00  0.00    +0.025 C 
ENDBRANCH   4  13
BRANCH   1  19
ATOM     18  C   LIG    1       21.738 -32.443   9.854  0.00  0.00    +0.091 C 
ATOM     19  C   LIG    1       23.115 -32.658   9.273  0.00  0.00    +0.166 C 
ATOM     20  O   LIG    1       23.489 -33.812   9.060  0.00  0.00    -0.292 OA
ENDBRANCH   1  19
BRANCH   9  21
ATOM     21  N   LIG    1       26.457 -26.147   6.423  0.00  0.00    -0.268 N 
ATOM     22  H   LIG    1       27.402 -26.260   6.097  0.00  0.00    +0.156 HD
BRANCH  21  23
ATOM     23  C   LIG    1       25.902 -24.899   6.140  0.00  0.00    +0.125 A 
ATOM     24  N   LIG    1       25.198 -24.771   4.997  0.00  0.00    -0.238 NA
ATOM     25  C   LIG    1       24.661 -23.543   4.715  0.00  0.00    +0.136 A 
ATOM     26  C   LIG    1       24.769 -22.399   5.511  0.00  0.00    +0.048 A 
ATOM     27  C   LIG    1       25.510 -22.570   6.673  0.00  0.00    +0.028 A 
ATOM     28  C   LIG    1       26.086 -23.803   6.978  0.00  0.00    +0.045 A 
BRANCH  26  29
ATOM     29  N   LIG    1       24.246 -21.133   5.214  0.00  0.00    -0.326 N 
ATOM     30  C   LIG    1       22.785 -21.021   5.446  0.00  0.00    +0.120 C 
ATOM     31  C   LIG    1       22.283 -19.571   5.241  0.00  0.00    +0.100 C 
ATOM     32  N   LIG    1       22.707 -18.962   3.964  0.00  0.00    -0.313 NA
ATOM     33  H   LIG    1       22.335 -19.532   3.203  0.00  0.00    +0.122 HD
ATOM     34  C   LIG    1       24.181 -19.021   3.902  0.00  0.00    +0.100 C 
ATOM     35  C   LIG    1       24.732 -20.462   3.996  0.00  0.00    +0.120 C 
ENDBRANCH  26  29
ENDBRANCH  21  23
ENDBRANCH   9  21
TORSDOF 5
ENDMDL
MODEL 3
REMARK VINA RESULT:      -7.7      1.319      1.469
REMARK  Name = *****
REMARK                            x       y       z     vdW  Elec       q    Type
REMARK                         _______ _______ _______ _____ _____    ______ ____
ROOT
ATOM      1  C   LIG    1       23.804 -31.808  11.592  0.00  0.00    +0.085 C 
ATOM      2  C   LIG    1       24.674 -30.654  12.004  0.00  0.00    +0.264 C 
ATOM      3  O   LIG    1       24.920 -30.483  13.205  0.00  0.00    -0.267 OA
ATOM      4  N   LIG    1       25.186 -29.806  11.031  0.00  0.00    -0.289 N 
ATOM      5  C   LIG    1       24.875 -29.990   9.653  0.00  0.00    +0.149 A 
ATOM      6  C   LIG    1       24.091 -31.071   9.297  0.00  0.00    +0.040 A 
ATOM      7  C   LIG    1       23.768 -31.104   7.957  0.00  0.00    +0.126 A 
ATOM      8  N   LIG    1       24.177 -30.196   7.059  0.00  0.00    -0.222 NA
ATOM      9  C   LIG    1       24.967 -29.204   7.474  0.00  0.00    +0.222 A 
ATOM     10  N   LIG    1       25.341 -29.086   8.754  0.00  0.00    -0.196 NA
ATOM     11  C   LIG    1       23.603 -32.062  10.275  0.00  0.00    -0.023 C 
ATOM     12  C   LIG    1       22.896 -33.278   9.715  0.00  0.00    +0.045 C 
ENDROOT
BRANCH   4  13
ATOM     13  C   LIG    1       26.005 -28.652  11.445  0.00  0.00    +0.092 C 
ATOM     14  C   LIG    1       25.391 -27.746  12.521  0.00  0.00    +0.025 C 
ATOM     15  C   LIG    1       26.596 -27.032  13.118  0.00  0.00    +0.002 C 
ATOM     16  C   LIG    1       27.682 -28.098  13.146  0.00  0.00    +0.002 C 
ATOM     17  C   LIG    1       27.434 -28.977  11.921  0.00  0.00    +0.025 C 
ENDBRANCH   4  13
BRANCH   1  19
ATOM     18  C   LIG    1       23.843 -33.824  13.278  0.00  0.00    +0.091 C 
ATOM     19  C   LIG    1       23.113 -32.669  12.636  0.00  0.00    +0.166 C 
ATOM     20  O   LIG    1       21.978 -32.399  13.032  0.00  0.00    -0.292 OA
ENDBRANCH   1  19
BRANCH   9  21
ATOM     21  N   LIG    1       25.448 -28.277   6.557  0.00  0.00    -0.268 N 
ATOM     22  H   LIG    1       25.733 -28.690   5.685  0.00  0.00    +0.156 HD
BRANCH  21  23
ATOM     23  C   LIG    1       25.236 -26.900   6.493  0.00  0.00    +0.125 A 
ATOM     24  N   LIG    1       23.979 -26.468   6.267  0.00  0.00    -0.238 NA
ATOM     25  C   LIG    1       23.774 -25.117   6.195  0.00  0.00    +0.136 A 
ATOM     26  C   LIG    1       24.753 -24.130   6.342  0.00  0.00    +0.048 A 
ATOM     27  C   LIG    1       26.035 -24.616   6.564  0.00  0.00    +0.028 A 
ATOM     28  C   LIG    1       26.279 -25.988   6.622  0.00  0.00    +0.045 A 
BRANCH  26  29
ATOM     29  N   LIG    1       24.554 -22.746   6.241  0.00  0.00    -0.326 N 
ATOM     30  C   LIG    1       23.382 -22.255   7.007  0.00  0.00    +0.120 C 
ATOM     31  C   LIG    1       23.289 -20.709   6.980  0.00  0.00    +0.100 C 
ATOM     32  N   LIG    1       23.373 -20.125   5.626  0.00  0.00    -0.313 NA
ATOM     33  H   LIG    1       22.598 -20.494   5.074  0.00  0.00    +0.122 HD
ATOM     34  C   LIG    1       24.634 -20.585   5.012  0.00  0.00    +0.100 C 
ATOM     35  C   LIG    1       24.732 -22.125   4.918  0.00  0.00    +0.120 C 
ENDBRANCH  26  29
ENDBRANCH  21  23
ENDBRANCH   9  21
TORSDOF 5
ENDMDL
MODEL 4
REMARK VINA RESULT:      -7.3      1.542      3.881
REMARK  Name = *****
REMARK                            x       y       z     vdW  Elec       q    Type
REMARK                         _______ _______ _______ _____ _____    ______ ____
ROOT
ATOM      1  C   LIG    1       24.894 -32.106   9.891  0.00  0.00    +0.085 C 
ATOM      2  C   LIG    1       24.588 -32.444   8.459  0.00  0.00    +0.264 C 
ATOM      3  O   LIG    1       24.196 -33.584   8.180  0.00  0.00    -0.267 OA
ATOM      4  N   LIG    1       24.749 -31.472   7.480  0.00  0.00    -0.289 N 
ATOM      5  C   LIG    1       25.230 -30.171   7.804  0.00  0.00    +0.149 A 
ATOM      6  C   LIG    1       25.483 -29.877   9.130  0.00  0.00    +0.040 A 
ATOM      7  C   LIG    1       26.036 -28.629   9.325  0.00  0.00    +0.126 A 
ATOM      8  N   LIG    1       26.296 -27.755   8.342  0.00  0.00    -0.222 NA
ATOM      9  C   LIG    1       25.984 -28.098   7.090  0.00  0.00    +0.222 A 
ATOM     10  N   LIG    1       25.440 -29.285   6.796  0.00  0.00    -0.196 NA
ATOM     11  C   LIG    1       25.235 -30.836  10.224  0.00  0.00    -0.023 C 
ATOM     12  C   LIG    1       25.403 -30.315  11.636  0.00  0.00    +0.045 C 
ENDROOT
BRANCH   4  13
ATOM     13  C   LIG    1       24.487 -31.823   6.072  0.00  0.00    +0.092 C 
ATOM     14  C   LIG    1       25.612 -32.572   5.347  0.00  0.00    +0.025 C 
ATOM     15  C   LIG    1       24.899 -33.256   4.188  0.00  0.00    +0.002 C 
ATOM     16  C   LIG    1       23.566 -33.691   4.779  0.00  0.00    +0.002 C 
ATOM     17  C   LIG    1       23.197 -32.623   5.807  0.00  0.00    +0.025 C 
ENDBRANCH   4  13
BRANCH   1  19
ATOM     18  C   LIG    1       23.570 -33.543  11.647  0.00  0.00    +0.091 C 
ATOM     19  C   LIG    1       24.866 -33.180  10.964  0.00  0.00    +0.166 C 
ATOM     20  O   LIG    1       25.878 -33.825  11.244  0.00  0.00    -0.292 OA
ENDBRANCH   1  19
BRANCH   9  21
ATOM     21  N   LIG    1       26.196 -27.195   6.056  0.00  0.00    -0.268 N 
ATOM     22  H   LIG    1       26.447 -27.636   5.187  0.00  0.00    +0.156 HD
BRANCH  21  23
ATOM     23  C   LIG    1       25.750 -25.880   5.919  0.00  0.00    +0.125 A 
ATOM     24  N   LIG    1       25.148 -25.539   4.762  0.00  0.00    -0.238 NA
ATOM     25  C   LIG    1       24.719 -24.246   4.626  0.00  0.00    +0.136 A 
ATOM     26  C   LIG    1       24.840 -23.236   5.585  0.00  0.00    +0.048 A 
ATOM     27  C   LIG    1       25.474 -23.626   6.758  0.00  0.00    +0.028 A 
ATOM     28  C   LIG    1       25.940 -24.930   6.919  0.00  0.00    +0.045 A 
BRANCH  26  29
ATOM     29  N   LIG    1       24.428 -21.905   5.440  0.00  0.00    -0.326 N 
ATOM     30  C   LIG    1       23.071 -21.638   5.978  0.00  0.00    +0.120 C 
ATOM     31  C   LIG    1       22.721 -20.130   5.923  0.00  0.00    +0.100 C 
ATOM     32  N   LIG    1       22.944 -19.508   4.603  0.00  0.00    -0.313 NA
ATOM     33  H   LIG    1       22.355 -19.991   3.922  0.00  0.00    +0.122 HD
ATOM     34  C   LIG    1       24.355 -19.733   4.230  0.00  0.00    +0.100 C 
ATOM     35  C   LIG    1       24.731 -21.231   4.165  0.00  0.00    +0.120 C 
ENDBRANCH  26  29
ENDBRANCH  21  23
ENDBRANCH   9  21
TORSDOF 5
ENDMDL
MODEL 5
REMARK VINA RESULT:      -7.1      4.593      9.958
REMARK  Name = *****
REMARK                            x       y       z     vdW  Elec       q    Type
REMARK                         _______ _______ _______ _____ _____    ______ ____
ROOT
ATOM      1  C   LIG    1       23.911 -20.284   5.019  0.00  0.00    +0.085 C 
ATOM      2  C   LIG    1       25.339 -20.224   5.483  0.00  0.00    +0.264 C 
ATOM      3  O   LIG    1       25.976 -19.173   5.339  0.00  0.00    -0.267 OA
ATOM      4  N   LIG    1       25.914 -21.347   6.066  0.00  0.00    -0.289 N 
ATOM      5  C   LIG    1       25.185 -22.563   6.201  0.00  0.00    +0.149 A 
ATOM      6  C   LIG    1       23.866 -22.587   5.788  0.00  0.00    +0.040 A 
ATOM      7  C   LIG    1       23.282 -23.833   5.871  0.00  0.00    +0.126 A 
ATOM      8  N   LIG    1       23.905 -24.931   6.324  0.00  0.00    -0.222 NA
ATOM      9  C   LIG    1       25.166 -24.816   6.745  0.00  0.00    +0.222 A 
ATOM     10  N   LIG    1       25.821 -23.650   6.709  0.00  0.00    -0.196 NA
ATOM     11  C   LIG    1       23.174 -21.398   5.256  0.00  0.00    -0.023 C 
ATOM     12  C   LIG    1       21.687 -21.536   4.999  0.00  0.00    +0.045 C 
ENDROOT
BRANCH   4  13
ATOM     13  C   LIG    1       27.328 -21.294   6.481  0.00  0.00    +0.092 C 
ATOM     14  C   LIG    1       28.225 -20.339   5.683  0.00  0.00    +0.025 C 
ATOM     15  C   LIG    1       29.396 -20.079   6.622  0.00  0.00    +0.002 C 
ATOM     16  C   LIG    1       28.755 -20.003   8.000  0.00  0.00    +0.002 C 
ATOM     17  C   LIG    1       27.581 -20.980   7.968  0.00  0.00    +0.025 C 
ENDBRANCH   4  13
BRANCH   1  19
ATOM     18  C   LIG    1       22.242 -18.259   4.896  0.00  0.00    +0.091 C 
ATOM     19  C   LIG    1       23.296 -19.127   4.252  0.00  0.00    +0.166 C 
ATOM     20  O   LIG    1       23.695 -18.829   3.126  0.00  0.00    -0.292 OA
ENDBRANCH   1  19
BRANCH   9  21
ATOM     21  N   LIG    1       25.821 -25.926   7.266  0.00  0.00    -0.268 N 
ATOM     22  H   LIG    1       26.246 -25.754   8.162  0.00  0.00    +0.156 HD
BRANCH  21  23
ATOM     23  C   LIG    1       25.655 -27.277   6.965  0.00  0.00    +0.125 A 
ATOM     24  N   LIG    1       25.590 -27.627   5.664  0.00  0.00    -0.238 NA
ATOM     25  C   LIG    1       25.418 -28.952   5.369  0.00  0.00    +0.136 A 
ATOM     26  C   LIG    1       25.309 -29.991   6.298  0.00  0.00    +0.048 A 
ATOM     27  C   LIG    1       25.371 -29.589   7.626  0.00  0.00    +0.028 A 
ATOM     28  C   LIG    1       25.526 -28.243   7.958  0.00  0.00    +0.045 A 
BRANCH  26  29
ATOM     29  N   LIG    1       25.104 -31.346   6.003  0.00  0.00    -0.326 N 
ATOM     30  C   LIG    1       25.846 -31.815   4.808  0.00  0.00    +0.120 C 
ATOM     31  C   LIG    1       25.701 -33.344   4.608  0.00  0.00    +0.100 C 
ATOM     32  N   LIG    1       24.305 -33.825   4.639  0.00  0.00    -0.313 NA
ATOM     33  H   LIG    1       23.794 -33.362   3.886  0.00  0.00    +0.122 HD
ATOM     34  C   LIG    1       23.710 -33.405   5.923  0.00  0.00    +0.100 C 
ATOM     35  C   LIG    1       23.733 -31.873   6.126  0.00  0.00    +0.120 C 
ENDBRANCH  26  29
ENDBRANCH  21  23
ENDBRANCH   9  21
TORSDOF 5
ENDMDL
MODEL 6
REMARK VINA RESULT:      -7.0      2.760      3.668
REMARK  Name = *****
REMARK                            x       y       z     vdW  Elec       q    Type
REMARK                         _______ _______ _______ _____ _____    ______ ____
ROOT
ATOM      1  C   LIG    1       25.873 -31.543   6.655  0.00  0.00    +0.085 C 
ATOM      2  C   LIG    1       25.873 -30.903   8.016  0.00  0.00    +0.264 C 
ATOM      3  O   LIG    1       26.165 -31.588   9.003  0.00  0.00    -0.267 OA
ATOM      4  N   LIG    1       25.550 -29.557   8.135  0.00  0.00    -0.289 N 
ATOM      5  C   LIG    1       25.186 -28.781   6.997  0.00  0.00    +0.149 A 
ATOM      6  C   LIG    1       25.215 -29.386   5.755  0.00  0.00    +0.040 A 
ATOM      7  C   LIG    1       24.752 -28.581   4.736  0.00  0.00    +0.126 A 
ATOM      8  N   LIG    1       24.328 -27.320   4.903  0.00  0.00    -0.222 NA
ATOM      9  C   LIG    1       24.372 -26.793   6.129  0.00  0.00    +0.222 A 
ATOM     10  N   LIG    1       24.806 -27.491   7.184  0.00  0.00    -0.196 NA
ATOM     11  C   LIG    1       25.647 -30.783   5.555  0.00  0.00    -0.023 C 
ATOM     12  C   LIG    1       25.782 -31.253   4.122  0.00  0.00    +0.045 C 
ENDROOT
BRANCH   4  13
ATOM     13  C   LIG    1       25.513 -28.946   9.477  0.00  0.00    +0.092 C 
ATOM     14  C   LIG    1       24.742 -29.728  10.548  0.00  0.00    +0.025 C 
ATOM     15  C   LIG    1       25.312 -29.199  11.857  0.00  0.00    +0.002 C 
ATOM     16  C   LIG    1       26.793 -29.010  11.567  0.00  0.00    +0.002 C 
ATOM     17  C   LIG    1       26.881 -28.601  10.097  0.00  0.00    +0.025 C 
ENDBRANCH   4  13
BRANCH   1  19
ATOM     18  C   LIG    1       27.472 -33.604   6.342  0.00  0.00    +0.091 C 
ATOM     19  C   LIG    1       26.081 -33.039   6.503  0.00  0.00    +0.166 C 
ATOM     20  O   LIG    1       25.135 -33.824   6.583  0.00  0.00    -0.292 OA
ENDBRANCH   1  19
BRANCH   9  21
ATOM     21  N   LIG    1       23.985 -25.472   6.324  0.00  0.00    -0.268 N 
ATOM     22  H   LIG    1       23.066 -25.381   6.725  0.00  0.00    +0.156 HD
BRANCH  21  23
ATOM     23  C   LIG    1       24.769 -24.324   6.430  0.00  0.00    +0.125 A 
ATOM     24  N   LIG    1       24.424 -23.257   5.681  0.00  0.00    -0.238 NA
ATOM     25  C   LIG    1       25.200 -22.134   5.780  0.00  0.00    +0.136 A 
ATOM     26  C   LIG    1       26.324 -21.982   6.596  0.00  0.00    +0.048 A 
ATOM     27  C   LIG    1       26.652 -23.107   7.343  0.00  0.00    +0.028 A 
ATOM     28  C   LIG    1       25.893 -24.273   7.250  0.00  0.00    +0.045 A 
BRANCH  26  29
ATOM     29  N   LIG    1       27.139 -20.845   6.680  0.00  0.00    -0.326 N 
ATOM     30  C   LIG    1       27.505 -20.275   5.360  0.00  0.00    +0.120 C 
ATOM     31  C   LIG    1       28.283 -18.944   5.509  0.00  0.00    +0.100 C 
ATOM     32  N   LIG    1       29.428 -19.017   6.437  0.00  0.00    -0.313 NA
ATOM     33  H   LIG    1       30.078 -19.720   6.083  0.00  0.00    +0.122 HD
ATOM     34  C   LIG    1       28.922 -19.477   7.745  0.00  0.00    +0.100 C 
ATOM     35  C   LIG    1       28.228 -20.856   7.672  0.00  0.00    +0.120 C 
ENDBRANCH  26  29
ENDBRANCH  21  23
ENDBRANCH   9  21
TORSDOF 5
ENDMDL
MODEL 7
REMARK VINA RESULT:      -6.8      4.241      9.957
REMARK  Name = *****
REMARK                            x       y       z     vdW  Elec       q    Type
REMARK                         _______ _______ _______ _____ _____    ______ ____
ROOT
ATOM      1  C   LIG    1       23.986 -20.413   5.073  0.00  0.00    +0.085 C 
ATOM      2  C   LIG    1       25.413 -20.308   5.533  0.00  0.00    +0.264 C 
ATOM      3  O   LIG    1       26.015 -19.237   5.390  0.00  0.00    -0.267 OA
ATOM      4  N   LIG    1       26.026 -21.413   6.110  0.00  0.00    -0.289 N 
ATOM      5  C   LIG    1       25.337 -22.653   6.244  0.00  0.00    +0.149 A 
ATOM      6  C   LIG    1       24.018 -22.718   5.835  0.00  0.00    +0.040 A 
ATOM      7  C   LIG    1       23.475 -23.983   5.916  0.00  0.00    +0.126 A 
ATOM      8  N   LIG    1       24.134 -25.061   6.363  0.00  0.00    -0.222 NA
ATOM      9  C   LIG    1       25.393 -24.907   6.780  0.00  0.00    +0.222 A 
ATOM     10  N   LIG    1       26.010 -23.721   6.746  0.00  0.00    -0.196 NA
ATOM     11  C   LIG    1       23.286 -21.550   5.309  0.00  0.00    -0.023 C 
ATOM     12  C   LIG    1       21.804 -21.736   5.057  0.00  0.00    +0.045 C 
ENDROOT
BRANCH   4  13
ATOM     13  C   LIG    1       27.438 -21.316   6.521  0.00  0.00    +0.092 C 
ATOM     14  C   LIG    1       28.315 -20.373   5.687  0.00  0.00    +0.025 C 
ATOM     15  C   LIG    1       29.481 -20.054   6.613  0.00  0.00    +0.002 C 
ATOM     16  C   LIG    1       28.840 -19.941   7.989  0.00  0.00    +0.002 C 
ATOM     17  C   LIG    1       27.686 -20.942   7.995  0.00  0.00    +0.025 C 
ENDBRANCH   4  13
BRANCH   1  19
ATOM     18  C   LIG    1       22.298 -18.402   4.983  0.00  0.00    +0.091 C 
ATOM     19  C   LIG    1       23.331 -19.274   4.312  0.00  0.00    +0.166 C 
ATOM     20  O   LIG    1       23.681 -18.992   3.165  0.00  0.00    -0.292 OA
ENDBRANCH   1  19
BRANCH   9  21
ATOM     21  N   LIG    1       26.086 -25.997   7.295  0.00  0.00    -0.268 N 
ATOM     22  H   LIG    1       26.784 -25.741   7.973  0.00  0.00    +0.156 HD
BRANCH  21  23
ATOM     23  C   LIG    1       25.722 -27.342   7.333  0.00  0.00    +0.125 A 
ATOM     24  N   LIG    1       25.098 -27.854   6.252  0.00  0.00    -0.238 NA
ATOM     25  C   LIG    1       24.734 -29.173   6.294  0.00  0.00    +0.136 A 
ATOM     26  C   LIG    1       24.954 -30.052   7.359  0.00  0.00    +0.048 A 
ATOM     27  C   LIG    1       25.589 -29.484   8.456  0.00  0.00    +0.028 A 
ATOM     28  C   LIG    1       25.955 -28.138   8.451  0.00  0.00    +0.045 A 
BRANCH  26  29
ATOM     29  N   LIG    1       24.558 -31.395   7.419  0.00  0.00    -0.326 N 
ATOM     30  C   LIG    1       23.815 -31.852   6.219  0.00  0.00    +0.120 C 
ATOM     31  C   LIG    1       23.525 -33.372   6.270  0.00  0.00    +0.100 C 
ATOM     32  N   LIG    1       22.905 -33.824   7.532  0.00  0.00    -0.313 NA
ATOM     33  H   LIG    1       22.017 -33.333   7.642  0.00  0.00    +0.122 HD
ATOM     34  C   LIG    1       23.792 -33.421   8.641  0.00  0.00    +0.100 C 
ATOM     35  C   LIG    1       24.030 -31.895   8.700  0.00  0.00    +0.120 C 
ENDBRANCH  26  29
ENDBRANCH  21  23
ENDBRANCH   9  21
TORSDOF 5
ENDMDL
MODEL 8
REMARK VINA RESULT:      -6.5      1.870      3.948
REMARK  Name = *****
REMARK                            x       y       z     vdW  Elec       q    Type
REMARK                         _______ _______ _______ _____ _____    ______ ____
ROOT
ATOM      1  C   LIG    1       25.620 -31.897  12.592  0.00  0.00    +0.085 C 
ATOM      2  C   LIG    1       25.049 -32.640  11.416  0.00  0.00    +0.264 C 
ATOM      3  O   LIG    1       24.667 -33.806  11.570  0.00  0.00    -0.267 OA
ATOM      4  N   LIG    1       24.960 -32.002  10.186  0.00  0.00    -0.289 N 
ATOM      5  C   LIG    1       25.430 -30.669  10.009  0.00  0.00    +0.149 A 
ATOM      6  C   LIG    1       25.930 -29.999  11.110  0.00  0.00    +0.040 A 
ATOM      7  C   LIG    1       26.447 -28.756  10.813  0.00  0.00    +0.126 A 
ATOM      8  N   LIG    1       26.459 -28.215   9.587  0.00  0.00    -0.222 NA
ATOM      9  C   LIG    1       25.918 -28.909   8.582  0.00  0.00    +0.222 A 
ATOM     10  N   LIG    1       25.388 -30.123   8.767  0.00  0.00    -0.196 NA
ATOM     11  C   LIG    1       25.955 -30.589  12.462  0.00  0.00    -0.023 C 
ATOM     12  C   LIG    1       26.379 -29.676  13.593  0.00  0.00    +0.045 C 
ENDROOT
BRANCH   4  13
ATOM     13  C   LIG    1       24.437 -32.750   9.028  0.00  0.00    +0.092 C 
ATOM     14  C   LIG    1       23.365 -32.034   8.196  0.00  0.00    +0.025 C 
ATOM     15  C   LIG    1       23.423 -32.743   6.850  0.00  0.00    +0.002 C 
ATOM     16  C   LIG    1       24.906 -33.008   6.635  0.00  0.00    +0.002 C 
ATOM     17  C   LIG    1       25.490 -33.260   8.025  0.00  0.00    +0.025 C 
ENDBRANCH   4  13
BRANCH   1  19
ATOM     18  C   LIG    1       24.760 -32.706  14.939  0.00  0.00    +0.091 C 
ATOM     19  C   LIG    1       25.863 -32.605  13.913  0.00  0.00    +0.166 C 
ATOM     20  O   LIG    1       26.931 -33.174  14.142  0.00  0.00    -0.292 OA
ENDBRANCH   1  19
BRANCH   9  21
ATOM     21  N   LIG    1       25.872 -28.354   7.309  0.00  0.00    -0.268 N 
ATOM     22  H   LIG    1       25.828 -29.042   6.576  0.00  0.00    +0.156 HD
BRANCH  21  23
ATOM     23  C   LIG    1       25.489 -27.073   6.912  0.00  0.00    +0.125 A 
ATOM     24  N   LIG    1       26.287 -26.044   7.260  0.00  0.00    -0.238 NA
ATOM     25  C   LIG    1       25.905 -24.786   6.877  0.00  0.00    +0.136 A 
ATOM     26  C   LIG    1       24.757 -24.464   6.148  0.00  0.00    +0.048 A 
ATOM     27  C   LIG    1       23.957 -25.550   5.818  0.00  0.00    +0.028 A 
ATOM     28  C   LIG    1       24.309 -26.842   6.211  0.00  0.00    +0.045 A 
BRANCH  26  29
ATOM     29  N   LIG    1       24.346 -23.176   5.778  0.00  0.00    -0.326 N 
ATOM     30  C   LIG    1       25.446 -22.181   5.760  0.00  0.00    +0.120 C 
ATOM     31  C   LIG    1       24.971 -20.813   5.211  0.00  0.00    +0.100 C 
ATOM     32  N   LIG    1       23.746 -20.299   5.855  0.00  0.00    -0.313 NA
ATOM     33  H   LIG    1       23.936 -20.186   6.852  0.00  0.00    +0.122 HD
ATOM     34  C   LIG    1       22.691 -21.320   5.702  0.00  0.00    +0.100 C 
ATOM     35  C   LIG    1       23.073 -22.680   6.330  0.00  0.00    +0.120 C 
ENDBRANCH  26  29
ENDBRANCH  21  23
ENDBRANCH   9  21
TORSDOF 5
ENDMDL
MODEL 9
REMARK VINA RESULT:      -6.2      1.688      2.250
REMARK  Name = *****
REMARK                            x       y       z     vdW  Elec       q    Type
REMARK                         _______ _______ _______ _____ _____    ______ ____
ROOT
ATOM      1  C   LIG    1       21.903 -32.209  10.794  0.00  0.00    +0.085 C 
ATOM      2  C   LIG    1       22.558 -31.059  11.507  0.00  0.00    +0.264 C 
ATOM      3  O   LIG    1       22.289 -30.857  12.698  0.00  0.00    -0.267 OA
ATOM      4  N   LIG    1       23.454 -30.251  10.818  0.00  0.00    -0.289 N 
ATOM      5  C   LIG    1       23.737 -30.471   9.440  0.00  0.00    +0.149 A 
ATOM      6  C   LIG    1       23.140 -31.547   8.811  0.00  0.00    +0.040 A 
ATOM      7  C   LIG    1       23.401 -31.614   7.459  0.00  0.00    +0.126 A 
ATOM      8  N   LIG    1       24.173 -30.743   6.795  0.00  0.00    -0.222 NA
ATOM      9  C   LIG    1       24.749 -29.754   7.482  0.00  0.00    +0.222 A 
ATOM     10  N   LIG    1       24.562 -29.604   8.798  0.00  0.00    -0.196 NA
ATOM     11  C   LIG    1       22.260 -32.498   9.518  0.00  0.00    -0.023 C 
ATOM     12  C   LIG    1       21.813 -33.717   8.738  0.00  0.00    +0.045 C 
ENDROOT
BRANCH   4  13
ATOM     13  C   LIG    1       24.061 -29.101  11.513  0.00  0.00    +0.092 C 
ATOM     14  C   LIG    1       23.169 -28.390  12.539  0.00  0.00    +0.025 C 
ATOM     15  C   LIG    1       24.163 -27.669  13.440  0.00  0.00    +0.002 C 
ATOM     16  C   LIG    1       25.324 -28.645  13.565  0.00  0.00    +0.002 C 
ATOM     17  C   LIG    1       25.400 -29.376  12.225  0.00  0.00    +0.025 C 
ENDBRANCH   4  13
BRANCH   1  19
ATOM     18  C   LIG    1       21.125 -33.823  12.714  0.00  0.00    +0.091 C 
ATOM     19  C   LIG    1       20.816 -33.024  11.472  0.00  0.00    +0.166 C 
ATOM     20  O   LIG    1       19.652 -32.989  11.070  0.00  0.00    -0.292 OA
ENDBRANCH   1  19
BRANCH   9  21
ATOM     21  N   LIG    1       25.595 -28.864   6.830  0.00  0.00    -0.268 N 
ATOM     22  H   LIG    1       26.241 -29.315   6.203  0.00  0.00    +0.156 HD
BRANCH  21  23
ATOM     23  C   LIG    1       25.440 -27.497   6.601  0.00  0.00    +0.125 A 
ATOM     24  N   LIG    1       26.326 -26.660   7.178  0.00  0.00    -0.238 NA
ATOM     25  C   LIG    1       26.167 -25.318   6.960  0.00  0.00    +0.136 A 
ATOM     26  C   LIG    1       25.167 -24.726   6.184  0.00  0.00    +0.048 A 
ATOM     27  C   LIG    1       24.269 -25.621   5.616  0.00  0.00    +0.028 A 
ATOM     28  C   LIG    1       24.393 -26.992   5.835  0.00  0.00    +0.045 A 
BRANCH  26  29
ATOM     29  N   LIG    1       24.983 -23.351   5.981  0.00  0.00    -0.326 N 
ATOM     30  C   LIG    1       24.547 -22.621   7.196  0.00  0.00    +0.120 C 
ATOM     31  C   LIG    1       24.495 -21.092   6.957  0.00  0.00    +0.100 C 
ATOM     32  N   LIG    1       23.739 -20.697   5.752  0.00  0.00    -0.313 NA
ATOM     33  H   LIG    1       22.780 -21.029   5.857  0.00  0.00    +0.122 HD
ATOM     34  C   LIG    1       24.340 -21.388   4.594  0.00  0.00    +0.100 C 
ATOM     35  C   LIG    1       24.320 -22.927   4.735  0.00  0.00    +0.120 C 
ENDBRANCH  26  29
ENDBRANCH  21  23
ENDBRANCH   9  21
TORSDOF 5
ENDMDL
