MODEL 1
REMARK VINA RESULT:      -2.9      0.000      0.000
REMARK  Name = *****
REMARK                            x       y       z     vdW  Elec       q    Type
REMARK                         _______ _______ _______ _____ _____    ______ ____
ROOT
ATOM      1  C   LIG    1       21.560 -20.214   4.602  0.00  0.00    +0.150 C 
ATOM      2  N   LIG    1       22.758 -20.578   5.315  0.00  0.00    -0.328 N 
ATOM      3  C   LIG    1       24.020 -20.117   5.072  0.00  0.00    +0.151 A 
ATOM      4  C   LIG    1       24.522 -19.200   4.110  0.00  0.00    +0.282 C 
ATOM      5  N   LIG    1       25.902 -19.013   4.210  0.00  0.00    -0.262 N 
ATOM      6  C   LIG    1       26.751 -19.634   5.148  0.00  0.00    +0.333 C 
ATOM      7  N   LIG    1       26.163 -20.519   6.052  0.00  0.00    -0.280 N 
ATOM      8  C   LIG    1       26.978 -21.197   7.044  0.00  0.00    +0.155 C 
ATOM      9  O   LIG    1       27.962 -19.397   5.159  0.00  0.00    -0.246 OA
ATOM     10  C   LIG    1       26.539 -18.105   3.278  0.00  0.00    +0.157 C 
ATOM     11  O   LIG    1       23.801 -18.642   3.287  0.00  0.00    -0.265 OA
ATOM     12  C   LIG    1       24.808 -20.741   5.992  0.00  0.00    +0.168 A 
ATOM     13  N   LIG    1       24.086 -21.572   6.798  0.00  0.00    -0.218 NA
ATOM     14  C   LIG    1       22.846 -21.454   6.365  0.00  0.00    +0.202 A 
ENDROOT
TORSDOF 0
ENDMDL
MODEL 2
REMARK VINA RESULT:      -2.7      1.600      3.047
REMARK  Name = *****
REMARK                            x       y       z     vdW  Elec       q    Type
REMARK                         _______ _______ _______ _____ _____    ______ ____
ROOT
ATOM      1  C   LIG    1       22.702 -21.569   5.960  0.00  0.00    +0.150 C 
ATOM      2  N   LIG    1       23.392 -20.576   5.175  0.00  0.00    -0.328 N 
ATOM      3  C   LIG    1       24.708 -20.228   5.280  0.00  0.00    +0.151 A 
ATOM      4  C   LIG    1       25.743 -20.695   6.133  0.00  0.00    +0.282 C 
ATOM      5  N   LIG    1       26.962 -20.053   5.906  0.00  0.00    -0.262 N 
ATOM      6  C   LIG    1       27.197 -19.050   4.943  0.00  0.00    +0.333 C 
ATOM      7  N   LIG    1       26.116 -18.659   4.152  0.00  0.00    -0.280 N 
ATOM      8  C   LIG    1       26.285 -17.629   3.143  0.00  0.00    +0.155 C 
ATOM      9  O   LIG    1       28.316 -18.546   4.815  0.00  0.00    -0.246 OA
ATOM     10  C   LIG    1       28.099 -20.434   6.718  0.00  0.00    +0.157 C 
ATOM     11  O   LIG    1       25.565 -21.572   6.975  0.00  0.00    -0.265 OA
ATOM     12  C   LIG    1       24.893 -19.258   4.341  0.00  0.00    +0.168 A 
ATOM     13  N   LIG    1       23.745 -18.990   3.656  0.00  0.00    -0.218 NA
ATOM     14  C   LIG    1       22.851 -19.803   4.183  0.00  0.00    +0.202 A 
ENDROOT
TORSDOF 0
ENDMDL
MODEL 3
REMARK VINA RESULT:      -2.4      1.768      4.783
REMARK  Name = *****
REMARK                            x       y       z     vdW  Elec       q    Type
REMARK                         _______ _______ _______ _____ _____    ______ ____
ROOT
ATOM      1  C   LIG    1       28.971 -20.724   6.775  0.00  0.00    +0.150 C 
ATOM      2  N   LIG    1       28.451 -19.713   5.889  0.00  0.00    -0.328 N 
ATOM      3  C   LIG    1       27.199 -19.676   5.344  0.00  0.00    +0.151 A 
ATOM      4  C   LIG    1       26.090 -20.555   5.466  0.00  0.00    +0.282 C 
ATOM      5  N   LIG    1       24.984 -20.138   4.723  0.00  0.00    -0.262 N 
ATOM      6  C   LIG    1       24.918 -18.974   3.930  0.00  0.00    +0.333 C 
ATOM      7  N   LIG    1       26.059 -18.174   3.874  0.00  0.00    -0.280 N 
ATOM      8  C   LIG    1       26.064 -16.963   3.074  0.00  0.00    +0.155 C 
ATOM      9  O   LIG    1       23.889 -18.687   3.313  0.00  0.00    -0.246 OA
ATOM     10  C   LIG    1       23.788 -20.955   4.756  0.00  0.00    +0.157 C 
ATOM     11  O   LIG    1       26.122 -21.572   6.156  0.00  0.00    -0.265 OA
ATOM     12  C   LIG    1       27.177 -18.545   4.584  0.00  0.00    +0.168 A 
ATOM     13  N   LIG    1       28.364 -17.877   4.635  0.00  0.00    -0.218 NA
ATOM     14  C   LIG    1       29.119 -18.608   5.432  0.00  0.00    +0.202 A 
ENDROOT
TORSDOF 0
ENDMDL
MODEL 4
REMARK VINA RESULT:      -0.8      4.137      5.744
REMARK  Name = *****
REMARK                            x       y       z     vdW  Elec       q    Type
REMARK                         _______ _______ _______ _____ _____    ______ ____
ROOT
ATOM      1  C   LIG    1       23.630 -18.102   3.742  0.00  0.00    +0.150 C 
ATOM      2  N   LIG    1       24.836 -17.322   3.625  0.00  0.00    -0.328 N 
ATOM      3  C   LIG    1       24.955 -15.975   3.816  0.00  0.00    +0.151 A 
ATOM      4  C   LIG    1       24.001 -14.983   4.166  0.00  0.00    +0.282 C 
ATOM      5  N   LIG    1       24.556 -13.705   4.254  0.00  0.00    -0.262 N 
ATOM      6  C   LIG    1       25.910 -13.380   4.038  0.00  0.00    +0.333 C 
ATOM      7  N   LIG    1       26.771 -14.424   3.698  0.00  0.00    -0.280 N 
ATOM      8  C   LIG    1       28.178 -14.162   3.457  0.00  0.00    +0.155 C 
ATOM      9  O   LIG    1       26.306 -12.217   4.145  0.00  0.00    -0.246 OA
ATOM     10  C   LIG    1       23.683 -12.601   4.597  0.00  0.00    +0.157 C 
ATOM     11  O   LIG    1       22.816 -15.243   4.366  0.00  0.00    -0.265 OA
ATOM     12  C   LIG    1       26.271 -15.701   3.594  0.00  0.00    +0.168 A 
ATOM     13  N   LIG    1       26.976 -16.823   3.273  0.00  0.00    -0.218 NA
ATOM     14  C   LIG    1       26.081 -17.792   3.298  0.00  0.00    +0.202 A 
ENDROOT
TORSDOF 0
ENDMDL
MODEL 5
REMARK VINA RESULT:      -0.8      3.482      5.817
REMARK  Name = *****
REMARK                            x       y       z     vdW  Elec       q    Type
REMARK                         _______ _______ _______ _____ _____    ______ ____
ROOT
ATOM      1  C   LIG    1       27.213 -14.080   3.020  0.00  0.00    +0.150 C 
ATOM      2  N   LIG    1       25.885 -14.356   3.507  0.00  0.00    -0.328 N 
ATOM      3  C   LIG    1       25.308 -15.587   3.639  0.00  0.00    +0.151 A 
ATOM      4  C   LIG    1       25.793 -16.892   3.359  0.00  0.00    +0.282 C 
ATOM      5  N   LIG    1       24.857 -17.889   3.639  0.00  0.00    -0.262 N 
ATOM      6  C   LIG    1       23.561 -17.679   4.154  0.00  0.00    +0.333 C 
ATOM      7  N   LIG    1       23.176 -16.360   4.396  0.00  0.00    -0.280 N 
ATOM      8  C   LIG    1       21.855 -16.070   4.922  0.00  0.00    +0.155 C 
ATOM      9  O   LIG    1       22.806 -18.630   4.374  0.00  0.00    -0.246 OA
ATOM     10  C   LIG    1       25.227 -19.267   3.389  0.00  0.00    +0.157 C 
ATOM     11  O   LIG    1       26.920 -17.101   2.916  0.00  0.00    -0.265 OA
ATOM     12  C   LIG    1       24.061 -15.342   4.132  0.00  0.00    +0.168 A 
ATOM     13  N   LIG    1       23.840 -14.009   4.312  0.00  0.00    -0.218 NA
ATOM     14  C   LIG    1       24.963 -13.434   3.924  0.00  0.00    +0.202 A 
ENDROOT
TORSDOF 0
ENDMDL
MODEL 6
REMARK VINA RESULT:      -0.6      2.251      3.625
REMARK  Name = *****
REMARK                            x       y       z     vdW  Elec       q    Type
REMARK                         _______ _______ _______ _____ _____    ______ ____
ROOT
ATOM      1  C   LIG    1       26.215 -16.480   2.902  0.00  0.00    +0.150 C 
ATOM      2  N   LIG    1       25.712 -17.681   3.519  0.00  0.00    -0.328 N 
ATOM      3  C   LIG    1       26.398 -18.512   4.359  0.00  0.00    +0.151 A 
ATOM      4  C   LIG    1       27.728 -18.464   4.856  0.00  0.00    +0.282 C 
ATOM      5  N   LIG    1       28.030 -19.535   5.699  0.00  0.00    -0.262 N 
ATOM      6  C   LIG    1       27.146 -20.573   6.058  0.00  0.00    +0.333 C 
ATOM      7  N   LIG    1       25.861 -20.533   5.518  0.00  0.00    -0.280 N 
ATOM      8  C   LIG    1       24.900 -21.572   5.841  0.00  0.00    +0.155 C 
ATOM      9  O   LIG    1       27.507 -21.476   6.818  0.00  0.00    -0.246 OA
ATOM     10  C   LIG    1       29.360 -19.606   6.267  0.00  0.00    +0.157 C 
ATOM     11  O   LIG    1       28.514 -17.566   4.562  0.00  0.00    -0.265 OA
ATOM     12  C   LIG    1       25.516 -19.500   4.678  0.00  0.00    +0.168 A 
ATOM     13  N   LIG    1       24.309 -19.317   4.071  0.00  0.00    -0.218 NA
ATOM     14  C   LIG    1       24.456 -18.207   3.374  0.00  0.00    +0.202 A 
ENDROOT
TORSDOF 0
ENDMDL
MODEL 7
REMARK VINA RESULT:      -0.4      3.047      5.140
REMARK  Name = *****
REMARK                            x       y       z     vdW  Elec       q    Type
REMARK                         _______ _______ _______ _____ _____    ______ ____
ROOT
ATOM      1  C   LIG    1       25.155 -13.555   3.982  0.00  0.00    +0.150 C 
ATOM      2  N   LIG    1       25.586 -14.909   3.740  0.00  0.00    -0.328 N 
ATOM      3  C   LIG    1       24.821 -16.036   3.840  0.00  0.00    +0.151 A 
ATOM      4  C   LIG    1       23.457 -16.223   4.190  0.00  0.00    +0.282 C 
ATOM      5  N   LIG    1       23.073 -17.565   4.172  0.00  0.00    -0.262 N 
ATOM      6  C   LIG    1       23.905 -18.654   3.843  0.00  0.00    +0.333 C 
ATOM      7  N   LIG    1       25.230 -18.369   3.513  0.00  0.00    -0.280 N 
ATOM      8  C   LIG    1       26.144 -19.442   3.167  0.00  0.00    +0.155 C 
ATOM      9  O   LIG    1       23.469 -19.809   3.851  0.00  0.00    -0.246 OA
ATOM     10  C   LIG    1       21.705 -17.891   4.519  0.00  0.00    +0.157 C 
ATOM     11  O   LIG    1       22.710 -15.289   4.474  0.00  0.00    -0.265 OA
ATOM     12  C   LIG    1       25.658 -17.062   3.520  0.00  0.00    +0.168 A 
ATOM     13  N   LIG    1       26.913 -16.619   3.224  0.00  0.00    -0.218 NA
ATOM     14  C   LIG    1       26.841 -15.309   3.366  0.00  0.00    +0.202 A 
ENDROOT
TORSDOF 0
ENDMDL
MODEL 8
REMARK VINA RESULT:      -0.3      2.962      4.296
REMARK  Name = *****
REMARK                            x       y       z     vdW  Elec       q    Type
REMARK                         _______ _______ _______ _____ _____    ______ ____
ROOT
ATOM      1  C   LIG    1       24.946 -20.424   3.298  0.00  0.00    +0.150 C 
ATOM      2  N   LIG    1       24.051 -19.424   3.824  0.00  0.00    -0.328 N 
ATOM      3  C   LIG    1       24.263 -18.076   3.850  0.00  0.00    +0.151 A 
ATOM      4  C   LIG    1       25.353 -17.283   3.401  0.00  0.00    +0.282 C 
ATOM      5  N   LIG    1       25.161 -15.919   3.629  0.00  0.00    -0.262 N 
ATOM      6  C   LIG    1       24.025 -15.338   4.227  0.00  0.00    +0.333 C 
ATOM      7  N   LIG    1       23.006 -16.200   4.635  0.00  0.00    -0.280 N 
ATOM      8  C   LIG    1       21.809 -15.670   5.262  0.00  0.00    +0.155 C 
ATOM      9  O   LIG    1       23.945 -14.116   4.380  0.00  0.00    -0.246 OA
ATOM     10  C   LIG    1       26.206 -15.002   3.223  0.00  0.00    +0.157 C 
ATOM     11  O   LIG    1       26.351 -17.766   2.871  0.00  0.00    -0.265 OA
ATOM     12  C   LIG    1       23.150 -17.553   4.437  0.00  0.00    +0.168 A 
ATOM     13  N   LIG    1       22.254 -18.522   4.777  0.00  0.00    -0.218 NA
ATOM     14  C   LIG    1       22.825 -19.647   4.394  0.00  0.00    +0.202 A 
ENDROOT
TORSDOF 0
ENDMDL
MODEL 9
REMARK VINA RESULT:      -0.0      4.394      5.802
REMARK  Name = *****
REMARK                            x       y       z     vdW  Elec       q    Type
REMARK                         _______ _______ _______ _____ _____    ______ ____
ROOT
ATOM      1  C   LIG    1       24.257 -18.367   3.739  0.00  0.00    +0.150 C 
ATOM      2  N   LIG    1       23.932 -16.987   3.996  0.00  0.00    -0.328 N 
ATOM      3  C   LIG    1       24.771 -15.917   3.871  0.00  0.00    +0.151 A 
ATOM      4  C   LIG    1       26.133 -15.827   3.476  0.00  0.00    +0.282 C 
ATOM      5  N   LIG    1       26.615 -14.517   3.490  0.00  0.00    -0.262 N 
ATOM      6  C   LIG    1       25.872 -13.371   3.841  0.00  0.00    +0.333 C 
ATOM      7  N   LIG    1       24.542 -13.562   4.215  0.00  0.00    -0.280 N 
ATOM      8  C   LIG    1       23.719 -12.428   4.592  0.00  0.00    +0.155 C 
ATOM      9  O   LIG    1       26.388 -12.250   3.816  0.00  0.00    -0.246 OA
ATOM     10  C   LIG    1       27.995 -14.290   3.113  0.00  0.00    +0.157 C 
ATOM     11  O   LIG    1       26.799 -16.810   3.159  0.00  0.00    -0.265 OA
ATOM     12  C   LIG    1       24.021 -14.835   4.222  0.00  0.00    +0.168 A 
ATOM     13  N   LIG    1       22.749 -15.188   4.560  0.00  0.00    -0.218 NA
ATOM     14  C   LIG    1       22.722 -16.499   4.415  0.00  0.00    +0.202 A 
ENDROOT
TORSDOF 0
ENDMDL
