MODEL 1
REMARK VINA RESULT:      -4.6      0.000      0.000
REMARK  Name = *****
REMARK                            x       y       z     vdW  Elec       q    Type
REMARK                         _______ _______ _______ _____ _____    ______ ____
ROOT
ATOM      1  C   LIG    1       24.591 -11.531   1.812  0.00  0.00    +0.070 C 
ATOM      2  C   LIG    1       25.091 -12.572   2.800  0.00  0.00    +0.253 C 
ATOM      3  O   LIG    1       26.058 -13.371   2.140  0.00  0.00    -0.323 OA
ATOM      4  C   LIG    1       26.474 -14.461   2.947  0.00  0.00    +0.253 C 
ATOM      5  C   LIG    1       27.463 -14.043   4.031  0.00  0.00    +0.070 C 
ATOM      6  O   LIG    1       25.382 -15.206   3.463  0.00  0.00    -0.323 OA
ATOM      7  C   LIG    1       24.430 -14.368   4.095  0.00  0.00    +0.253 C 
ATOM      8  C   LIG    1       23.232 -15.224   4.473  0.00  0.00    +0.070 C 
ATOM      9  O   LIG    1       23.982 -13.347   3.221  0.00  0.00    -0.323 OA
ENDROOT
TORSDOF 0
ENDMDL
MODEL 2
REMARK VINA RESULT:      -4.5      0.867      2.736
REMARK  Name = *****
REMARK                            x       y       z     vdW  Elec       q    Type
REMARK                         _______ _______ _______ _____ _____    ______ ____
ROOT
ATOM      1  C   LIG    1       24.248 -11.449   1.812  0.00  0.00    +0.070 C 
ATOM      2  C   LIG    1       24.537 -12.737   2.566  0.00  0.00    +0.253 C 
ATOM      3  O   LIG    1       23.943 -12.635   3.849  0.00  0.00    -0.323 OA
ATOM      4  C   LIG    1       24.287 -13.738   4.672  0.00  0.00    +0.253 C 
ATOM      5  C   LIG    1       23.490 -14.994   4.331  0.00  0.00    +0.070 C 
ATOM      6  O   LIG    1       25.685 -13.973   4.714  0.00  0.00    -0.323 OA
ATOM      7  C   LIG    1       26.242 -14.047   3.414  0.00  0.00    +0.253 C 
ATOM      8  C   LIG    1       27.752 -14.141   3.556  0.00  0.00    +0.070 C 
ATOM      9  O   LIG    1       25.943 -12.885   2.659  0.00  0.00    -0.323 OA
ENDROOT
TORSDOF 0
ENDMDL
MODEL 3
REMARK VINA RESULT:      -4.4      5.815      6.707
REMARK  Name = *****
REMARK                            x       y       z     vdW  Elec       q    Type
REMARK                         _______ _______ _______ _____ _____    ______ ____
ROOT
ATOM      1  C   LIG    1       21.756 -18.158   4.056  0.00  0.00    +0.070 C 
ATOM      2  C   LIG    1       22.971 -18.903   4.583  0.00  0.00    +0.253 C 
ATOM      3  O   LIG    1       23.570 -19.586   3.495  0.00  0.00    -0.323 OA
ATOM      4  C   LIG    1       24.631 -20.424   3.924  0.00  0.00    +0.253 C 
ATOM      5  C   LIG    1       25.908 -19.645   4.224  0.00  0.00    +0.070 C 
ATOM      6  O   LIG    1       24.252 -21.281   4.989  0.00  0.00    -0.323 OA
ATOM      7  C   LIG    1       23.639 -20.563   6.045  0.00  0.00    +0.253 C 
ATOM      8  C   LIG    1       23.128 -21.572   7.062  0.00  0.00    +0.070 C 
ATOM      9  O   LIG    1       22.533 -19.808   5.581  0.00  0.00    -0.323 OA
ENDROOT
TORSDOF 0
ENDMDL
MODEL 4
REMARK VINA RESULT:      -4.3      1.637      1.970
REMARK  Name = *****
REMARK                            x       y       z     vdW  Elec       q    Type
REMARK                         _______ _______ _______ _____ _____    ______ ____
ROOT
ATOM      1  C   LIG    1       23.933 -12.707   3.941  0.00  0.00    +0.070 C 
ATOM      2  C   LIG    1       25.253 -13.459   3.912  0.00  0.00    +0.253 C 
ATOM      3  O   LIG    1       26.046 -12.910   2.875  0.00  0.00    -0.323 OA
ATOM      4  C   LIG    1       27.242 -13.650   2.684  0.00  0.00    +0.253 C 
ATOM      5  C   LIG    1       28.296 -13.342   3.743  0.00  0.00    +0.070 C 
ATOM      6  O   LIG    1       27.005 -15.041   2.537  0.00  0.00    -0.323 OA
ATOM      7  C   LIG    1       26.191 -15.545   3.582  0.00  0.00    +0.253 C 
ATOM      8  C   LIG    1       25.863 -16.994   3.260  0.00  0.00    +0.070 C 
ATOM      9  O   LIG    1       24.973 -14.829   3.678  0.00  0.00    -0.323 OA
ENDROOT
TORSDOF 0
ENDMDL
MODEL 5
REMARK VINA RESULT:      -4.2      0.751      3.270
REMARK  Name = *****
REMARK                            x       y       z     vdW  Elec       q    Type
REMARK                         _______ _______ _______ _____ _____    ______ ____
ROOT
ATOM      1  C   LIG    1       23.249 -14.981   4.693  0.00  0.00    +0.070 C 
ATOM      2  C   LIG    1       24.135 -13.934   4.038  0.00  0.00    +0.253 C 
ATOM      3  O   LIG    1       23.713 -13.782   2.694  0.00  0.00    -0.323 OA
ATOM      4  C   LIG    1       24.580 -12.926   1.967  0.00  0.00    +0.253 C 
ATOM      5  C   LIG    1       24.341 -11.451   2.277  0.00  0.00    +0.070 C 
ATOM      6  O   LIG    1       25.943 -13.297   2.092  0.00  0.00    -0.323 OA
ATOM      7  C   LIG    1       26.319 -13.459   3.449  0.00  0.00    +0.253 C 
ATOM      8  C   LIG    1       27.737 -14.004   3.480  0.00  0.00    +0.070 C 
ATOM      9  O   LIG    1       25.476 -14.387   4.110  0.00  0.00    -0.323 OA
ENDROOT
TORSDOF 0
ENDMDL
MODEL 6
REMARK VINA RESULT:      -4.2      1.573      3.025
REMARK  Name = *****
REMARK                            x       y       z     vdW  Elec       q    Type
REMARK                         _______ _______ _______ _____ _____    ______ ____
ROOT
ATOM      1  C   LIG    1       28.595 -13.069   3.896  0.00  0.00    +0.070 C 
ATOM      2  C   LIG    1       27.264 -13.625   3.418  0.00  0.00    +0.253 C 
ATOM      3  O   LIG    1       26.244 -13.082   4.239  0.00  0.00    -0.323 OA
ATOM      4  C   LIG    1       24.980 -13.661   3.953  0.00  0.00    +0.253 C 
ATOM      5  C   LIG    1       24.351 -13.095   2.683  0.00  0.00    +0.070 C 
ATOM      6  O   LIG    1       25.016 -15.079   3.960  0.00  0.00    -0.323 OA
ATOM      7  C   LIG    1       26.061 -15.579   3.145  0.00  0.00    +0.253 C 
ATOM      8  C   LIG    1       26.122 -17.086   3.336  0.00  0.00    +0.070 C 
ATOM      9  O   LIG    1       27.314 -15.037   3.524  0.00  0.00    -0.323 OA
ENDROOT
TORSDOF 0
ENDMDL
MODEL 7
REMARK VINA RESULT:      -4.2      5.971      7.372
REMARK  Name = *****
REMARK                            x       y       z     vdW  Elec       q    Type
REMARK                         _______ _______ _______ _____ _____    ______ ____
ROOT
ATOM      1  C   LIG    1       26.085 -20.000   4.140  0.00  0.00    +0.070 C 
ATOM      2  C   LIG    1       24.784 -20.072   4.923  0.00  0.00    +0.253 C 
ATOM      3  O   LIG    1       24.363 -21.425   4.948  0.00  0.00    -0.323 OA
ATOM      4  C   LIG    1       23.080 -21.561   5.538  0.00  0.00    +0.253 C 
ATOM      5  C   LIG    1       23.123 -21.478   7.061  0.00  0.00    +0.070 C 
ATOM      6  O   LIG    1       22.122 -20.683   4.970  0.00  0.00    -0.323 OA
ATOM      7  C   LIG    1       22.590 -19.346   4.944  0.00  0.00    +0.253 C 
ATOM      8  C   LIG    1       21.574 -18.509   4.182  0.00  0.00    +0.070 C 
ATOM      9  O   LIG    1       23.833 -19.248   4.271  0.00  0.00    -0.323 OA
ENDROOT
TORSDOF 0
ENDMDL
MODEL 8
REMARK VINA RESULT:      -4.2      5.498      7.222
REMARK  Name = *****
REMARK                            x       y       z     vdW  Elec       q    Type
REMARK                         _______ _______ _______ _____ _____    ______ ____
ROOT
ATOM      1  C   LIG    1       23.165 -21.524   7.062  0.00  0.00    +0.070 C 
ATOM      2  C   LIG    1       23.212 -20.916   5.670  0.00  0.00    +0.253 C 
ATOM      3  O   LIG    1       24.572 -20.811   5.285  0.00  0.00    -0.323 OA
ATOM      4  C   LIG    1       24.715 -20.120   4.054  0.00  0.00    +0.253 C 
ATOM      5  C   LIG    1       24.373 -20.992   2.850  0.00  0.00    +0.070 C 
ATOM      6  O   LIG    1       24.028 -18.879   4.042  0.00  0.00    -0.323 OA
ATOM      7  C   LIG    1       22.679 -19.025   4.453  0.00  0.00    +0.253 C 
ATOM      8  C   LIG    1       22.071 -17.635   4.560  0.00  0.00    +0.070 C 
ATOM      9  O   LIG    1       22.592 -19.643   5.725  0.00  0.00    -0.323 OA
ENDROOT
TORSDOF 0
ENDMDL
MODEL 9
REMARK VINA RESULT:      -4.1      1.817      2.991
REMARK  Name = *****
REMARK                            x       y       z     vdW  Elec       q    Type
REMARK                         _______ _______ _______ _____ _____    ______ ____
ROOT
ATOM      1  C   LIG    1       26.210 -16.974   3.248  0.00  0.00    +0.070 C 
ATOM      2  C   LIG    1       26.435 -15.474   3.355  0.00  0.00    +0.253 C 
ATOM      3  O   LIG    1       27.420 -15.250   4.349  0.00  0.00    -0.323 OA
ATOM      4  C   LIG    1       27.589 -13.867   4.615  0.00  0.00    +0.253 C 
ATOM      5  C   LIG    1       28.414 -13.160   3.544  0.00  0.00    +0.070 C 
ATOM      6  O   LIG    1       26.360 -13.209   4.879  0.00  0.00    -0.323 OA
ATOM      7  C   LIG    1       25.397 -13.476   3.875  0.00  0.00    +0.253 C 
ATOM      8  C   LIG    1       24.077 -12.865   4.318  0.00  0.00    +0.070 C 
ATOM      9  O   LIG    1       25.203 -14.869   3.705  0.00  0.00    -0.323 OA
ENDROOT
TORSDOF 0
ENDMDL
