MODEL 1
REMARK VINA RESULT:      -7.0      0.000      0.000
REMARK  Name = *****
REMARK                            x       y       z     vdW  Elec       q    Type
REMARK                         _______ _______ _______ _____ _____    ______ ____
ROOT
ATOM      1  C   LIG    1       31.094 -20.678   8.542  0.00  0.00    +0.225 C 
ATOM      2  N   LIG    1       30.135 -20.665   7.581  0.00  0.00    -0.287 N 
ATOM      3  H   LIG    1       29.628 -21.511   7.342  0.00  0.00    +0.172 HD
ATOM      4  C   LIG    1       29.843 -19.517   6.930  0.00  0.00    +0.330 C 
ATOM      5  O   LIG    1       28.984 -19.460   6.057  0.00  0.00    -0.247 OA
ATOM      6  N   LIG    1       30.566 -18.435   7.310  0.00  0.00    -0.259 N 
ATOM      7  H   LIG    1       30.389 -17.553   6.857  0.00  0.00    +0.175 HD
ATOM      8  C   LIG    1       31.528 -18.463   8.276  0.00  0.00    +0.352 C 
ATOM      9  O   LIG    1       32.135 -17.436   8.556  0.00  0.00    -0.244 OA
ATOM     10  N   LIG    1       31.785 -19.651   8.908  0.00  0.00    -0.168 NA
ENDROOT
BRANCH   1  12
ATOM     11  O   LIG    1       30.772 -22.336  10.238  0.00  0.00    -0.242 OA
ATOM     12  C   LIG    1       31.342 -22.022   9.211  0.00  0.00    +0.373 C 
BRANCH  12  13
ATOM     13  O   LIG    1       32.233 -22.753   8.527  0.00  0.00    -0.475 OA
ATOM     14  H   LIG    1       32.625 -22.210   7.803  0.00  0.00    +0.295 HD
ENDBRANCH  12  13
ENDBRANCH   1  12
TORSDOF 2
ENDMDL
MODEL 2
REMARK VINA RESULT:      -6.9      1.028      3.383
REMARK  Name = *****
REMARK                            x       y       z     vdW  Elec       q    Type
REMARK                         _______ _______ _______ _____ _____    ______ ____
ROOT
ATOM      1  C   LIG    1       31.404 -19.244   8.825  0.00  0.00    +0.225 C 
ATOM      2  N   LIG    1       30.471 -19.109   7.848  0.00  0.00    -0.287 N 
ATOM      3  H   LIG    1       30.236 -18.194   7.477  0.00  0.00    +0.172 HD
ATOM      4  C   LIG    1       29.840 -20.200   7.357  0.00  0.00    +0.330 C 
ATOM      5  O   LIG    1       28.992 -20.123   6.476  0.00  0.00    -0.247 OA
ATOM      6  N   LIG    1       30.211 -21.381   7.907  0.00  0.00    -0.259 N 
ATOM      7  H   LIG    1       29.773 -22.225   7.579  0.00  0.00    +0.175 HD
ATOM      8  C   LIG    1       31.151 -21.502   8.890  0.00  0.00    +0.352 C 
ATOM      9  O   LIG    1       31.424 -22.611   9.331  0.00  0.00    -0.244 OA
ATOM     10  N   LIG    1       31.762 -20.367   9.353  0.00  0.00    -0.168 NA
ENDROOT
BRANCH   1  12
ATOM     11  O   LIG    1       32.315 -17.771  10.478  0.00  0.00    -0.242 OA
ATOM     12  C   LIG    1       32.051 -17.953   9.305  0.00  0.00    +0.373 C 
BRANCH  12  13
ATOM     13  O   LIG    1       32.266 -17.106   8.289  0.00  0.00    -0.475 OA
ATOM     14  H   LIG    1       31.557 -16.420   8.271  0.00  0.00    +0.295 HD
ENDBRANCH  12  13
ENDBRANCH   1  12
TORSDOF 2
ENDMDL
MODEL 3
REMARK VINA RESULT:      -6.6      0.264      2.398
REMARK  Name = *****
REMARK                            x       y       z     vdW  Elec       q    Type
REMARK                         _______ _______ _______ _____ _____    ______ ____
ROOT
ATOM      1  C   LIG    1       30.876 -20.731   8.477  0.00  0.00    +0.225 C 
ATOM      2  N   LIG    1       31.657 -19.647   8.719  0.00  0.00    -0.287 N 
ATOM      3  H   LIG    1       32.452 -19.709   9.346  0.00  0.00    +0.172 HD
ATOM      4  C   LIG    1       31.379 -18.465   8.124  0.00  0.00    +0.330 C 
ATOM      5  O   LIG    1       32.058 -17.462   8.314  0.00  0.00    -0.247 OA
ATOM      6  N   LIG    1       30.301 -18.468   7.303  0.00  0.00    -0.259 N 
ATOM      7  H   LIG    1       30.049 -17.614   6.834  0.00  0.00    +0.175 HD
ATOM      8  C   LIG    1       29.525 -19.566   7.070  0.00  0.00    +0.352 C 
ATOM      9  O   LIG    1       28.566 -19.478   6.313  0.00  0.00    -0.244 OA
ATOM     10  N   LIG    1       29.848 -20.740   7.696  0.00  0.00    -0.168 NA
ENDROOT
BRANCH   1  12
ATOM     11  O   LIG    1       30.766 -22.332  10.253  0.00  0.00    -0.242 OA
ATOM     12  C   LIG    1       31.278 -22.009   9.198  0.00  0.00    +0.373 C 
BRANCH  12  13
ATOM     13  O   LIG    1       32.228 -22.674   8.526  0.00  0.00    -0.475 OA
ATOM     14  H   LIG    1       32.548 -22.126   7.771  0.00  0.00    +0.295 HD
ENDBRANCH  12  13
ENDBRANCH   1  12
TORSDOF 2
ENDMDL
MODEL 4
REMARK VINA RESULT:      -6.6      1.207      3.856
REMARK  Name = *****
REMARK                            x       y       z     vdW  Elec       q    Type
REMARK                         _______ _______ _______ _____ _____    ______ ____
ROOT
ATOM      1  C   LIG    1       31.743 -18.350   8.791  0.00  0.00    +0.225 C 
ATOM      2  N   LIG    1       31.689 -19.528   9.464  0.00  0.00    -0.287 N 
ATOM      3  H   LIG    1       32.083 -19.613  10.395  0.00  0.00    +0.172 HD
ATOM      4  C   LIG    1       31.105 -20.607   8.895  0.00  0.00    +0.330 C 
ATOM      5  O   LIG    1       31.034 -21.689   9.467  0.00  0.00    -0.247 OA
ATOM      6  N   LIG    1       30.605 -20.408   7.652  0.00  0.00    -0.259 N 
ATOM      7  H   LIG    1       30.159 -21.179   7.182  0.00  0.00    +0.175 HD
ATOM      8  C   LIG    1       30.668 -19.218   6.987  0.00  0.00    +0.352 C 
ATOM      9  O   LIG    1       30.190 -19.127   5.863  0.00  0.00    -0.244 OA
ATOM     10  N   LIG    1       31.268 -18.154   7.607  0.00  0.00    -0.168 NA
ENDROOT
BRANCH   1  12
ATOM     11  O   LIG    1       32.733 -17.289  10.696  0.00  0.00    -0.242 OA
ATOM     12  C   LIG    1       32.422 -17.201   9.523  0.00  0.00    +0.373 C 
BRANCH  12  13
ATOM     13  O   LIG    1       32.605 -16.146   8.717  0.00  0.00    -0.475 OA
ATOM     14  H   LIG    1       31.765 -15.634   8.641  0.00  0.00    +0.295 HD
ENDBRANCH  12  13
ENDBRANCH   1  12
TORSDOF 2
ENDMDL
MODEL 5
REMARK VINA RESULT:      -6.3      1.249      3.315
REMARK  Name = *****
REMARK                            x       y       z     vdW  Elec       q    Type
REMARK                         _______ _______ _______ _____ _____    ______ ____
ROOT
ATOM      1  C   LIG    1       29.665 -20.344   7.383  0.00  0.00    +0.225 C 
ATOM      2  N   LIG    1       30.235 -21.338   8.112  0.00  0.00    -0.287 N 
ATOM      3  H   LIG    1       29.840 -22.272   8.115  0.00  0.00    +0.172 HD
ATOM      4  C   LIG    1       31.343 -21.089   8.848  0.00  0.00    +0.330 C 
ATOM      5  O   LIG    1       31.889 -21.956   9.520  0.00  0.00    -0.247 OA
ATOM      6  N   LIG    1       31.804 -19.817   8.788  0.00  0.00    -0.259 N 
ATOM      7  H   LIG    1       32.627 -19.576   9.317  0.00  0.00    +0.175 HD
ATOM      8  C   LIG    1       31.220 -18.828   8.051  0.00  0.00    +0.352 C 
ATOM      9  O   LIG    1       31.705 -17.703   8.056  0.00  0.00    -0.244 OA
ATOM     10  N   LIG    1       30.101 -19.131   7.323  0.00  0.00    -0.168 NA
ENDROOT
BRANCH   1  12
ATOM     11  O   LIG    1       27.613 -21.527   7.032  0.00  0.00    -0.242 OA
ATOM     12  C   LIG    1       28.424 -20.733   6.593  0.00  0.00    +0.373 C 
BRANCH  12  13
ATOM     13  O   LIG    1       28.375 -20.100   5.413  0.00  0.00    -0.475 OA
ATOM     14  H   LIG    1       29.288 -19.863   5.124  0.00  0.00    +0.295 HD
ENDBRANCH  12  13
ENDBRANCH   1  12
TORSDOF 2
ENDMDL
MODEL 6
REMARK VINA RESULT:      -6.3      1.451      3.688
REMARK  Name = *****
REMARK                            x       y       z     vdW  Elec       q    Type
REMARK                         _______ _______ _______ _____ _____    ______ ____
ROOT
ATOM      1  C   LIG    1       29.401 -20.228   7.958  0.00  0.00    +0.225 C 
ATOM      2  N   LIG    1       30.077 -19.067   7.759  0.00  0.00    -0.287 N 
ATOM      3  H   LIG    1       29.638 -18.286   7.284  0.00  0.00    +0.172 HD
ATOM      4  C   LIG    1       31.350 -18.941   8.196  0.00  0.00    +0.330 C 
ATOM      5  O   LIG    1       31.996 -17.911   8.039  0.00  0.00    -0.247 OA
ATOM      6  N   LIG    1       31.860 -20.031   8.820  0.00  0.00    -0.259 N 
ATOM      7  H   LIG    1       32.805 -19.991   9.165  0.00  0.00    +0.175 HD
ATOM      8  C   LIG    1       31.169 -21.192   9.011  0.00  0.00    +0.352 C 
ATOM      9  O   LIG    1       31.710 -22.130   9.585  0.00  0.00    -0.244 OA
ATOM     10  N   LIG    1       29.882 -21.269   8.551  0.00  0.00    -0.168 NA
ENDROOT
BRANCH   1  12
ATOM     11  O   LIG    1       27.742 -20.265   6.233  0.00  0.00    -0.242 OA
ATOM     12  C   LIG    1       27.976 -20.263   7.426  0.00  0.00    +0.373 C 
BRANCH  12  13
ATOM     13  O   LIG    1       27.081 -20.285   8.423  0.00  0.00    -0.475 OA
ATOM     14  H   LIG    1       27.522 -20.561   9.261  0.00  0.00    +0.295 HD
ENDBRANCH  12  13
ENDBRANCH   1  12
TORSDOF 2
ENDMDL
MODEL 7
REMARK VINA RESULT:      -6.2      1.629      3.875
REMARK  Name = *****
REMARK                            x       y       z     vdW  Elec       q    Type
REMARK                         _______ _______ _______ _____ _____    ______ ____
ROOT
ATOM      1  C   LIG    1       30.046 -18.989   7.397  0.00  0.00    +0.225 C 
ATOM      2  N   LIG    1       29.807 -17.913   8.190  0.00  0.00    -0.287 N 
ATOM      3  H   LIG    1       29.187 -17.170   7.886  0.00  0.00    +0.172 HD
ATOM      4  C   LIG    1       30.399 -17.821   9.403  0.00  0.00    +0.330 C 
ATOM      5  O   LIG    1       30.212 -16.868  10.151  0.00  0.00    -0.247 OA
ATOM      6  N   LIG    1       31.211 -18.854   9.731  0.00  0.00    -0.259 N 
ATOM      7  H   LIG    1       31.678 -18.837  10.624  0.00  0.00    +0.175 HD
ATOM      8  C   LIG    1       31.442 -19.929   8.923  0.00  0.00    +0.352 C 
ATOM      9  O   LIG    1       32.194 -20.819   9.301  0.00  0.00    -0.244 OA
ATOM     10  N   LIG    1       30.818 -19.976   7.705  0.00  0.00    -0.168 NA
ENDROOT
BRANCH   1  12
ATOM     11  O   LIG    1       28.496 -19.833   5.779  0.00  0.00    -0.242 OA
ATOM     12  C   LIG    1       29.329 -18.991   6.054  0.00  0.00    +0.373 C 
BRANCH  12  13
ATOM     13  O   LIG    1       29.743 -17.982   5.276  0.00  0.00    -0.475 OA
ATOM     14  H   LIG    1       30.729 -17.953   5.263  0.00  0.00    +0.295 HD
ENDBRANCH  12  13
ENDBRANCH   1  12
TORSDOF 2
ENDMDL
MODEL 8
REMARK VINA RESULT:      -6.1      1.736      2.121
REMARK  Name = *****
REMARK                            x       y       z     vdW  Elec       q    Type
REMARK                         _______ _______ _______ _____ _____    ______ ____
ROOT
ATOM      1  C   LIG    1       30.239 -20.878   8.147  0.00  0.00    +0.225 C 
ATOM      2  N   LIG    1       29.035 -21.472   7.944  0.00  0.00    -0.287 N 
ATOM      3  H   LIG    1       28.755 -22.279   8.491  0.00  0.00    +0.172 HD
ATOM      4  C   LIG    1       28.192 -20.990   7.003  0.00  0.00    +0.330 C 
ATOM      5  O   LIG    1       27.096 -21.494   6.788  0.00  0.00    -0.247 OA
ATOM      6  N   LIG    1       28.643 -19.911   6.318  0.00  0.00    -0.259 N 
ATOM      7  H   LIG    1       28.054 -19.511   5.606  0.00  0.00    +0.175 HD
ATOM      8  C   LIG    1       29.856 -19.325   6.532  0.00  0.00    +0.352 C 
ATOM      9  O   LIG    1       30.184 -18.352   5.865  0.00  0.00    -0.244 OA
ATOM     10  N   LIG    1       30.674 -19.851   7.497  0.00  0.00    -0.168 NA
ENDROOT
BRANCH   1  12
ATOM     11  O   LIG    1       30.741 -22.472   9.861  0.00  0.00    -0.242 OA
ATOM     12  C   LIG    1       31.109 -21.502   9.228  0.00  0.00    +0.373 C 
BRANCH  12  13
ATOM     13  O   LIG    1       32.271 -20.846   9.362  0.00  0.00    -0.475 OA
ATOM     14  H   LIG    1       32.165 -20.108  10.008  0.00  0.00    +0.295 HD
ENDBRANCH  12  13
ENDBRANCH   1  12
TORSDOF 2
ENDMDL
MODEL 9
REMARK VINA RESULT:      -6.0      1.684      2.970
REMARK  Name = *****
REMARK                            x       y       z     vdW  Elec       q    Type
REMARK                         _______ _______ _______ _____ _____    ______ ____
ROOT
ATOM      1  C   LIG    1       30.435 -20.373   8.064  0.00  0.00    +0.225 C 
ATOM      2  N   LIG    1       30.505 -19.344   7.180  0.00  0.00    -0.287 N 
ATOM      3  H   LIG    1       31.291 -18.703   7.191  0.00  0.00    +0.172 HD
ATOM      4  C   LIG    1       29.520 -19.163   6.271  0.00  0.00    +0.330 C 
ATOM      5  O   LIG    1       29.544 -18.248   5.455  0.00  0.00    -0.247 OA
ATOM      6  N   LIG    1       28.509 -20.062   6.326  0.00  0.00    -0.259 N 
ATOM      7  H   LIG    1       27.748 -19.974   5.671  0.00  0.00    +0.175 HD
ATOM      8  C   LIG    1       28.451 -21.091   7.220  0.00  0.00    +0.352 C 
ATOM      9  O   LIG    1       27.496 -21.858   7.199  0.00  0.00    -0.244 OA
ATOM     10  N   LIG    1       29.473 -21.232   8.120  0.00  0.00    -0.168 NA
ENDROOT
BRANCH   1  12
ATOM     11  O   LIG    1       32.149 -19.497   9.487  0.00  0.00    -0.242 OA
ATOM     12  C   LIG    1       31.595 -20.484   9.042  0.00  0.00    +0.373 C 
BRANCH  12  13
ATOM     13  O   LIG    1       31.888 -21.763   9.312  0.00  0.00    -0.475 OA
ATOM     14  H   LIG    1       32.860 -21.908   9.230  0.00  0.00    +0.295 HD
ENDBRANCH  12  13
ENDBRANCH   1  12
TORSDOF 2
ENDMDL
