MODEL 1
REMARK VINA RESULT:      -3.9      0.000      0.000
REMARK  Name = *****
REMARK                            x       y       z     vdW  Elec       q    Type
REMARK                         _______ _______ _______ _____ _____    ______ ____
ROOT
ATOM      1  C   LIG    1       23.159 -19.319   3.543  0.00  0.00    +0.165 C 
ATOM      2  C   LIG    1       23.213 -17.909   4.063  0.00  0.00    +0.249 C 
ATOM      3  O   LIG    1       22.223 -17.215   4.267  0.00  0.00    -0.273 OA
ATOM      4  N   LIG    1       24.569 -17.550   4.124  0.00  0.00    -0.180 N 
ATOM      5  N   LIG    1       25.381 -18.668   3.801  0.00  0.00    -0.180 N 
ATOM      6  C   LIG    1       24.590 -19.685   3.256  0.00  0.00    +0.249 C 
ATOM      7  O   LIG    1       24.930 -20.729   2.707  0.00  0.00    -0.273 OA
ENDROOT
BRANCH   4   8
ATOM      8  C   LIG    1       24.939 -16.231   3.730  0.00  0.00    +0.057 A 
ATOM      9  C   LIG    1       26.115 -16.000   3.002  0.00  0.00    +0.029 A 
ATOM     10  C   LIG    1       26.471 -14.703   2.628  0.00  0.00    +0.047 A 
ATOM     11  C   LIG    1       25.668 -13.635   3.004  0.00  0.00    +0.117 A 
ATOM     12  C   LIG    1       24.499 -13.840   3.728  0.00  0.00    +0.047 A 
ATOM     13  C   LIG    1       24.130 -15.142   4.079  0.00  0.00    +0.029 A 
BRANCH  11  14
ATOM     14  O   LIG    1       26.070 -12.383   2.646  0.00  0.00    -0.507 OA
ATOM     15  H   LIG    1       25.306 -11.901   2.291  0.00  0.00    +0.292 HD
ENDBRANCH  11  14
ENDBRANCH   4   8
BRANCH   5  16
ATOM     16  C   LIG    1       26.620 -18.918   4.483  0.00  0.00    +0.057 A 
ATOM     17  C   LIG    1       27.665 -17.977   4.460  0.00  0.00    +0.025 A 
ATOM     18  C   LIG    1       28.845 -18.176   5.188  0.00  0.00    +0.002 A 
ATOM     19  C   LIG    1       29.006 -19.321   5.959  0.00  0.00    +0.000 A 
ATOM     20  C   LIG    1       27.987 -20.266   5.997  0.00  0.00    +0.002 A 
ATOM     21  C   LIG    1       26.814 -20.071   5.258  0.00  0.00    +0.025 A 
ENDBRANCH   5  16
BRANCH   1  22
ATOM     22  C   LIG    1       22.459 -20.291   4.506  0.00  0.00    +0.022 C 
BRANCH  22  23
ATOM     23  C   LIG    1       22.789 -20.095   5.999  0.00  0.00    +0.001 C 
BRANCH  23  25
ATOM     24  C   LIG    1       24.575 -21.571   7.062  0.00  0.00    +0.004 C 
ATOM     25  C   LIG    1       23.098 -21.423   6.708  0.00  0.00    -0.003 C 
ENDBRANCH  23  25
ENDBRANCH  22  23
ENDBRANCH   1  22
TORSDOF 6
ENDMDL
MODEL 2
REMARK VINA RESULT:      -3.3      0.681      1.179
REMARK  Name = *****
REMARK                            x       y       z     vdW  Elec       q    Type
REMARK                         _______ _______ _______ _____ _____    ______ ____
ROOT
ATOM      1  C   LIG    1       23.210 -18.576   3.408  0.00  0.00    +0.165 C 
ATOM      2  C   LIG    1       23.484 -17.205   3.963  0.00  0.00    +0.249 C 
ATOM      3  O   LIG    1       22.619 -16.356   4.151  0.00  0.00    -0.273 OA
ATOM      4  N   LIG    1       24.879 -17.083   4.074  0.00  0.00    -0.180 N 
ATOM      5  N   LIG    1       25.500 -18.317   3.752  0.00  0.00    -0.180 N 
ATOM      6  C   LIG    1       24.569 -19.175   3.159  0.00  0.00    +0.249 C 
ATOM      7  O   LIG    1       24.746 -20.252   2.597  0.00  0.00    -0.273 OA
ENDROOT
BRANCH   4   8
ATOM      8  C   LIG    1       25.480 -15.839   3.723  0.00  0.00    +0.057 A 
ATOM      9  C   LIG    1       24.710 -14.673   3.613  0.00  0.00    +0.029 A 
ATOM     10  C   LIG    1       25.308 -13.461   3.262  0.00  0.00    +0.047 A 
ATOM     11  C   LIG    1       26.670 -13.420   2.994  0.00  0.00    +0.117 A 
ATOM     12  C   LIG    1       27.453 -14.565   3.094  0.00  0.00    +0.047 A 
ATOM     13  C   LIG    1       26.857 -15.771   3.472  0.00  0.00    +0.029 A 
BRANCH  11  14
ATOM     14  O   LIG    1       27.206 -12.224   2.622  0.00  0.00    -0.507 OA
ATOM     15  H   LIG    1       28.035 -12.091   3.110  0.00  0.00    +0.292 HD
ENDBRANCH  11  14
ENDBRANCH   4   8
BRANCH   5  16
ATOM     16  C   LIG    1       26.654 -18.786   4.467  0.00  0.00    +0.057 A 
ATOM     17  C   LIG    1       27.840 -18.030   4.508  0.00  0.00    +0.025 A 
ATOM     18  C   LIG    1       28.943 -18.441   5.269  0.00  0.00    +0.002 A 
ATOM     19  C   LIG    1       28.883 -19.614   6.009  0.00  0.00    +0.000 A 
ATOM     20  C   LIG    1       27.722 -20.378   5.984  0.00  0.00    +0.002 A 
ATOM     21  C   LIG    1       26.626 -19.973   5.212  0.00  0.00    +0.025 A 
ENDBRANCH   5  16
BRANCH   1  22
ATOM     22  C   LIG    1       22.323 -19.432   4.326  0.00  0.00    +0.022 C 
BRANCH  22  23
ATOM     23  C   LIG    1       22.917 -19.749   5.713  0.00  0.00    +0.001 C 
BRANCH  23  25
ATOM     24  C   LIG    1       24.082 -21.572   7.062  0.00  0.00    +0.004 C 
ATOM     25  C   LIG    1       23.095 -21.258   5.941  0.00  0.00    -0.003 C 
ENDBRANCH  23  25
ENDBRANCH  22  23
ENDBRANCH   1  22
TORSDOF 6
ENDMDL
