MODEL 1
REMARK VINA RESULT:      77.3      0.000      0.000
REMARK  Name = *****
REMARK                            x       y       z     vdW  Elec       q    Type
REMARK                         _______ _______ _______ _____ _____    ______ ____
ROOT
ATOM      1  C   LIG    1       27.740 -15.278   4.959  0.00  0.00    +0.264 C 
ATOM      2  C   LIG    1       27.687 -13.842   4.321  0.00  0.00    +0.257 C 
ATOM      3  O   LIG    1       28.745 -13.364   3.877  0.00  0.00    -0.272 OA
ATOM      4  N   LIG    1       26.578 -13.005   4.478  0.00  0.00    -0.288 N 
ATOM      5  C   LIG    1       26.949 -11.646   4.882  0.00  0.00    +0.133 C 
ATOM      6  C   LIG    1       25.411 -12.983   3.539  0.00  0.00    +0.187 C 
ATOM      7  C   LIG    1       23.996 -13.283   4.221  0.00  0.00    +0.329 C 
ATOM      8  O   LIG    1       22.906 -13.123   3.656  0.00  0.00    -0.249 OA
ATOM      9  O   LIG    1       24.152 -13.677   5.507  0.00  0.00    -0.450 OA
ATOM     10  C   LIG    1       22.943 -13.830   6.307  0.00  0.00    +0.264 C 
ATOM     11  C   LIG    1       21.953 -14.913   5.747  0.00  0.00    +0.257 C 
ATOM     12  O   LIG    1       20.768 -14.691   5.492  0.00  0.00    -0.272 OA
ATOM     13  N   LIG    1       22.481 -16.227   5.720  0.00  0.00    -0.288 N 
ATOM     14  C   LIG    1       22.364 -16.794   7.061  0.00  0.00    +0.133 C 
ATOM     15  C   LIG    1       21.993 -17.180   4.664  0.00  0.00    +0.187 C 
ATOM     16  C   LIG    1       22.924 -18.427   4.468  0.00  0.00    +0.329 C 
ATOM     17  O   LIG    1       22.577 -19.401   3.804  0.00  0.00    -0.249 OA
ATOM     18  O   LIG    1       24.126 -18.384   5.136  0.00  0.00    -0.450 OA
ATOM     19  C   LIG    1       24.675 -19.693   5.360  0.00  0.00    +0.264 C 
ATOM     20  C   LIG    1       25.518 -20.368   4.242  0.00  0.00    +0.257 C 
ATOM     21  O   LIG    1       25.163 -21.478   3.821  0.00  0.00    -0.272 OA
ATOM     22  N   LIG    1       26.798 -19.896   3.952  0.00  0.00    -0.288 N 
ATOM     23  C   LIG    1       27.791 -20.948   3.735  0.00  0.00    +0.133 C 
ATOM     24  C   LIG    1       27.106 -18.610   3.257  0.00  0.00    +0.187 C 
ATOM     25  C   LIG    1       27.675 -17.527   4.196  0.00  0.00    +0.329 C 
ATOM     26  O   LIG    1       28.720 -17.769   4.808  0.00  0.00    -0.249 OA
ATOM     27  O   LIG    1       27.013 -16.328   4.263  0.00  0.00    -0.450 OA
ENDROOT
BRANCH   1  29
ATOM     28  C   LIG    1       26.165 -15.923   6.908  0.00  0.00    +0.011 C 
ATOM     29  C   LIG    1       27.480 -15.236   6.501  0.00  0.00    +0.033 C 
ATOM     30  C   LIG    1       27.369 -13.812   7.062  0.00  0.00    +0.011 C 
ENDBRANCH   1  29
BRANCH   6  31
ATOM     31  C   LIG    1       25.606 -13.597   2.100  0.00  0.00    +0.014 C 
ATOM     32  C   LIG    1       27.075 -14.003   1.851  0.00  0.00    +0.009 C 
ATOM     33  C   LIG    1       24.794 -14.875   1.836  0.00  0.00    +0.009 C 
ENDBRANCH   6  31
BRANCH  10  34
ATOM     34  C   LIG    1       22.248 -12.449   6.581  0.00  0.00    +0.033 C 
ATOM     35  C   LIG    1       22.445 -11.448   5.429  0.00  0.00    +0.011 C 
ATOM     36  C   LIG    1       20.740 -12.611   6.803  0.00  0.00    +0.011 C 
ENDBRANCH  10  34
BRANCH  15  37
ATOM     37  C   LIG    1       21.644 -16.537   3.285  0.00  0.00    +0.014 C 
ATOM     38  C   LIG    1       20.255 -16.899   2.793  0.00  0.00    +0.009 C 
ATOM     39  C   LIG    1       21.796 -15.010   3.244  0.00  0.00    +0.009 C 
ENDBRANCH  15  37
BRANCH  19  40
ATOM     40  C   LIG    1       25.455 -19.793   6.708  0.00  0.00    +0.033 C 
ATOM     41  C   LIG    1       26.731 -18.932   6.690  0.00  0.00    +0.011 C 
ATOM     42  C   LIG    1       25.875 -21.223   7.045  0.00  0.00    +0.011 C 
ENDBRANCH  19  40
BRANCH  24  43
ATOM     43  C   LIG    1       26.209 -18.186   2.072  0.00  0.00    +0.014 C 
ATOM     44  C   LIG    1       25.140 -19.269   1.814  0.00  0.00    +0.009 C 
ATOM     45  C   LIG    1       25.444 -16.878   2.334  0.00  0.00    +0.009 C 
ENDBRANCH  24  43
TORSDOF 6
ENDMDL
MODEL 2
REMARK VINA RESULT:      79.1      1.777      7.209
REMARK  Name = *****
REMARK                            x       y       z     vdW  Elec       q    Type
REMARK                         _______ _______ _______ _____ _____    ______ ____
ROOT
ATOM      1  C   LIG    1       22.334 -17.481   5.008  0.00  0.00    +0.264 C 
ATOM      2  C   LIG    1       22.327 -18.979   4.530  0.00  0.00    +0.257 C 
ATOM      3  O   LIG    1       21.255 -19.452   4.116  0.00  0.00    -0.272 OA
ATOM      4  N   LIG    1       23.390 -19.846   4.804  0.00  0.00    -0.288 N 
ATOM      5  C   LIG    1       22.944 -21.134   5.342  0.00  0.00    +0.133 C 
ATOM      6  C   LIG    1       24.572 -20.026   3.900  0.00  0.00    +0.187 C 
ATOM      7  C   LIG    1       25.986 -19.721   4.579  0.00  0.00    +0.329 C 
ATOM      8  O   LIG    1       27.078 -19.993   4.061  0.00  0.00    -0.249 OA
ATOM      9  O   LIG    1       25.827 -19.182   5.811  0.00  0.00    -0.450 OA
ATOM     10  C   LIG    1       27.027 -19.000   6.618  0.00  0.00    +0.264 C 
ATOM     11  C   LIG    1       28.080 -18.033   5.968  0.00  0.00    +0.257 C 
ATOM     12  O   LIG    1       29.257 -18.337   5.767  0.00  0.00    -0.272 OA
ATOM     13  N   LIG    1       27.619 -16.706   5.787  0.00  0.00    -0.288 N 
ATOM     14  C   LIG    1       27.739 -16.002   7.061  0.00  0.00    +0.133 C 
ATOM     15  C   LIG    1       28.173 -15.898   4.646  0.00  0.00    +0.187 C 
ATOM     16  C   LIG    1       27.309 -14.637   4.295  0.00  0.00    +0.329 C 
ATOM     17  O   LIG    1       27.716 -13.759   3.538  0.00  0.00    -0.249 OA
ATOM     18  O   LIG    1       26.094 -14.549   4.935  0.00  0.00    -0.450 OA
ATOM     19  C   LIG    1       25.607 -13.200   5.003  0.00  0.00    +0.264 C 
ATOM     20  C   LIG    1       24.820 -12.611   3.799  0.00  0.00    +0.257 C 
ATOM     21  O   LIG    1       25.238 -11.571   3.270  0.00  0.00    -0.272 OA
ATOM     22  N   LIG    1       23.524 -13.050   3.532  0.00  0.00    -0.288 N 
ATOM     23  C   LIG    1       22.588 -11.982   3.178  0.00  0.00    +0.133 C 
ATOM     24  C   LIG    1       23.165 -14.388   2.972  0.00  0.00    +0.187 C 
ATOM     25  C   LIG    1       22.525 -15.334   4.008  0.00  0.00    +0.329 C 
ATOM     26  O   LIG    1       21.483 -14.978   4.566  0.00  0.00    -0.249 OA
ATOM     27  O   LIG    1       23.125 -16.549   4.221  0.00  0.00    -0.450 OA
ENDROOT
BRANCH   1  29
ATOM     28  C   LIG    1       22.775 -15.919   7.023  0.00  0.00    +0.011 C 
ATOM     29  C   LIG    1       22.563 -17.368   6.552  0.00  0.00    +0.033 C 
ATOM     30  C   LIG    1       23.804 -18.126   7.041  0.00  0.00    +0.011 C 
ENDBRANCH   1  29
BRANCH   6  31
ATOM     31  C   LIG    1       24.434 -19.564   2.399  0.00  0.00    +0.014 C 
ATOM     32  C   LIG    1       23.034 -18.979   2.111  0.00  0.00    +0.009 C 
ATOM     33  C   LIG    1       25.417 -18.458   1.979  0.00  0.00    +0.009 C 
ENDBRANCH   6  31
BRANCH  10  34
ATOM     34  C   LIG    1       27.647 -20.375   7.056  0.00  0.00    +0.033 C 
ATOM     35  C   LIG    1       26.754 -21.571   6.687  0.00  0.00    +0.011 C 
ATOM     36  C   LIG    1       29.020 -20.603   6.414  0.00  0.00    +0.011 C 
ENDBRANCH  10  34
BRANCH  15  37
ATOM     37  C   LIG    1       28.515 -16.703   3.354  0.00  0.00    +0.014 C 
ATOM     38  C   LIG    1       29.283 -17.982   3.634  0.00  0.00    +0.009 C 
ATOM     39  C   LIG    1       27.298 -17.043   2.481  0.00  0.00    +0.009 C 
ENDBRANCH  15  37
BRANCH  19  40
ATOM     40  C   LIG    1       24.809 -12.917   6.313  0.00  0.00    +0.033 C 
ATOM     41  C   LIG    1       23.291 -12.882   6.056  0.00  0.00    +0.011 C 
ATOM     42  C   LIG    1       25.191 -11.588   6.965  0.00  0.00    +0.011 C 
ENDBRANCH  19  40
BRANCH  24  43
ATOM     43  C   LIG    1       24.061 -14.981   1.861  0.00  0.00    +0.014 C 
ATOM     44  C   LIG    1       25.402 -14.220   1.813  0.00  0.00    +0.009 C 
ATOM     45  C   LIG    1       24.412 -16.460   2.096  0.00  0.00    +0.009 C 
ENDBRANCH  24  43
TORSDOF 6
ENDMDL
