MODEL 1
REMARK VINA RESULT:      -6.5      0.000      0.000
REMARK  Name = *****
REMARK                            x       y       z     vdW  Elec       q    Type
REMARK                         _______ _______ _______ _____ _____    ______ ____
ROOT
ATOM      1  C   LIG    1       24.284 -29.670   7.845  0.00  0.00    +0.252 C 
ATOM      2  O   LIG    1       25.194 -29.298   8.946  0.00  0.00    -0.334 OA
ATOM      3  C   LIG    1       24.829 -30.199   9.996  0.00  0.00    +0.164 C 
ATOM      4  C   LIG    1       23.338 -30.281   9.708  0.00  0.00    +0.161 C 
ATOM      5  C   LIG    1       22.742 -30.989  10.914  0.00  0.00    +0.039 C 
ATOM      6  C   LIG    1       23.334 -30.021  11.953  0.00  0.00    +0.004 C 
ATOM      7  C   LIG    1       23.200 -30.138  13.461  0.00  0.00    -0.000 C 
ATOM      8  C   LIG    1       23.572 -28.739  14.083  0.00  0.00    +0.035 C 
ATOM      9  C   LIG    1       24.819 -28.026  13.393  0.00  0.00    +0.120 C 
ATOM     10  C   LIG    1       25.111 -28.333  11.889  0.00  0.00    +0.042 C 
ATOM     11  C   LIG    1       22.355 -27.735  14.310  0.00  0.00    +0.013 C 
ATOM     12  C   LIG    1       21.037 -28.462  14.658  0.00  0.00    -0.056 C 
ATOM     13  C   LIG    1       19.956 -27.709  14.968  0.00  0.00    +0.051 C 
ATOM     14  C   LIG    1       19.626 -26.781  13.821  0.00  0.00    +0.179 C 
ATOM     15  C   LIG    1       20.745 -26.393  12.909  0.00  0.00    +0.047 C 
ATOM     16  O   LIG    1       18.503 -26.304  13.691  0.00  0.00    -0.288 OA
ATOM     17  C   LIG    1       20.742 -29.702  13.840  0.00  0.00    +0.032 C 
ATOM     18  C   LIG    1       22.770 -26.815  15.500  0.00  0.00    +0.020 C 
ATOM     19  C   LIG    1       22.005 -26.814  13.138  0.00  0.00    -0.012 C 
ATOM     20  C   LIG    1       21.870 -30.697  13.958  0.00  0.00    +0.008 C 
ATOM     21  C   LIG    1       24.839 -29.800  11.523  0.00  0.00    +0.012 C 
ATOM     22  C   LIG    1       25.835 -30.701  12.311  0.00  0.00    +0.015 C 
ATOM     23  O   LIG    1       23.304 -30.628   8.350  0.00  0.00    -0.345 OA
ENDROOT
BRANCH   9  24
ATOM     24  O   LIG    1       26.003 -28.352  14.131  0.00  0.00    -0.391 OA
ATOM     25  H   LIG    1       25.802 -28.259  15.079  0.00  0.00    +0.210 HD
ENDBRANCH   9  24
BRANCH   3  26
ATOM     26  C   LIG    1       25.581 -31.546   9.712  0.00  0.00    +0.193 C 
ATOM     27  O   LIG    1       25.106 -32.656   9.974  0.00  0.00    -0.292 OA
BRANCH  26  28
ATOM     28  C   LIG    1       27.023 -31.444   9.194  0.00  0.00    +0.233 C 
BRANCH  28  29
ATOM     29  O   LIG    1       27.640 -30.211   9.545  0.00  0.00    -0.387 OA
ATOM     30  H   LIG    1       28.005 -29.839   8.717  0.00  0.00    +0.210 HD
ENDBRANCH  28  29
ENDBRANCH  26  28
ENDBRANCH   3  26
BRANCH   1  31
ATOM     31  C   LIG    1       25.010 -30.260   6.639  0.00  0.00    +0.061 C 
BRANCH  31  33
ATOM     32  C   LIG    1       24.359 -27.984   5.775  0.00  0.00    +0.004 C 
ATOM     33  C   LIG    1       25.000 -29.320   5.433  0.00  0.00    +0.002 C 
ENDBRANCH  31  33
ENDBRANCH   1  31
TORSDOF 6
ENDMDL
MODEL 2
REMARK VINA RESULT:      -6.1      0.792      1.164
REMARK  Name = *****
REMARK                            x       y       z     vdW  Elec       q    Type
REMARK                         _______ _______ _______ _____ _____    ______ ____
ROOT
ATOM      1  C   LIG    1       24.473 -29.308   7.516  0.00  0.00    +0.252 C 
ATOM      2  O   LIG    1       25.414 -29.101   8.634  0.00  0.00    -0.334 OA
ATOM      3  C   LIG    1       25.042 -30.115   9.573  0.00  0.00    +0.164 C 
ATOM      4  C   LIG    1       23.544 -30.120   9.310  0.00  0.00    +0.161 C 
ATOM      5  C   LIG    1       22.949 -30.956  10.431  0.00  0.00    +0.039 C 
ATOM      6  C   LIG    1       23.589 -30.141  11.569  0.00  0.00    +0.004 C 
ATOM      7  C   LIG    1       23.479 -30.441  13.053  0.00  0.00    -0.000 C 
ATOM      8  C   LIG    1       23.905 -29.141  13.835  0.00  0.00    +0.035 C 
ATOM      9  C   LIG    1       25.159 -28.383  13.212  0.00  0.00    +0.120 C 
ATOM     10  C   LIG    1       25.414 -28.508  11.675  0.00  0.00    +0.042 C 
ATOM     11  C   LIG    1       22.722 -28.140  14.212  0.00  0.00    +0.013 C 
ATOM     12  C   LIG    1       21.390 -28.869  14.497  0.00  0.00    -0.056 C 
ATOM     13  C   LIG    1       20.338 -28.131  14.921  0.00  0.00    +0.051 C 
ATOM     14  C   LIG    1       20.015 -27.058  13.905  0.00  0.00    +0.179 C 
ATOM     15  C   LIG    1       21.128 -26.591  13.024  0.00  0.00    +0.047 C 
ATOM     16  O   LIG    1       18.904 -26.539  13.860  0.00  0.00    -0.288 OA
ATOM     17  C   LIG    1       21.043 -29.988  13.538  0.00  0.00    +0.032 C 
ATOM     18  C   LIG    1       23.186 -27.387  15.497  0.00  0.00    +0.020 C 
ATOM     19  C   LIG    1       22.379 -27.071  13.171  0.00  0.00    -0.012 C 
ATOM     20  C   LIG    1       22.143 -31.020  13.506  0.00  0.00    +0.008 C 
ATOM     21  C   LIG    1       25.092 -29.910  11.137  0.00  0.00    +0.012 C 
ATOM     22  C   LIG    1       26.075 -30.929  11.785  0.00  0.00    +0.015 C 
ATOM     23  O   LIG    1       23.475 -30.293   7.920  0.00  0.00    -0.345 OA
ENDROOT
BRANCH   9  24
ATOM     24  O   LIG    1       26.347 -28.830  13.878  0.00  0.00    -0.391 OA
ATOM     25  H   LIG    1       27.077 -28.240  13.620  0.00  0.00    +0.210 HD
ENDBRANCH   9  24
BRANCH   3  26
ATOM     26  C   LIG    1       25.748 -31.436   9.107  0.00  0.00    +0.193 C 
ATOM     27  O   LIG    1       26.924 -31.480   8.731  0.00  0.00    -0.292 OA
BRANCH  26  28
ATOM     28  C   LIG    1       24.877 -32.697   9.014  0.00  0.00    +0.233 C 
BRANCH  28  29
ATOM     29  O   LIG    1       24.578 -33.051   7.668  0.00  0.00    -0.387 OA
ATOM     30  H   LIG    1       25.429 -33.052   7.187  0.00  0.00    +0.210 HD
ENDBRANCH  28  29
ENDBRANCH  26  28
ENDBRANCH   3  26
BRANCH   1  31
ATOM     31  C   LIG    1       25.159 -29.762   6.230  0.00  0.00    +0.061 C 
BRANCH  31  33
ATOM     32  C   LIG    1       24.544 -27.389   5.647  0.00  0.00    +0.004 C 
ATOM     33  C   LIG    1       25.078 -28.712   5.122  0.00  0.00    +0.002 C 
ENDBRANCH  31  33
ENDBRANCH   1  31
TORSDOF 6
ENDMDL
MODEL 3
REMARK VINA RESULT:      -6.0      0.912      1.144
REMARK  Name = *****
REMARK                            x       y       z     vdW  Elec       q    Type
REMARK                         _______ _______ _______ _____ _____    ______ ____
ROOT
ATOM      1  C   LIG    1       24.712 -29.263   7.600  0.00  0.00    +0.252 C 
ATOM      2  O   LIG    1       25.527 -29.245   8.830  0.00  0.00    -0.334 OA
ATOM      3  C   LIG    1       24.921 -30.254   9.644  0.00  0.00    +0.164 C 
ATOM      4  C   LIG    1       23.477 -30.048   9.211  0.00  0.00    +0.161 C 
ATOM      5  C   LIG    1       22.651 -30.862  10.194  0.00  0.00    +0.039 C 
ATOM      6  C   LIG    1       23.241 -30.204  11.454  0.00  0.00    +0.004 C 
ATOM      7  C   LIG    1       22.913 -30.572  12.889  0.00  0.00    -0.000 C 
ATOM      8  C   LIG    1       23.396 -29.386  13.808  0.00  0.00    +0.035 C 
ATOM      9  C   LIG    1       24.802 -28.764  13.389  0.00  0.00    +0.120 C 
ATOM     10  C   LIG    1       25.226 -28.832  11.887  0.00  0.00    +0.042 C 
ATOM     11  C   LIG    1       22.308 -28.262  14.118  0.00  0.00    +0.013 C 
ATOM     12  C   LIG    1       20.872 -28.826  14.194  0.00  0.00    -0.056 C 
ATOM     13  C   LIG    1       19.874 -27.981  14.547  0.00  0.00    +0.051 C 
ATOM     14  C   LIG    1       19.813 -26.819  13.582  0.00  0.00    +0.179 C 
ATOM     15  C   LIG    1       21.076 -26.452  12.871  0.00  0.00    +0.047 C 
ATOM     16  O   LIG    1       18.789 -26.157  13.448  0.00  0.00    -0.288 OA
ATOM     17  C   LIG    1       20.510 -29.833  13.124  0.00  0.00    +0.032 C 
ATOM     18  C   LIG    1       22.700 -27.651  15.499  0.00  0.00    +0.020 C 
ATOM     19  C   LIG    1       22.230 -27.100  13.125  0.00  0.00    -0.012 C 
ATOM     20  C   LIG    1       21.471 -30.997  13.143  0.00  0.00    +0.008 C 
ATOM     21  C   LIG    1       24.803 -30.147  11.214  0.00  0.00    +0.012 C 
ATOM     22  C   LIG    1       25.565 -31.321  11.895  0.00  0.00    +0.015 C 
ATOM     23  O   LIG    1       23.558 -30.131   7.814  0.00  0.00    -0.345 OA
ENDROOT
BRANCH   9  24
ATOM     24  O   LIG    1       25.834 -29.400  14.152  0.00  0.00    -0.391 OA
ATOM     25  H   LIG    1       26.075 -28.807  14.885  0.00  0.00    +0.210 HD
ENDBRANCH   9  24
BRANCH   3  26
ATOM     26  C   LIG    1       25.510 -31.627   9.168  0.00  0.00    +0.193 C 
ATOM     27  O   LIG    1       24.821 -32.638   8.994  0.00  0.00    -0.292 OA
BRANCH  26  28
ATOM     28  C   LIG    1       27.037 -31.722   9.035  0.00  0.00    +0.233 C 
BRANCH  28  29
ATOM     29  O   LIG    1       27.508 -33.062   9.130  0.00  0.00    -0.387 OA
ATOM     30  H   LIG    1       27.406 -33.325  10.066  0.00  0.00    +0.210 HD
ENDBRANCH  28  29
ENDBRANCH  26  28
ENDBRANCH   3  26
BRANCH   1  31
ATOM     31  C   LIG    1       25.489 -29.728   6.371  0.00  0.00    +0.061 C 
BRANCH  31  33
ATOM     32  C   LIG    1       25.842 -31.841   5.044  0.00  0.00    +0.004 C 
ATOM     33  C   LIG    1       24.817 -30.905   5.665  0.00  0.00    +0.002 C 
ENDBRANCH  31  33
ENDBRANCH   1  31
TORSDOF 6
ENDMDL
MODEL 4
REMARK VINA RESULT:      -5.8      1.631      2.415
REMARK  Name = *****
REMARK                            x       y       z     vdW  Elec       q    Type
REMARK                         _______ _______ _______ _____ _____    ______ ____
ROOT
ATOM      1  C   LIG    1       24.905 -28.447   6.804  0.00  0.00    +0.252 C 
ATOM      2  O   LIG    1       25.925 -28.888   7.775  0.00  0.00    -0.334 OA
ATOM      3  C   LIG    1       25.313 -30.016   8.409  0.00  0.00    +0.164 C 
ATOM      4  C   LIG    1       23.873 -29.526   8.388  0.00  0.00    +0.161 C 
ATOM      5  C   LIG    1       23.114 -30.493   9.281  0.00  0.00    +0.039 C 
ATOM      6  C   LIG    1       24.034 -30.310  10.501  0.00  0.00    +0.004 C 
ATOM      7  C   LIG    1       23.920 -31.047  11.823  0.00  0.00    -0.000 C 
ATOM      8  C   LIG    1       24.766 -30.251  12.887  0.00  0.00    +0.035 C 
ATOM      9  C   LIG    1       26.156 -29.698  12.339  0.00  0.00    +0.120 C 
ATOM     10  C   LIG    1       26.275 -29.368  10.817  0.00  0.00    +0.042 C 
ATOM     11  C   LIG    1       23.969 -29.152  13.725  0.00  0.00    +0.013 C 
ATOM     12  C   LIG    1       22.496 -29.543  13.975  0.00  0.00    -0.056 C 
ATOM     13  C   LIG    1       21.746 -28.732  14.757  0.00  0.00    +0.051 C 
ATOM     14  C   LIG    1       21.711 -27.337  14.174  0.00  0.00    +0.179 C 
ATOM     15  C   LIG    1       22.864 -26.923  13.317  0.00  0.00    +0.047 C 
ATOM     16  O   LIG    1       20.813 -26.551  14.458  0.00  0.00    -0.288 OA
ATOM     17  C   LIG    1       21.770 -30.139  12.787  0.00  0.00    +0.032 C 
ATOM     18  C   LIG    1       24.712 -29.026  15.091  0.00  0.00    +0.020 C 
ATOM     19  C   LIG    1       23.913 -27.746  13.120  0.00  0.00    -0.012 C 
ATOM     20  C   LIG    1       22.498 -31.359  12.278  0.00  0.00    +0.008 C 
ATOM     21  C   LIG    1       25.509 -30.366   9.935  0.00  0.00    +0.012 C 
ATOM     22  C   LIG    1       26.167 -31.769  10.087  0.00  0.00    +0.015 C 
ATOM     23  O   LIG    1       23.677 -29.200   7.038  0.00  0.00    -0.345 OA
ENDROOT
BRANCH   9  24
ATOM     24  O   LIG    1       27.184 -30.647  12.650  0.00  0.00    -0.391 OA
ATOM     25  H   LIG    1       26.787 -31.357  13.185  0.00  0.00    +0.210 HD
ENDBRANCH   9  24
BRANCH   3  26
ATOM     26  C   LIG    1       25.553 -31.245   7.464  0.00  0.00    +0.193 C 
ATOM     27  O   LIG    1       26.647 -31.503   6.952  0.00  0.00    -0.292 OA
BRANCH  26  28
ATOM     28  C   LIG    1       24.323 -32.081   7.081  0.00  0.00    +0.233 C 
BRANCH  28  29
ATOM     29  O   LIG    1       23.863 -31.796   5.765  0.00  0.00    -0.387 OA
ATOM     30  H   LIG    1       23.517 -32.637   5.406  0.00  0.00    +0.210 HD
ENDBRANCH  28  29
ENDBRANCH  26  28
ENDBRANCH   3  26
BRANCH   1  31
ATOM     31  C   LIG    1       25.346 -28.613   5.352  0.00  0.00    +0.061 C 
BRANCH  31  33
ATOM     32  C   LIG    1       25.350 -26.104   5.127  0.00  0.00    +0.004 C 
ATOM     33  C   LIG    1       26.100 -27.392   4.825  0.00  0.00    +0.002 C 
ENDBRANCH  31  33
ENDBRANCH   1  31
TORSDOF 6
ENDMDL
MODEL 5
REMARK VINA RESULT:      -5.5      2.311      3.269
REMARK  Name = *****
REMARK                            x       y       z     vdW  Elec       q    Type
REMARK                         _______ _______ _______ _____ _____    ______ ____
ROOT
ATOM      1  C   LIG    1       24.953 -30.353   7.852  0.00  0.00    +0.252 C 
ATOM      2  O   LIG    1       25.822 -30.922   8.900  0.00  0.00    -0.334 OA
ATOM      3  C   LIG    1       24.937 -31.079  10.014  0.00  0.00    +0.164 C 
ATOM      4  C   LIG    1       24.064 -29.858   9.776  0.00  0.00    +0.161 C 
ATOM      5  C   LIG    1       23.231 -29.715  11.040  0.00  0.00    +0.039 C 
ATOM      6  C   LIG    1       24.434 -29.701  12.000  0.00  0.00    +0.004 C 
ATOM      7  C   LIG    1       24.365 -29.638  13.515  0.00  0.00    -0.000 C 
ATOM      8  C   LIG    1       25.790 -29.213  14.039  0.00  0.00    +0.035 C 
ATOM      9  C   LIG    1       27.003 -29.902  13.270  0.00  0.00    +0.120 C 
ATOM     10  C   LIG    1       26.795 -30.322  11.780  0.00  0.00    +0.042 C 
ATOM     11  C   LIG    1       26.016 -27.647  14.241  0.00  0.00    +0.013 C 
ATOM     12  C   LIG    1       24.729 -26.908  14.672  0.00  0.00    -0.056 C 
ATOM     13  C   LIG    1       24.820 -25.590  14.966  0.00  0.00    +0.051 C 
ATOM     14  C   LIG    1       25.356 -24.829  13.775  0.00  0.00    +0.179 C 
ATOM     15  C   LIG    1       26.212 -25.582  12.808  0.00  0.00    +0.047 C 
ATOM     16  O   LIG    1       25.161 -23.624  13.649  0.00  0.00    -0.288 OA
ATOM     17  C   LIG    1       23.468 -27.316  13.940  0.00  0.00    +0.032 C 
ATOM     18  C   LIG    1       27.095 -27.507  15.359  0.00  0.00    +0.020 C 
ATOM     19  C   LIG    1       26.534 -26.873  13.025  0.00  0.00    -0.012 C 
ATOM     20  C   LIG    1       23.227 -28.799  14.084  0.00  0.00    +0.008 C 
ATOM     21  C   LIG    1       25.384 -30.867  11.513  0.00  0.00    +0.012 C 
ATOM     22  C   LIG    1       25.197 -32.182  12.324  0.00  0.00    +0.015 C 
ATOM     23  O   LIG    1       23.660 -30.021   8.443  0.00  0.00    -0.345 OA
ENDROOT
BRANCH   9  24
ATOM     24  O   LIG    1       27.400 -31.075  13.992  0.00  0.00    -0.391 OA
ATOM     25  H   LIG    1       27.918 -31.637  13.390  0.00  0.00    +0.210 HD
ENDBRANCH   9  24
BRANCH   3  26
ATOM     26  C   LIG    1       24.172 -32.430   9.791  0.00  0.00    +0.193 C 
ATOM     27  O   LIG    1       22.971 -32.579  10.042  0.00  0.00    -0.292 OA
BRANCH  26  28
ATOM     28  C   LIG    1       25.007 -33.641   9.351  0.00  0.00    +0.233 C 
BRANCH  28  29
ATOM     29  O   LIG    1       26.396 -33.465   9.610  0.00  0.00    -0.387 OA
ATOM     30  H   LIG    1       26.623 -34.086  10.330  0.00  0.00    +0.210 HD
ENDBRANCH  28  29
ENDBRANCH  26  28
ENDBRANCH   3  26
BRANCH   1  31
ATOM     31  C   LIG    1       24.754 -31.289   6.662  0.00  0.00    +0.061 C 
BRANCH  31  33
ATOM     32  C   LIG    1       25.930 -32.004   4.552  0.00  0.00    +0.004 C 
ATOM     33  C   LIG    1       25.516 -30.827   5.420  0.00  0.00    +0.002 C 
ENDBRANCH  31  33
ENDBRANCH   1  31
TORSDOF 6
ENDMDL
MODEL 6
REMARK VINA RESULT:      -5.1      3.053      6.970
REMARK  Name = *****
REMARK                            x       y       z     vdW  Elec       q    Type
REMARK                         _______ _______ _______ _____ _____    ______ ____
ROOT
ATOM      1  C   LIG    1       26.047 -26.031  12.878  0.00  0.00    +0.252 C 
ATOM      2  O   LIG    1       25.031 -27.062  13.163  0.00  0.00    -0.334 OA
ATOM      3  C   LIG    1       25.759 -28.288  13.038  0.00  0.00    +0.164 C 
ATOM      4  C   LIG    1       26.701 -27.873  11.919  0.00  0.00    +0.161 C 
ATOM      5  C   LIG    1       27.369 -29.161  11.467  0.00  0.00    +0.039 C 
ATOM      6  C   LIG    1       26.055 -29.918  11.207  0.00  0.00    +0.004 C 
ATOM      7  C   LIG    1       25.931 -31.365  10.766  0.00  0.00    -0.000 C 
ATOM      8  C   LIG    1       24.469 -31.573  10.217  0.00  0.00    +0.035 C 
ATOM      9  C   LIG    1       23.339 -30.845  11.072  0.00  0.00    +0.120 C 
ATOM     10  C   LIG    1       23.720 -29.547  11.854  0.00  0.00    +0.042 C 
ATOM     11  C   LIG    1       24.277 -31.347   8.650  0.00  0.00    +0.013 C 
ATOM     12  C   LIG    1       25.525 -31.748   7.832  0.00  0.00    -0.056 C 
ATOM     13  C   LIG    1       25.446 -31.691   6.481  0.00  0.00    +0.051 C 
ATOM     14  C   LIG    1       25.096 -30.288   6.042  0.00  0.00    +0.179 C 
ATOM     15  C   LIG    1       24.343 -29.433   7.011  0.00  0.00    +0.047 C 
ATOM     16  O   LIG    1       25.351 -29.894   4.908  0.00  0.00    -0.288 OA
ATOM     17  C   LIG    1       26.853 -31.316   8.415  0.00  0.00    +0.032 C 
ATOM     18  C   LIG    1       23.070 -32.241   8.229  0.00  0.00    +0.020 C 
ATOM     19  C   LIG    1       23.949 -29.919   8.204  0.00  0.00    -0.012 C 
ATOM     20  C   LIG    1       27.019 -31.855   9.815  0.00  0.00    +0.008 C 
ATOM     21  C   LIG    1       25.133 -29.614  12.454  0.00  0.00    +0.012 C 
ATOM     22  C   LIG    1       25.165 -30.744  13.524  0.00  0.00    +0.015 C 
ATOM     23  O   LIG    1       27.265 -26.688  12.413  0.00  0.00    -0.345 OA
ENDROOT
BRANCH   9  24
ATOM     24  O   LIG    1       22.809 -31.776  12.025  0.00  0.00    -0.391 OA
ATOM     25  H   LIG    1       23.050 -32.673  11.734  0.00  0.00    +0.210 HD
ENDBRANCH   9  24
BRANCH   3  26
ATOM     26  C   LIG    1       26.496 -28.512  14.405  0.00  0.00    +0.193 C 
ATOM     27  O   LIG    1       25.989 -28.245  15.500  0.00  0.00    -0.292 OA
BRANCH  26  28
ATOM     28  C   LIG    1       27.958 -28.974  14.341  0.00  0.00    +0.233 C 
BRANCH  28  29
ATOM     29  O   LIG    1       28.872 -27.930  14.657  0.00  0.00    -0.387 OA
ATOM     30  H   LIG    1       29.442 -27.815  13.871  0.00  0.00    +0.210 HD
ENDBRANCH  28  29
ENDBRANCH  26  28
ENDBRANCH   3  26
BRANCH   1  31
ATOM     31  C   LIG    1       26.362 -25.149  14.083  0.00  0.00    +0.061 C 
BRANCH  31  33
ATOM     32  C   LIG    1       28.173 -24.091  15.480  0.00  0.00    +0.004 C 
ATOM     33  C   LIG    1       27.840 -24.769  14.160  0.00  0.00    +0.002 C 
ENDBRANCH  31  33
ENDBRANCH   1  31
TORSDOF 6
ENDMDL
MODEL 7
REMARK VINA RESULT:      -5.0      1.987      2.741
REMARK  Name = *****
REMARK                            x       y       z     vdW  Elec       q    Type
REMARK                         _______ _______ _______ _____ _____    ______ ____
ROOT
ATOM      1  C   LIG    1       24.549 -28.817   7.016  0.00  0.00    +0.252 C 
ATOM      2  O   LIG    1       25.831 -28.992   7.724  0.00  0.00    -0.334 OA
ATOM      3  C   LIG    1       25.566 -30.069   8.629  0.00  0.00    +0.164 C 
ATOM      4  C   LIG    1       24.111 -29.747   8.935  0.00  0.00    +0.161 C 
ATOM      5  C   LIG    1       23.747 -30.642  10.108  0.00  0.00    +0.039 C 
ATOM      6  C   LIG    1       24.906 -30.177  11.006  0.00  0.00    +0.004 C 
ATOM      7  C   LIG    1       25.233 -30.711  12.389  0.00  0.00    -0.000 C 
ATOM      8  C   LIG    1       26.194 -29.674  13.085  0.00  0.00    +0.035 C 
ATOM      9  C   LIG    1       27.308 -29.065  12.123  0.00  0.00    +0.120 C 
ATOM     10  C   LIG    1       26.994 -28.960  10.596  0.00  0.00    +0.042 C 
ATOM     11  C   LIG    1       25.482 -28.553  13.967  0.00  0.00    +0.013 C 
ATOM     12  C   LIG    1       24.190 -29.058  14.647  0.00  0.00    -0.056 C 
ATOM     13  C   LIG    1       23.550 -28.223  15.499  0.00  0.00    +0.051 C 
ATOM     14  C   LIG    1       23.170 -26.945  14.784  0.00  0.00    +0.179 C 
ATOM     15  C   LIG    1       24.000 -26.545  13.607  0.00  0.00    +0.047 C 
ATOM     16  O   LIG    1       22.267 -26.227  15.201  0.00  0.00    -0.288 OA
ATOM     17  C   LIG    1       23.284 -29.903  13.777  0.00  0.00    +0.032 C 
ATOM     18  C   LIG    1       26.516 -28.140  15.060  0.00  0.00    +0.020 C 
ATOM     19  C   LIG    1       25.074 -27.270  13.236  0.00  0.00    -0.012 C 
ATOM     20  C   LIG    1       24.030 -31.101  13.241  0.00  0.00    +0.008 C 
ATOM     21  C   LIG    1       26.185 -30.159  10.077  0.00  0.00    +0.012 C 
ATOM     22  C   LIG    1       27.056 -31.443  10.215  0.00  0.00    +0.015 C 
ATOM     23  O   LIG    1       23.539 -29.654   7.658  0.00  0.00    -0.345 OA
ENDROOT
BRANCH   9  24
ATOM     24  O   LIG    1       28.508 -29.839  12.259  0.00  0.00    -0.391 OA
ATOM     25  H   LIG    1       28.264 -30.711  12.615  0.00  0.00    +0.210 HD
ENDBRANCH   9  24
BRANCH   3  26
ATOM     26  C   LIG    1       25.737 -31.395   7.808  0.00  0.00    +0.193 C 
ATOM     27  O   LIG    1       26.647 -31.574   6.991  0.00  0.00    -0.292 OA
BRANCH  26  28
ATOM     28  C   LIG    1       24.639 -32.458   7.961  0.00  0.00    +0.233 C 
BRANCH  28  29
ATOM     29  O   LIG    1       25.164 -33.780   7.989  0.00  0.00    -0.387 OA
ATOM     30  H   LIG    1       24.443 -34.369   7.693  0.00  0.00    +0.210 HD
ENDBRANCH  28  29
ENDBRANCH  26  28
ENDBRANCH   3  26
BRANCH   1  31
ATOM     31  C   LIG    1       24.633 -29.156   5.529  0.00  0.00    +0.061 C 
BRANCH  31  33
ATOM     32  C   LIG    1       25.920 -27.031   5.109  0.00  0.00    +0.004 C 
ATOM     33  C   LIG    1       24.767 -27.911   4.653  0.00  0.00    +0.002 C 
ENDBRANCH  31  33
ENDBRANCH   1  31
TORSDOF 6
ENDMDL
MODEL 8
REMARK VINA RESULT:      -4.7      2.417      3.300
REMARK  Name = *****
REMARK                            x       y       z     vdW  Elec       q    Type
REMARK                         _______ _______ _______ _____ _____    ______ ____
ROOT
ATOM      1  C   LIG    1       24.097 -30.204   7.430  0.00  0.00    +0.252 C 
ATOM      2  O   LIG    1       24.268 -29.501   8.716  0.00  0.00    -0.334 OA
ATOM      3  C   LIG    1       24.536 -30.561   9.640  0.00  0.00    +0.164 C 
ATOM      4  C   LIG    1       23.649 -31.627   9.015  0.00  0.00    +0.161 C 
ATOM      5  C   LIG    1       23.599 -32.748  10.041  0.00  0.00    +0.039 C 
ATOM      6  C   LIG    1       23.130 -31.856  11.203  0.00  0.00    +0.004 C 
ATOM      7  C   LIG    1       22.910 -32.302  12.638  0.00  0.00    -0.000 C 
ATOM      8  C   LIG    1       22.040 -31.198  13.351  0.00  0.00    +0.035 C 
ATOM      9  C   LIG    1       22.444 -29.703  12.978  0.00  0.00    +0.120 C 
ATOM     10  C   LIG    1       23.080 -29.434  11.576  0.00  0.00    +0.042 C 
ATOM     11  C   LIG    1       20.462 -31.425  13.309  0.00  0.00    +0.013 C 
ATOM     12  C   LIG    1       20.072 -32.919  13.333  0.00  0.00    -0.056 C 
ATOM     13  C   LIG    1       18.757 -33.233  13.398  0.00  0.00    +0.051 C 
ATOM     14  C   LIG    1       18.022 -32.632  12.222  0.00  0.00    +0.179 C 
ATOM     15  C   LIG    1       18.612 -31.408  11.598  0.00  0.00    +0.047 C 
ATOM     16  O   LIG    1       16.946 -33.085  11.845  0.00  0.00    -0.288 OA
ATOM     17  C   LIG    1       20.904 -33.824  12.449  0.00  0.00    +0.032 C 
ATOM     18  C   LIG    1       19.890 -30.718  14.577  0.00  0.00    +0.020 C 
ATOM     19  C   LIG    1       19.724 -30.838  12.103  0.00  0.00    -0.012 C 
ATOM     20  C   LIG    1       22.366 -33.716  12.807  0.00  0.00    +0.008 C 
ATOM     21  C   LIG    1       24.029 -30.557  11.134  0.00  0.00    +0.012 C 
ATOM     22  C   LIG    1       25.238 -30.601  12.115  0.00  0.00    +0.015 C 
ATOM     23  O   LIG    1       24.076 -31.642   7.680  0.00  0.00    -0.345 OA
ENDROOT
BRANCH   9  24
ATOM     24  O   LIG    1       23.362 -29.213  13.963  0.00  0.00    -0.391 OA
ATOM     25  H   LIG    1       24.228 -29.627  13.800  0.00  0.00    +0.210 HD
ENDBRANCH   9  24
BRANCH   3  26
ATOM     26  C   LIG    1       26.065 -30.889   9.514  0.00  0.00    +0.193 C 
ATOM     27  O   LIG    1       26.497 -32.017   9.257  0.00  0.00    -0.292 OA
BRANCH  26  28
ATOM     28  C   LIG    1       27.050 -29.760   9.849  0.00  0.00    +0.233 C 
BRANCH  28  29
ATOM     29  O   LIG    1       27.089 -28.757   8.841  0.00  0.00    -0.387 OA
ATOM     30  H   LIG    1       27.747 -29.054   8.181  0.00  0.00    +0.210 HD
ENDBRANCH  28  29
ENDBRANCH  26  28
ENDBRANCH   3  26
BRANCH   1  31
ATOM     31  C   LIG    1       25.185 -29.871   6.413  0.00  0.00    +0.061 C 
BRANCH  31  33
ATOM     32  C   LIG    1       24.662 -27.467   5.871  0.00  0.00    +0.004 C 
ATOM     33  C   LIG    1       24.705 -28.891   5.342  0.00  0.00    +0.002 C 
ENDBRANCH  31  33
ENDBRANCH   1  31
TORSDOF 6
ENDMDL
MODEL 9
REMARK VINA RESULT:      -4.7      2.695      6.806
REMARK  Name = *****
REMARK                            x       y       z     vdW  Elec       q    Type
REMARK                         _______ _______ _______ _____ _____    ______ ____
ROOT
ATOM      1  C   LIG    1       19.603 -27.538  14.241  0.00  0.00    +0.252 C 
ATOM      2  O   LIG    1       20.152 -28.270  13.084  0.00  0.00    -0.334 OA
ATOM      3  C   LIG    1       20.961 -29.285  13.687  0.00  0.00    +0.164 C 
ATOM      4  C   LIG    1       21.450 -28.491  14.889  0.00  0.00    +0.161 C 
ATOM      5  C   LIG    1       22.554 -29.339  15.499  0.00  0.00    +0.039 C 
ATOM      6  C   LIG    1       23.370 -29.463  14.201  0.00  0.00    +0.004 C 
ATOM      7  C   LIG    1       24.648 -30.263  14.023  0.00  0.00    -0.000 C 
ATOM      8  C   LIG    1       25.345 -29.761  12.702  0.00  0.00    +0.035 C 
ATOM      9  C   LIG    1       24.341 -29.483  11.496  0.00  0.00    +0.120 C 
ATOM     10  C   LIG    1       22.874 -29.063  11.834  0.00  0.00    +0.042 C 
ATOM     11  C   LIG    1       26.409 -28.587  12.882  0.00  0.00    +0.013 C 
ATOM     12  C   LIG    1       27.163 -28.664  14.228  0.00  0.00    -0.056 C 
ATOM     13  C   LIG    1       28.159 -27.776  14.452  0.00  0.00    +0.051 C 
ATOM     14  C   LIG    1       27.626 -26.365  14.357  0.00  0.00    +0.179 C 
ATOM     15  C   LIG    1       26.416 -26.144  13.506  0.00  0.00    +0.047 C 
ATOM     16  O   LIG    1       28.207 -25.427  14.894  0.00  0.00    -0.288 OA
ATOM     17  C   LIG    1       26.309 -28.988  15.435  0.00  0.00    +0.032 C 
ATOM     18  C   LIG    1       27.424 -28.740  11.708  0.00  0.00    +0.020 C 
ATOM     19  C   LIG    1       25.862 -27.158  12.812  0.00  0.00    -0.012 C 
ATOM     20  C   LIG    1       25.576 -30.291  15.233  0.00  0.00    +0.008 C 
ATOM     21  C   LIG    1       22.320 -29.794  13.066  0.00  0.00    +0.012 C 
ATOM     22  C   LIG    1       22.231 -31.314  12.744  0.00  0.00    +0.015 C 
ATOM     23  O   LIG    1       20.256 -28.021  15.455  0.00  0.00    -0.345 OA
ENDROOT
BRANCH   9  24
ATOM     24  O   LIG    1       24.269 -30.657  10.676  0.00  0.00    -0.391 OA
ATOM     25  H   LIG    1       24.863 -30.528   9.916  0.00  0.00    +0.210 HD
ENDBRANCH   9  24
BRANCH   3  26
ATOM     26  C   LIG    1       19.994 -30.455  14.080  0.00  0.00    +0.193 C 
ATOM     27  O   LIG    1       20.137 -31.140  15.098  0.00  0.00    -0.292 OA
BRANCH  26  28
ATOM     28  C   LIG    1       18.895 -30.820  13.072  0.00  0.00    +0.233 C 
BRANCH  28  29
ATOM     29  O   LIG    1       19.235 -30.449  11.741  0.00  0.00    -0.387 OA
ATOM     30  H   LIG    1       18.400 -30.184  11.306  0.00  0.00    +0.210 HD
ENDBRANCH  28  29
ENDBRANCH  26  28
ENDBRANCH   3  26
BRANCH   1  31
ATOM     31  C   LIG    1       18.089 -27.678  14.378  0.00  0.00    +0.061 C 
BRANCH  31  33
ATOM     32  C   LIG    1       16.021 -26.412  15.062  0.00  0.00    +0.004 C 
ATOM     33  C   LIG    1       17.374 -26.327  14.375  0.00  0.00    +0.002 C 
ENDBRANCH  31  33
ENDBRANCH   1  31
TORSDOF 6
ENDMDL
