MODEL 1
REMARK VINA RESULT:      -5.9      0.000      0.000
REMARK  Name = *****
REMARK                            x       y       z     vdW  Elec       q    Type
REMARK                         _______ _______ _______ _____ _____    ______ ____
ROOT
ATOM      1  C   LIG    1       28.094 -20.265   7.706  0.00  0.00    +0.002 C 
ENDROOT
BRANCH   1   2
ATOM      2  C   LIG    1       29.306 -21.181   7.497  0.00  0.00    +0.011 C 
BRANCH   2   3
ATOM      3  C   LIG    1       30.547 -20.745   8.285  0.00  0.00    +0.120 C 
BRANCH   3   5
ATOM      4  O   LIG    1       30.762 -22.121  10.286  0.00  0.00    -0.251 OA
ATOM      5  C   LIG    1       31.139 -21.830   9.157  0.00  0.00    +0.305 C 
BRANCH   5   6
ATOM      6  O   LIG    1       32.145 -22.495   8.549  0.00  0.00    -0.481 OA
ATOM      7  H   LIG    1       31.869 -22.988   7.752  0.00  0.00    +0.295 HD
ENDBRANCH   5   6
ENDBRANCH   3   5
ENDBRANCH   2   3
ENDBRANCH   1   2
BRANCH   1   8
ATOM      8  C   LIG    1       27.068 -20.386   6.568  0.00  0.00    +0.015 C 
BRANCH   8   9
ATOM      9  C   LIG    1       25.653 -20.734   7.070  0.00  0.00    +0.058 C 
ATOM     10  S   LIG    1       24.538 -21.249   5.719  0.00  0.00    -0.090 S 
ATOM     11  S   LIG    1       24.847 -23.270   5.867  0.00  0.00    -0.093 S 
ATOM     12  C   LIG    1       25.909 -23.231   7.331  0.00  0.00    +0.082 C 
ATOM     13  C   LIG    1       25.639 -21.914   8.053  0.00  0.00    +0.026 C 
ENDBRANCH   8   9
ENDBRANCH   1   8
TORSDOF 6
ENDMDL
MODEL 2
REMARK VINA RESULT:      -5.9      1.147      1.599
REMARK  Name = *****
REMARK                            x       y       z     vdW  Elec       q    Type
REMARK                         _______ _______ _______ _____ _____    ______ ____
ROOT
ATOM      1  C   LIG    1       28.032 -20.112   7.720  0.00  0.00    +0.002 C 
ENDROOT
BRANCH   1   2
ATOM      2  C   LIG    1       29.028 -21.278   7.765  0.00  0.00    +0.011 C 
BRANCH   2   3
ATOM      3  C   LIG    1       30.434 -20.867   8.216  0.00  0.00    +0.120 C 
BRANCH   3   5
ATOM      4  O   LIG    1       30.738 -22.142  10.272  0.00  0.00    -0.251 OA
ATOM      5  C   LIG    1       31.104 -21.862   9.137  0.00  0.00    +0.305 C 
BRANCH   5   6
ATOM      6  O   LIG    1       32.173 -22.459   8.567  0.00  0.00    -0.481 OA
ATOM      7  H   LIG    1       32.636 -23.088   9.155  0.00  0.00    +0.295 HD
ENDBRANCH   5   6
ENDBRANCH   3   5
ENDBRANCH   2   3
ENDBRANCH   1   2
BRANCH   1   8
ATOM      8  C   LIG    1       26.572 -20.589   7.782  0.00  0.00    +0.015 C 
BRANCH   8   9
ATOM      9  C   LIG    1       26.131 -21.338   6.509  0.00  0.00    +0.058 C 
ATOM     10  S   LIG    1       25.507 -23.016   6.866  0.00  0.00    -0.090 S 
ATOM     11  S   LIG    1       23.518 -22.542   7.010  0.00  0.00    -0.093 S 
ATOM     12  C   LIG    1       23.666 -20.799   6.546  0.00  0.00    +0.082 C 
ATOM     13  C   LIG    1       24.974 -20.644   5.776  0.00  0.00    +0.026 C 
ENDBRANCH   8   9
ENDBRANCH   1   8
TORSDOF 6
ENDMDL
MODEL 3
REMARK VINA RESULT:      -5.8      2.014      2.136
REMARK  Name = *****
REMARK                            x       y       z     vdW  Elec       q    Type
REMARK                         _______ _______ _______ _____ _____    ______ ____
ROOT
ATOM      1  C   LIG    1       28.338 -20.197   7.698  0.00  0.00    +0.002 C 
ENDROOT
BRANCH   1   2
ATOM      2  C   LIG    1       29.534 -19.329   7.289  0.00  0.00    +0.011 C 
BRANCH   2   3
ATOM      3  C   LIG    1       30.078 -18.459   8.428  0.00  0.00    +0.120 C 
BRANCH   3   5
ATOM      4  O   LIG    1       32.128 -19.536   9.193  0.00  0.00    -0.251 OA
ATOM      5  C   LIG    1       31.569 -18.591   8.649  0.00  0.00    +0.305 C 
BRANCH   5   6
ATOM      6  O   LIG    1       32.262 -17.544   8.153  0.00  0.00    -0.481 OA
ATOM      7  H   LIG    1       32.763 -17.045   8.827  0.00  0.00    +0.295 HD
ENDBRANCH   5   6
ENDBRANCH   3   5
ENDBRANCH   2   3
ENDBRANCH   1   2
BRANCH   1   8
ATOM      8  C   LIG    1       27.308 -20.342   6.566  0.00  0.00    +0.015 C 
BRANCH   8   9
ATOM      9  C   LIG    1       25.876 -20.579   7.085  0.00  0.00    +0.058 C 
ATOM     10  S   LIG    1       24.713 -21.026   5.751  0.00  0.00    -0.090 S 
ATOM     11  S   LIG    1       24.874 -23.063   5.921  0.00  0.00    -0.093 S 
ATOM     12  C   LIG    1       25.949 -23.084   7.376  0.00  0.00    +0.082 C 
ATOM     13  C   LIG    1       25.784 -21.742   8.083  0.00  0.00    +0.026 C 
ENDBRANCH   8   9
ENDBRANCH   1   8
TORSDOF 6
ENDMDL
MODEL 4
REMARK VINA RESULT:      -5.7      4.973      5.481
REMARK  Name = *****
REMARK                            x       y       z     vdW  Elec       q    Type
REMARK                         _______ _______ _______ _____ _____    ______ ____
ROOT
ATOM      1  C   LIG    1       24.419 -23.602   6.813  0.00  0.00    +0.002 C 
ENDROOT
BRANCH   1   2
ATOM      2  C   LIG    1       24.127 -25.005   6.266  0.00  0.00    +0.011 C 
BRANCH   2   3
ATOM      3  C   LIG    1       25.266 -25.582   5.417  0.00  0.00    +0.120 C 
BRANCH   3   5
ATOM      4  O   LIG    1       25.996 -26.966   7.287  0.00  0.00    -0.251 OA
ATOM      5  C   LIG    1       26.206 -26.492   6.177  0.00  0.00    +0.305 C 
BRANCH   5   6
ATOM      6  O   LIG    1       27.333 -26.767   5.487  0.00  0.00    -0.481 OA
ATOM      7  H   LIG    1       27.300 -26.497   4.549  0.00  0.00    +0.295 HD
ENDBRANCH   5   6
ENDBRANCH   3   5
ENDBRANCH   2   3
ENDBRANCH   1   2
BRANCH   1   8
ATOM      8  C   LIG    1       23.159 -22.724   6.870  0.00  0.00    +0.015 C 
BRANCH   8   9
ATOM      9  C   LIG    1       23.480 -21.227   7.045  0.00  0.00    +0.058 C 
ATOM     10  S   LIG    1       25.270 -20.879   6.956  0.00  0.00    -0.090 S 
ATOM     11  S   LIG    1       25.363 -20.438   4.957  0.00  0.00    -0.093 S 
ATOM     12  C   LIG    1       23.588 -20.540   4.619  0.00  0.00    +0.082 C 
ATOM     13  C   LIG    1       22.862 -20.348   5.947  0.00  0.00    +0.026 C 
ENDBRANCH   8   9
ENDBRANCH   1   8
TORSDOF 6
ENDMDL
MODEL 5
REMARK VINA RESULT:      -5.6      1.895      2.280
REMARK  Name = *****
REMARK                            x       y       z     vdW  Elec       q    Type
REMARK                         _______ _______ _______ _____ _____    ______ ____
ROOT
ATOM      1  C   LIG    1       27.773 -20.688   8.160  0.00  0.00    +0.002 C 
ENDROOT
BRANCH   1   2
ATOM      2  C   LIG    1       28.836 -19.904   7.380  0.00  0.00    +0.011 C 
BRANCH   2   3
ATOM      3  C   LIG    1       29.777 -19.090   8.274  0.00  0.00    +0.120 C 
BRANCH   3   5
ATOM      4  O   LIG    1       31.942 -19.729   9.197  0.00  0.00    -0.251 OA
ATOM      5  C   LIG    1       31.221 -19.540   8.225  0.00  0.00    +0.305 C 
BRANCH   5   6
ATOM      6  O   LIG    1       31.658 -19.748   6.964  0.00  0.00    -0.481 OA
ATOM      7  H   LIG    1       30.982 -19.581   6.278  0.00  0.00    +0.295 HD
ENDBRANCH   5   6
ENDBRANCH   3   5
ENDBRANCH   2   3
ENDBRANCH   1   2
BRANCH   1   8
ATOM      8  C   LIG    1       26.348 -20.378   7.678  0.00  0.00    +0.015 C 
BRANCH   8   9
ATOM      9  C   LIG    1       25.950 -21.181   6.424  0.00  0.00    +0.058 C 
ATOM     10  S   LIG    1       25.420 -22.882   6.823  0.00  0.00    -0.090 S 
ATOM     11  S   LIG    1       23.407 -22.516   6.954  0.00  0.00    -0.093 S 
ATOM     12  C   LIG    1       23.459 -20.780   6.447  0.00  0.00    +0.082 C 
ATOM     13  C   LIG    1       24.757 -20.571   5.673  0.00  0.00    +0.026 C 
ENDBRANCH   8   9
ENDBRANCH   1   8
TORSDOF 6
ENDMDL
MODEL 6
REMARK VINA RESULT:      -5.4      4.365      5.818
REMARK  Name = *****
REMARK                            x       y       z     vdW  Elec       q    Type
REMARK                         _______ _______ _______ _____ _____    ______ ____
ROOT
ATOM      1  C   LIG    1       22.649 -20.940   5.177  0.00  0.00    +0.002 C 
ENDROOT
BRANCH   1   2
ATOM      2  C   LIG    1       23.597 -20.679   4.000  0.00  0.00    +0.011 C 
BRANCH   2   3
ATOM      3  C   LIG    1       23.916 -19.195   3.788  0.00  0.00    +0.120 C 
BRANCH   3   5
ATOM      4  O   LIG    1       25.853 -17.879   3.106  0.00  0.00    -0.251 OA
ATOM      5  C   LIG    1       25.388 -18.899   3.600  0.00  0.00    +0.305 C 
BRANCH   5   6
ATOM      6  O   LIG    1       26.181 -19.888   4.067  0.00  0.00    -0.481 OA
ATOM      7  H   LIG    1       26.077 -20.736   3.594  0.00  0.00    +0.295 HD
ENDBRANCH   5   6
ENDBRANCH   3   5
ENDBRANCH   2   3
ENDBRANCH   1   2
BRANCH   1   8
ATOM      8  C   LIG    1       23.266 -20.535   6.525  0.00  0.00    +0.015 C 
BRANCH   8   9
ATOM      9  C   LIG    1       23.514 -21.738   7.456  0.00  0.00    +0.058 C 
ATOM     10  S   LIG    1       23.127 -23.333   6.657  0.00  0.00    -0.090 S 
ATOM     11  S   LIG    1       25.011 -23.758   5.970  0.00  0.00    -0.093 S 
ATOM     12  C   LIG    1       25.853 -22.348   6.730  0.00  0.00    +0.082 C 
ATOM     13  C   LIG    1       24.982 -21.870   7.888  0.00  0.00    +0.026 C 
ENDBRANCH   8   9
ENDBRANCH   1   8
TORSDOF 6
ENDMDL
MODEL 7
REMARK VINA RESULT:      -5.4      1.583      2.045
REMARK  Name = *****
REMARK                            x       y       z     vdW  Elec       q    Type
REMARK                         _______ _______ _______ _____ _____    ______ ____
ROOT
ATOM      1  C   LIG    1       27.504 -20.366   6.895  0.00  0.00    +0.002 C 
ENDROOT
BRANCH   1   2
ATOM      2  C   LIG    1       28.896 -19.742   7.063  0.00  0.00    +0.011 C 
BRANCH   2   3
ATOM      3  C   LIG    1       29.813 -20.532   8.004  0.00  0.00    +0.120 C 
BRANCH   3   5
ATOM      4  O   LIG    1       31.828 -19.519   7.079  0.00  0.00    -0.251 OA
ATOM      5  C   LIG    1       31.248 -20.052   8.016  0.00  0.00    +0.305 C 
BRANCH   5   6
ATOM      6  O   LIG    1       31.850 -20.248   9.208  0.00  0.00    -0.481 OA
ATOM      7  H   LIG    1       32.002 -19.427   9.716  0.00  0.00    +0.295 HD
ENDBRANCH   5   6
ENDBRANCH   3   5
ENDBRANCH   2   3
ENDBRANCH   1   2
BRANCH   1   8
ATOM      8  C   LIG    1       27.452 -21.818   7.395  0.00  0.00    +0.015 C 
BRANCH   8   9
ATOM      9  C   LIG    1       26.057 -22.226   7.909  0.00  0.00    +0.058 C 
ATOM     10  S   LIG    1       24.773 -20.996   7.494  0.00  0.00    -0.090 S 
ATOM     11  S   LIG    1       24.133 -21.850   5.744  0.00  0.00    -0.093 S 
ATOM     12  C   LIG    1       25.159 -23.338   5.830  0.00  0.00    +0.082 C 
ATOM     13  C   LIG    1       25.549 -23.537   7.291  0.00  0.00    +0.026 C 
ENDBRANCH   8   9
ENDBRANCH   1   8
TORSDOF 6
ENDMDL
MODEL 8
REMARK VINA RESULT:      -5.4      4.146      5.736
REMARK  Name = *****
REMARK                            x       y       z     vdW  Elec       q    Type
REMARK                         _______ _______ _______ _____ _____    ______ ____
ROOT
ATOM      1  C   LIG    1       25.707 -21.416   8.483  0.00  0.00    +0.002 C 
ENDROOT
BRANCH   1   2
ATOM      2  C   LIG    1       25.781 -22.689   7.632  0.00  0.00    +0.011 C 
BRANCH   2   3
ATOM      3  C   LIG    1       24.641 -22.814   6.614  0.00  0.00    +0.120 C 
BRANCH   3   5
ATOM      4  O   LIG    1       24.564 -25.250   6.541  0.00  0.00    -0.251 OA
ATOM      5  C   LIG    1       23.980 -24.175   6.590  0.00  0.00    +0.305 C 
BRANCH   5   6
ATOM      6  O   LIG    1       22.633 -24.099   6.654  0.00  0.00    -0.481 OA
ATOM      7  H   LIG    1       22.295 -23.203   6.849  0.00  0.00    +0.295 HD
ENDBRANCH   5   6
ENDBRANCH   3   5
ENDBRANCH   2   3
ENDBRANCH   1   2
BRANCH   1   8
ATOM      8  C   LIG    1       26.871 -20.454   8.199  0.00  0.00    +0.015 C 
BRANCH   8   9
ATOM      9  C   LIG    1       27.871 -21.013   7.166  0.00  0.00    +0.058 C 
ATOM     10  S   LIG    1       28.152 -19.866   5.774  0.00  0.00    -0.090 S 
ATOM     11  S   LIG    1       29.804 -18.917   6.531  0.00  0.00    -0.093 S 
ATOM     12  C   LIG    1       29.989 -19.935   8.016  0.00  0.00    +0.082 C 
ATOM     13  C   LIG    1       29.269 -21.254   7.755  0.00  0.00    +0.026 C 
ENDBRANCH   8   9
ENDBRANCH   1   8
TORSDOF 6
ENDMDL
MODEL 9
REMARK VINA RESULT:      -5.3      2.400      3.058
REMARK  Name = *****
REMARK                            x       y       z     vdW  Elec       q    Type
REMARK                         _______ _______ _______ _____ _____    ______ ____
ROOT
ATOM      1  C   LIG    1       27.315 -21.195   7.707  0.00  0.00    +0.002 C 
ENDROOT
BRANCH   1   2
ATOM      2  C   LIG    1       28.586 -20.792   6.950  0.00  0.00    +0.011 C 
BRANCH   2   3
ATOM      3  C   LIG    1       29.473 -19.808   7.720  0.00  0.00    +0.120 C 
BRANCH   3   5
ATOM      4  O   LIG    1       31.822 -19.548   7.121  0.00  0.00    -0.251 OA
ATOM      5  C   LIG    1       30.645 -19.277   6.923  0.00  0.00    +0.305 C 
BRANCH   5   6
ATOM      6  O   LIG    1       30.262 -18.462   5.917  0.00  0.00    -0.481 OA
ATOM      7  H   LIG    1       30.536 -18.770   5.031  0.00  0.00    +0.295 HD
ENDBRANCH   5   6
ENDBRANCH   3   5
ENDBRANCH   2   3
ENDBRANCH   1   2
BRANCH   1   8
ATOM      8  C   LIG    1       26.057 -20.518   7.138  0.00  0.00    +0.015 C 
BRANCH   8   9
ATOM      9  C   LIG    1       25.092 -21.515   6.466  0.00  0.00    +0.058 C 
ATOM     10  S   LIG    1       23.362 -21.282   7.001  0.00  0.00    -0.090 S 
ATOM     11  S   LIG    1       22.775 -20.032   5.486  0.00  0.00    -0.093 S 
ATOM     12  C   LIG    1       24.311 -20.094   4.532  0.00  0.00    +0.082 C 
ATOM     13  C   LIG    1       25.046 -21.368   4.938  0.00  0.00    +0.026 C 
ENDBRANCH   8   9
ENDBRANCH   1   8
TORSDOF 6
ENDMDL
