MODEL 1
REMARK VINA RESULT:      -7.6      0.000      0.000
REMARK  Name = *****
REMARK                            x       y       z     vdW  Elec       q    Type
REMARK                         _______ _______ _______ _____ _____    ______ ____
ROOT
ATOM      1  C   LIG    1       28.257 -20.391   5.759  0.00  0.00    +0.008 C 
ATOM      2  C   LIG    1       27.153 -20.300   6.819  0.00  0.00    -0.008 C 
ATOM      3  C   LIG    1       25.697 -20.354   6.269  0.00  0.00    +0.032 C 
ATOM      4  C   LIG    1       24.753 -21.643   6.462  0.00  0.00    +0.161 C 
ATOM      5  C   LIG    1       23.895 -22.297   5.293  0.00  0.00    +0.292 C 
ATOM      6  O   LIG    1       22.852 -21.472   4.756  0.00  0.00    -0.314 OA
ATOM      7  C   LIG    1       23.065 -20.109   5.035  0.00  0.00    +0.203 C 
ATOM      8  O   LIG    1       23.168 -19.841   6.451  0.00  0.00    -0.199 OA
ATOM      9  C   LIG    1       24.290 -19.728   4.191  0.00  0.00    +0.068 C 
ATOM     10  C   LIG    1       21.892 -19.279   4.509  0.00  0.00    +0.077 C 
ATOM     11  O   LIG    1       23.126 -23.432   5.708  0.00  0.00    -0.320 OA
ATOM     12  C   LIG    1       23.784 -24.472   6.372  0.00  0.00    +0.253 C 
ATOM     13  C   LIG    1       25.255 -24.205   6.624  0.00  0.00    +0.048 C 
ATOM     14  C   LIG    1       25.862 -25.395   7.391  0.00  0.00    +0.013 C 
ATOM     15  C   LIG    1       25.440 -22.808   7.300  0.00  0.00    +0.037 C 
ATOM     16  C   LIG    1       26.955 -22.656   7.524  0.00  0.00    +0.007 C 
ATOM     17  O   LIG    1       23.619 -21.073   7.209  0.00  0.00    -0.220 OA
ATOM     18  C   LIG    1       25.589 -19.606   4.936  0.00  0.00    +0.012 C 
ATOM     19  C   LIG    1       27.370 -21.278   7.953  0.00  0.00    +0.004 C 
ENDROOT
BRANCH  12  20
ATOM     20  O   LIG    1       23.637 -25.635   5.567  0.00  0.00    -0.367 OA
ATOM     21  H   LIG    1       23.565 -26.355   6.188  0.00  0.00    +0.212 HD
ENDBRANCH  12  20
TORSDOF 1
ENDMDL
MODEL 2
REMARK VINA RESULT:      -7.1      1.652      4.305
REMARK  Name = *****
REMARK                            x       y       z     vdW  Elec       q    Type
REMARK                         _______ _______ _______ _____ _____    ______ ____
ROOT
ATOM      1  C   LIG    1       27.731 -20.018   8.161  0.00  0.00    +0.008 C 
ATOM      2  C   LIG    1       27.606 -20.963   6.960  0.00  0.00    -0.008 C 
ATOM      3  C   LIG    1       26.174 -21.513   6.692  0.00  0.00    +0.032 C 
ATOM      4  C   LIG    1       25.280 -21.013   5.451  0.00  0.00    +0.161 C 
ATOM      5  C   LIG    1       23.750 -20.594   5.572  0.00  0.00    +0.292 C 
ATOM      6  O   LIG    1       22.849 -21.645   5.944  0.00  0.00    -0.314 OA
ATOM      7  C   LIG    1       23.520 -22.716   6.564  0.00  0.00    +0.203 C 
ATOM      8  O   LIG    1       24.552 -23.284   5.728  0.00  0.00    -0.199 OA
ATOM      9  C   LIG    1       23.986 -22.152   7.913  0.00  0.00    +0.068 C 
ATOM     10  C   LIG    1       22.530 -23.841   6.875  0.00  0.00    +0.077 C 
ATOM     11  O   LIG    1       23.163 -20.191   4.329  0.00  0.00    -0.320 OA
ATOM     12  C   LIG    1       23.807 -19.201   3.581  0.00  0.00    +0.253 C 
ATOM     13  C   LIG    1       25.115 -18.730   4.185  0.00  0.00    +0.048 C 
ATOM     14  C   LIG    1       25.750 -17.674   3.260  0.00  0.00    +0.013 C 
ATOM     15  C   LIG    1       26.024 -19.956   4.523  0.00  0.00    +0.037 C 
ATOM     16  C   LIG    1       27.319 -19.362   5.104  0.00  0.00    +0.007 C 
ATOM     17  O   LIG    1       25.056 -22.271   4.719  0.00  0.00    -0.220 OA
ATOM     18  C   LIG    1       25.442 -21.793   8.008  0.00  0.00    +0.012 C 
ATOM     19  C   LIG    1       28.237 -20.384   5.712  0.00  0.00    +0.004 C 
ENDROOT
BRANCH  12  20
ATOM     20  O   LIG    1       22.904 -18.107   3.477  0.00  0.00    -0.367 OA
ATOM     21  H   LIG    1       23.034 -17.606   4.277  0.00  0.00    +0.212 HD
ENDBRANCH  12  20
TORSDOF 1
ENDMDL
MODEL 3
REMARK VINA RESULT:      -6.6      2.387      5.189
REMARK  Name = *****
REMARK                            x       y       z     vdW  Elec       q    Type
REMARK                         _______ _______ _______ _____ _____    ______ ____
ROOT
ATOM      1  C   LIG    1       23.649 -24.355   6.442  0.00  0.00    +0.008 C 
ATOM      2  C   LIG    1       23.713 -23.067   7.272  0.00  0.00    -0.008 C 
ATOM      3  C   LIG    1       25.091 -22.341   7.267  0.00  0.00    +0.032 C 
ATOM      4  C   LIG    1       25.333 -20.963   6.472  0.00  0.00    +0.161 C 
ATOM      5  C   LIG    1       26.586 -20.691   5.530  0.00  0.00    +0.292 C 
ATOM      6  O   LIG    1       27.859 -20.667   6.187  0.00  0.00    -0.314 OA
ATOM      7  C   LIG    1       27.820 -21.324   7.432  0.00  0.00    +0.203 C 
ATOM      8  O   LIG    1       26.840 -20.757   8.329  0.00  0.00    -0.199 OA
ATOM      9  C   LIG    1       27.628 -22.806   7.081  0.00  0.00    +0.068 C 
ATOM     10  C   LIG    1       29.178 -21.208   8.126  0.00  0.00    +0.077 C 
ATOM     11  O   LIG    1       26.588 -19.387   4.936  0.00  0.00    -0.320 OA
ATOM     12  C   LIG    1       25.448 -18.973   4.241  0.00  0.00    +0.253 C 
ATOM     13  C   LIG    1       24.310 -19.975   4.277  0.00  0.00    +0.048 C 
ATOM     14  C   LIG    1       23.102 -19.398   3.515  0.00  0.00    +0.013 C 
ATOM     15  C   LIG    1       24.026 -20.414   5.750  0.00  0.00    +0.037 C 
ATOM     16  C   LIG    1       22.851 -21.405   5.665  0.00  0.00    +0.007 C 
ATOM     17  O   LIG    1       25.736 -20.057   7.561  0.00  0.00    -0.220 OA
ATOM     18  C   LIG    1       26.241 -23.353   7.272  0.00  0.00    +0.012 C 
ATOM     19  C   LIG    1       22.572 -22.126   6.952  0.00  0.00    +0.004 C 
ENDROOT
BRANCH  12  20
ATOM     20  O   LIG    1       25.844 -18.744   2.894  0.00  0.00    -0.367 OA
ATOM     21  H   LIG    1       26.124 -17.833   2.873  0.00  0.00    +0.212 HD
ENDBRANCH  12  20
TORSDOF 1
ENDMDL
MODEL 4
REMARK VINA RESULT:      -6.2      6.651      9.110
REMARK  Name = *****
REMARK                            x       y       z     vdW  Elec       q    Type
REMARK                         _______ _______ _______ _____ _____    ______ ____
ROOT
ATOM      1  C   LIG    1       26.716 -27.569   4.701  0.00  0.00    +0.008 C 
ATOM      2  C   LIG    1       25.360 -27.794   5.379  0.00  0.00    -0.008 C 
ATOM      3  C   LIG    1       25.023 -29.276   5.718  0.00  0.00    +0.032 C 
ATOM      4  C   LIG    1       25.038 -29.836   7.227  0.00  0.00    +0.161 C 
ATOM      5  C   LIG    1       25.739 -31.196   7.662  0.00  0.00    +0.292 C 
ATOM      6  O   LIG    1       25.173 -32.389   7.103  0.00  0.00    -0.314 OA
ATOM      7  C   LIG    1       24.415 -32.119   5.948  0.00  0.00    +0.203 C 
ATOM      8  O   LIG    1       23.342 -31.184   6.193  0.00  0.00    -0.199 OA
ATOM      9  C   LIG    1       25.450 -31.691   4.898  0.00  0.00    +0.068 C 
ATOM     10  C   LIG    1       23.772 -33.409   5.433  0.00  0.00    +0.077 C 
ATOM     11  O   LIG    1       25.611 -31.489   9.058  0.00  0.00    -0.320 OA
ATOM     12  C   LIG    1       25.996 -30.511   9.979  0.00  0.00    +0.253 C 
ATOM     13  C   LIG    1       26.444 -29.211   9.341  0.00  0.00    +0.048 C 
ATOM     14  C   LIG    1       26.805 -28.201  10.448  0.00  0.00    +0.013 C 
ATOM     15  C   LIG    1       25.377 -28.721   8.310  0.00  0.00    +0.037 C 
ATOM     16  C   LIG    1       25.924 -27.397   7.748  0.00  0.00    +0.007 C 
ATOM     17  O   LIG    1       23.649 -30.300   7.386  0.00  0.00    -0.220 OA
ATOM     18  C   LIG    1       25.535 -30.216   4.622  0.00  0.00    +0.012 C 
ATOM     19  C   LIG    1       25.158 -26.877   6.565  0.00  0.00    +0.004 C 
ENDROOT
BRANCH  12  20
ATOM     20  O   LIG    1       27.059 -31.061  10.749  0.00  0.00    -0.367 OA
ATOM     21  H   LIG    1       27.432 -31.743  10.197  0.00  0.00    +0.212 HD
ENDBRANCH  12  20
TORSDOF 1
ENDMDL
MODEL 5
REMARK VINA RESULT:      -6.1      6.742      9.905
REMARK  Name = *****
REMARK                            x       y       z     vdW  Elec       q    Type
REMARK                         _______ _______ _______ _____ _____    ______ ____
ROOT
ATOM      1  C   LIG    1       25.273 -28.114  12.157  0.00  0.00    +0.008 C 
ATOM      2  C   LIG    1       26.042 -29.225  11.430  0.00  0.00    -0.008 C 
ATOM      3  C   LIG    1       25.158 -30.328  10.777  0.00  0.00    +0.032 C 
ATOM      4  C   LIG    1       24.962 -30.439   9.184  0.00  0.00    +0.161 C 
ATOM      5  C   LIG    1       23.551 -30.638   8.476  0.00  0.00    +0.292 C 
ATOM      6  O   LIG    1       22.886 -31.875   8.759  0.00  0.00    -0.314 OA
ATOM      7  C   LIG    1       23.372 -32.475   9.936  0.00  0.00    +0.203 C 
ATOM      8  O   LIG    1       24.793 -32.729   9.885  0.00  0.00    -0.199 OA
ATOM      9  C   LIG    1       22.897 -31.550  11.066  0.00  0.00    +0.068 C 
ATOM     10  C   LIG    1       22.686 -33.825  10.155  0.00  0.00    +0.077 C 
ATOM     11  O   LIG    1       23.629 -30.717   7.048  0.00  0.00    -0.320 OA
ATOM     12  C   LIG    1       24.299 -29.700   6.362  0.00  0.00    +0.253 C 
ATOM     13  C   LIG    1       24.925 -28.659   7.269  0.00  0.00    +0.048 C 
ATOM     14  C   LIG    1       25.664 -27.615   6.409  0.00  0.00    +0.013 C 
ATOM     15  C   LIG    1       25.791 -29.353   8.369  0.00  0.00    +0.037 C 
ATOM     16  C   LIG    1       26.387 -28.209   9.208  0.00  0.00    +0.007 C 
ATOM     17  O   LIG    1       25.481 -31.791   8.914  0.00  0.00    -0.220 OA
ATOM     18  C   LIG    1       23.940 -30.640  11.652  0.00  0.00    +0.012 C 
ATOM     19  C   LIG    1       27.067 -28.670  10.466  0.00  0.00    +0.004 C 
ENDROOT
BRANCH  12  20
ATOM     20  O   LIG    1       23.347 -29.081   5.505  0.00  0.00    -0.367 OA
ATOM     21  H   LIG    1       23.669 -29.244   4.623  0.00  0.00    +0.212 HD
ENDBRANCH  12  20
TORSDOF 1
ENDMDL
MODEL 6
REMARK VINA RESULT:      -6.0      2.022      4.828
REMARK  Name = *****
REMARK                            x       y       z     vdW  Elec       q    Type
REMARK                         _______ _______ _______ _____ _____    ______ ____
ROOT
ATOM      1  C   LIG    1       24.184 -25.202   6.089  0.00  0.00    +0.008 C 
ATOM      2  C   LIG    1       23.832 -24.117   7.114  0.00  0.00    -0.008 C 
ATOM      3  C   LIG    1       24.793 -22.892   7.143  0.00  0.00    +0.032 C 
ATOM      4  C   LIG    1       24.363 -21.450   6.571  0.00  0.00    +0.161 C 
ATOM      5  C   LIG    1       25.275 -20.569   5.611  0.00  0.00    +0.292 C 
ATOM      6  O   LIG    1       26.504 -20.103   6.182  0.00  0.00    -0.314 OA
ATOM      7  C   LIG    1       26.885 -20.866   7.302  0.00  0.00    +0.203 C 
ATOM      8  O   LIG    1       25.881 -20.872   8.339  0.00  0.00    -0.199 OA
ATOM      9  C   LIG    1       27.260 -22.239   6.724  0.00  0.00    +0.068 C 
ATOM     10  C   LIG    1       28.159 -20.286   7.919  0.00  0.00    +0.077 C 
ATOM     11  O   LIG    1       24.682 -19.319   5.241  0.00  0.00    -0.320 OA
ATOM     12  C   LIG    1       23.395 -19.330   4.696  0.00  0.00    +0.253 C 
ATOM     13  C   LIG    1       22.766 -20.709   4.637  0.00  0.00    +0.048 C 
ATOM     14  C   LIG    1       21.343 -20.593   4.058  0.00  0.00    +0.013 C 
ATOM     15  C   LIG    1       22.867 -21.406   6.033  0.00  0.00    +0.037 C 
ATOM     16  C   LIG    1       22.185 -22.775   5.860  0.00  0.00    +0.007 C 
ATOM     17  O   LIG    1       24.503 -20.602   7.767  0.00  0.00    -0.220 OA
ATOM     18  C   LIG    1       26.242 -23.329   6.909  0.00  0.00    +0.012 C 
ATOM     19  C   LIG    1       22.380 -23.702   7.025  0.00  0.00    +0.004 C 
ENDROOT
BRANCH  12  20
ATOM     20  O   LIG    1       23.496 -18.792   3.383  0.00  0.00    -0.367 OA
ATOM     21  H   LIG    1       24.229 -18.184   3.423  0.00  0.00    +0.212 HD
ENDBRANCH  12  20
TORSDOF 1
ENDMDL
MODEL 7
REMARK VINA RESULT:      -5.7      5.666      8.546
REMARK  Name = *****
REMARK                            x       y       z     vdW  Elec       q    Type
REMARK                         _______ _______ _______ _____ _____    ______ ____
ROOT
ATOM      1  C   LIG    1       27.312 -29.663  10.189  0.00  0.00    +0.008 C 
ATOM      2  C   LIG    1       25.845 -29.813   9.770  0.00  0.00    -0.008 C 
ATOM      3  C   LIG    1       25.467 -29.144   8.415  0.00  0.00    +0.032 C 
ATOM      4  C   LIG    1       25.164 -30.003   7.089  0.00  0.00    +0.161 C 
ATOM      5  C   LIG    1       25.777 -29.671   5.658  0.00  0.00    +0.292 C 
ATOM      6  O   LIG    1       25.365 -28.425   5.083  0.00  0.00    -0.314 OA
ATOM      7  C   LIG    1       24.870 -27.536   6.056  0.00  0.00    +0.203 C 
ATOM      8  O   LIG    1       23.754 -28.082   6.793  0.00  0.00    -0.199 OA
ATOM      9  C   LIG    1       26.101 -27.153   6.891  0.00  0.00    +0.068 C 
ATOM     10  C   LIG    1       24.376 -26.252   5.387  0.00  0.00    +0.077 C 
ATOM     11  O   LIG    1       25.355 -30.573   4.628  0.00  0.00    -0.320 OA
ATOM     12  C   LIG    1       25.514 -31.945   4.841  0.00  0.00    +0.253 C 
ATOM     13  C   LIG    1       26.069 -32.293   6.208  0.00  0.00    +0.048 C 
ATOM     14  C   LIG    1       26.164 -33.825   6.342  0.00  0.00    +0.013 C 
ATOM     15  C   LIG    1       25.242 -31.574   7.323  0.00  0.00    +0.037 C 
ATOM     16  C   LIG    1       25.876 -32.014   8.655  0.00  0.00    +0.007 C 
ATOM     17  O   LIG    1       23.781 -29.598   6.781  0.00  0.00    -0.220 OA
ATOM     18  C   LIG    1       26.219 -27.822   8.232  0.00  0.00    +0.012 C 
ATOM     19  C   LIG    1       25.375 -31.250   9.847  0.00  0.00    +0.004 C 
ENDROOT
BRANCH  12  20
ATOM     20  O   LIG    1       26.395 -32.422   3.830  0.00  0.00    -0.367 OA
ATOM     21  H   LIG    1       27.216 -31.963   3.984  0.00  0.00    +0.212 HD
ENDBRANCH  12  20
TORSDOF 1
ENDMDL
MODEL 8
REMARK VINA RESULT:      -5.5      8.559     10.415
REMARK  Name = *****
REMARK                            x       y       z     vdW  Elec       q    Type
REMARK                         _______ _______ _______ _____ _____    ______ ____
ROOT
ATOM      1  C   LIG    1       22.294 -27.241  13.141  0.00  0.00    +0.008 C 
ATOM      2  C   LIG    1       22.899 -28.626  13.400  0.00  0.00    -0.008 C 
ATOM      3  C   LIG    1       22.501 -29.728  12.374  0.00  0.00    +0.032 C 
ATOM      4  C   LIG    1       23.535 -30.296  11.280  0.00  0.00    +0.161 C 
ATOM      5  C   LIG    1       23.182 -30.486   9.740  0.00  0.00    +0.292 C 
ATOM      6  O   LIG    1       22.169 -31.458   9.454  0.00  0.00    -0.314 OA
ATOM      7  C   LIG    1       21.369 -31.730  10.580  0.00  0.00    +0.203 C 
ATOM      8  O   LIG    1       22.139 -32.202  11.708  0.00  0.00    -0.199 OA
ATOM      9  C   LIG    1       20.570 -30.439  10.808  0.00  0.00    +0.068 C 
ATOM     10  C   LIG    1       20.353 -32.824  10.247  0.00  0.00    +0.077 C 
ATOM     11  O   LIG    1       24.263 -31.015   8.963  0.00  0.00    -0.320 OA
ATOM     12  C   LIG    1       25.504 -30.376   9.029  0.00  0.00    +0.253 C 
ATOM     13  C   LIG    1       25.543 -29.214  10.001  0.00  0.00    +0.048 C 
ATOM     14  C   LIG    1       26.963 -28.614  10.018  0.00  0.00    +0.013 C 
ATOM     15  C   LIG    1       24.988 -29.657  11.393  0.00  0.00    +0.037 C 
ATOM     16  C   LIG    1       25.096 -28.415  12.295  0.00  0.00    +0.007 C 
ATOM     17  O   LIG    1       23.577 -31.728  11.624  0.00  0.00    -0.220 OA
ATOM     18  C   LIG    1       21.044 -29.563  11.934  0.00  0.00    +0.012 C 
ATOM     19  C   LIG    1       24.396 -28.561  13.616  0.00  0.00    +0.004 C 
ENDROOT
BRANCH  12  20
ATOM     20  O   LIG    1       25.803 -29.915   7.716  0.00  0.00    -0.367 OA
ATOM     21  H   LIG    1       25.096 -30.252   7.172  0.00  0.00    +0.212 HD
ENDBRANCH  12  20
TORSDOF 1
ENDMDL
MODEL 9
REMARK VINA RESULT:      -5.3      9.018     10.579
REMARK  Name = *****
REMARK                            x       y       z     vdW  Elec       q    Type
REMARK                         _______ _______ _______ _____ _____    ______ ____
ROOT
ATOM      1  C   LIG    1       23.432 -30.225   9.303  0.00  0.00    +0.008 C 
ATOM      2  C   LIG    1       23.761 -30.714  10.718  0.00  0.00    -0.008 C 
ATOM      3  C   LIG    1       25.082 -30.156  11.325  0.00  0.00    +0.032 C 
ATOM      4  C   LIG    1       25.090 -29.058  12.501  0.00  0.00    +0.161 C 
ATOM      5  C   LIG    1       26.003 -27.755  12.492  0.00  0.00    +0.292 C 
ATOM      6  O   LIG    1       27.416 -27.990  12.547  0.00  0.00    -0.314 OA
ATOM      7  C   LIG    1       27.746 -29.299  12.148  0.00  0.00    +0.203 C 
ATOM      8  O   LIG    1       27.090 -30.307  12.949  0.00  0.00    -0.199 OA
ATOM      9  C   LIG    1       27.438 -29.334  10.645  0.00  0.00    +0.068 C 
ATOM     10  C   LIG    1       29.252 -29.525  12.294  0.00  0.00    +0.077 C 
ATOM     11  O   LIG    1       25.841 -26.931  13.653  0.00  0.00    -0.320 OA
ATOM     12  C   LIG    1       24.550 -26.531  14.008  0.00  0.00    +0.253 C 
ATOM     13  C   LIG    1       23.464 -27.105  13.120  0.00  0.00    +0.048 C 
ATOM     14  C   LIG    1       22.089 -26.630  13.628  0.00  0.00    +0.013 C 
ATOM     15  C   LIG    1       23.633 -28.654  12.996  0.00  0.00    +0.037 C 
ATOM     16  C   LIG    1       22.475 -29.124  12.098  0.00  0.00    +0.007 C 
ATOM     17  O   LIG    1       25.815 -29.769  13.568  0.00  0.00    -0.220 OA
ATOM     18  C   LIG    1       26.166 -30.032  10.250  0.00  0.00    +0.012 C 
ATOM     19  C   LIG    1       22.588 -30.557  11.662  0.00  0.00    +0.004 C 
ENDROOT
BRANCH  12  20
ATOM     20  O   LIG    1       24.524 -25.110  13.943  0.00  0.00    -0.367 OA
ATOM     21  H   LIG    1       23.960 -24.909  13.201  0.00  0.00    +0.212 HD
ENDBRANCH  12  20
TORSDOF 1
ENDMDL
