MODEL 1
REMARK VINA RESULT:      -3.3      0.000      0.000
REMARK  Name = *****
REMARK                            x       y       z     vdW  Elec       q    Type
REMARK                         _______ _______ _______ _____ _____    ______ ____
ROOT
ATOM      1  C   LIG    1       23.514 -18.865   3.215  0.00  0.00    +0.138 C 
ENDROOT
BRANCH   1   2
ATOM      2  N   LIG    1       24.327 -19.684   4.112  0.00  0.00    -0.323 N 
ATOM      3  C   LIG    1       25.616 -19.455   4.518  0.00  0.00    +0.151 A 
ATOM      4  C   LIG    1       26.566 -18.459   4.151  0.00  0.00    +0.282 C 
ATOM      5  N   LIG    1       27.779 -18.587   4.839  0.00  0.00    -0.262 N 
ATOM      6  C   LIG    1       28.089 -19.586   5.783  0.00  0.00    +0.333 C 
ATOM      7  N   LIG    1       27.087 -20.508   6.088  0.00  0.00    -0.280 N 
ATOM      8  C   LIG    1       27.328 -21.559   7.059  0.00  0.00    +0.155 C 
ATOM      9  O   LIG    1       29.203 -19.633   6.314  0.00  0.00    -0.246 OA
ATOM     10  C   LIG    1       28.833 -17.637   4.539  0.00  0.00    +0.157 C 
ATOM     11  O   LIG    1       26.330 -17.590   3.326  0.00  0.00    -0.265 OA
ATOM     12  C   LIG    1       25.872 -20.418   5.447  0.00  0.00    +0.168 A 
ATOM     13  N   LIG    1       24.800 -21.233   5.644  0.00  0.00    -0.218 NA
ATOM     14  C   LIG    1       23.876 -20.766   4.828  0.00  0.00    +0.202 A 
ENDBRANCH   1   2
BRANCH   1  15
ATOM     15  C   LIG    1       22.877 -17.725   4.026  0.00  0.00    +0.103 C 
BRANCH  15  16
ATOM     16  N   LIG    1       23.706 -16.551   4.330  0.00  0.00    -0.311 NA
ATOM     17  H   LIG    1       24.107 -16.649   5.267  0.00  0.00    +0.122 HD
BRANCH  16  19
ATOM     18  C   LIG    1       22.587 -14.935   5.770  0.00  0.00    +0.024 C 
ATOM     19  C   LIG    1       22.884 -15.297   4.311  0.00  0.00    +0.055 C 
BRANCH  19  20
ATOM     20  C   LIG    1       23.565 -14.108   3.568  0.00  0.00    +0.053 C 
BRANCH  20  21
ATOM     21  C   LIG    1       25.069 -13.971   3.728  0.00  0.00    -0.046 A 
ATOM     22  C   LIG    1       25.948 -14.243   2.669  0.00  0.00    +0.003 A 
ATOM     23  C   LIG    1       27.333 -14.142   2.848  0.00  0.00    +0.000 A 
ATOM     24  C   LIG    1       27.857 -13.779   4.087  0.00  0.00    +0.000 A 
ATOM     25  C   LIG    1       26.996 -13.519   5.149  0.00  0.00    +0.000 A 
ATOM     26  C   LIG    1       25.613 -13.613   4.971  0.00  0.00    +0.003 A 
ENDBRANCH  20  21
ENDBRANCH  19  20
ENDBRANCH  16  19
ENDBRANCH  15  16
ENDBRANCH   1  15
TORSDOF 6
ENDMDL
MODEL 2
REMARK VINA RESULT:      -3.2      2.099      6.023
REMARK  Name = *****
REMARK                            x       y       z     vdW  Elec       q    Type
REMARK                         _______ _______ _______ _____ _____    ______ ____
ROOT
ATOM      1  C   LIG    1       23.858 -18.152   3.643  0.00  0.00    +0.138 C 
ENDROOT
BRANCH   1   2
ATOM      2  N   LIG    1       23.712 -16.762   4.073  0.00  0.00    -0.323 N 
ATOM      3  C   LIG    1       24.613 -15.741   3.926  0.00  0.00    +0.151 A 
ATOM      4  C   LIG    1       25.947 -15.714   3.424  0.00  0.00    +0.282 C 
ATOM      5  N   LIG    1       26.504 -14.429   3.435  0.00  0.00    -0.262 N 
ATOM      6  C   LIG    1       25.871 -13.260   3.903  0.00  0.00    +0.333 C 
ATOM      7  N   LIG    1       24.559 -13.386   4.361  0.00  0.00    -0.280 N 
ATOM      8  C   LIG    1       23.836 -12.224   4.847  0.00  0.00    +0.155 C 
ATOM      9  O   LIG    1       26.460 -12.175   3.901  0.00  0.00    -0.246 OA
ATOM     10  C   LIG    1       27.866 -14.276   2.962  0.00  0.00    +0.157 C 
ATOM     11  O   LIG    1       26.525 -16.712   3.027  0.00  0.00    -0.265 OA
ATOM     12  C   LIG    1       23.962 -14.626   4.360  0.00  0.00    +0.168 A 
ATOM     13  N   LIG    1       22.691 -14.904   4.764  0.00  0.00    -0.218 NA
ATOM     14  C   LIG    1       22.563 -16.202   4.577  0.00  0.00    +0.202 A 
ENDBRANCH   1   2
BRANCH   1  15
ATOM     15  C   LIG    1       22.640 -18.952   4.133  0.00  0.00    +0.103 C 
BRANCH  15  16
ATOM     16  N   LIG    1       22.665 -19.470   5.507  0.00  0.00    -0.311 NA
ATOM     17  H   LIG    1       23.453 -19.059   6.014  0.00  0.00    +0.122 HD
BRANCH  16  19
ATOM     18  C   LIG    1       21.583 -21.561   4.879  0.00  0.00    +0.024 C 
ATOM     19  C   LIG    1       22.841 -20.959   5.515  0.00  0.00    +0.055 C 
BRANCH  19  20
ATOM     20  C   LIG    1       24.127 -21.445   4.779  0.00  0.00    +0.053 C 
BRANCH  20  21
ATOM     21  C   LIG    1       25.457 -20.993   5.355  0.00  0.00    -0.046 A 
ATOM     22  C   LIG    1       26.249 -20.034   4.706  0.00  0.00    +0.003 A 
ATOM     23  C   LIG    1       27.489 -19.655   5.237  0.00  0.00    +0.000 A 
ATOM     24  C   LIG    1       27.955 -20.234   6.415  0.00  0.00    +0.000 A 
ATOM     25  C   LIG    1       27.184 -21.196   7.061  0.00  0.00    +0.000 A 
ATOM     26  C   LIG    1       25.945 -21.571   6.536  0.00  0.00    +0.003 A 
ENDBRANCH  20  21
ENDBRANCH  19  20
ENDBRANCH  16  19
ENDBRANCH  15  16
ENDBRANCH   1  15
TORSDOF 6
ENDMDL
MODEL 3
REMARK VINA RESULT:      -3.0      2.450      6.105
REMARK  Name = *****
REMARK                            x       y       z     vdW  Elec       q    Type
REMARK                         _______ _______ _______ _____ _____    ______ ____
ROOT
ATOM      1  C   LIG    1       23.599 -17.737   3.690  0.00  0.00    +0.138 C 
ENDROOT
BRANCH   1   2
ATOM      2  N   LIG    1       24.866 -17.020   3.555  0.00  0.00    -0.323 N 
ATOM      3  C   LIG    1       25.108 -15.693   3.797  0.00  0.00    +0.151 A 
ATOM      4  C   LIG    1       24.242 -14.617   4.145  0.00  0.00    +0.282 C 
ATOM      5  N   LIG    1       24.925 -13.407   4.322  0.00  0.00    -0.262 N 
ATOM      6  C   LIG    1       26.311 -13.212   4.160  0.00  0.00    +0.333 C 
ATOM      7  N   LIG    1       27.078 -14.331   3.833  0.00  0.00    -0.280 N 
ATOM      8  C   LIG    1       28.515 -14.212   3.662  0.00  0.00    +0.155 C 
ATOM      9  O   LIG    1       26.817 -12.095   4.307  0.00  0.00    -0.246 OA
ATOM     10  C   LIG    1       24.147 -12.231   4.664  0.00  0.00    +0.157 C 
ATOM     11  O   LIG    1       23.036 -14.753   4.277  0.00  0.00    -0.265 OA
ATOM     12  C   LIG    1       26.455 -15.546   3.660  0.00  0.00    +0.168 A 
ATOM     13  N   LIG    1       27.066 -16.723   3.351  0.00  0.00    -0.218 NA
ATOM     14  C   LIG    1       26.084 -17.600   3.297  0.00  0.00    +0.202 A 
ENDBRANCH   1   2
BRANCH   1  15
ATOM     15  C   LIG    1       23.891 -19.241   3.806  0.00  0.00    +0.103 C 
BRANCH  15  16
ATOM     16  N   LIG    1       23.173 -20.005   4.834  0.00  0.00    -0.311 NA
ATOM     17  H   LIG    1       22.907 -19.380   5.600  0.00  0.00    +0.122 HD
BRANCH  16  19
ATOM     18  C   LIG    1       24.964 -21.558   4.274  0.00  0.00    +0.024 C 
ATOM     19  C   LIG    1       24.042 -21.085   5.403  0.00  0.00    +0.055 C 
BRANCH  19  20
ATOM     20  C   LIG    1       24.867 -20.640   6.649  0.00  0.00    +0.053 C 
BRANCH  20  21
ATOM     21  C   LIG    1       26.376 -20.593   6.491  0.00  0.00    -0.046 A 
ATOM     22  C   LIG    1       27.204 -21.572   7.062  0.00  0.00    +0.003 A 
ATOM     23  C   LIG    1       28.596 -21.492   6.932  0.00  0.00    +0.000 A 
ATOM     24  C   LIG    1       29.178 -20.431   6.240  0.00  0.00    +0.000 A 
ATOM     25  C   LIG    1       28.367 -19.447   5.682  0.00  0.00    +0.000 A 
ATOM     26  C   LIG    1       26.978 -19.528   5.805  0.00  0.00    +0.003 A 
ENDBRANCH  20  21
ENDBRANCH  19  20
ENDBRANCH  16  19
ENDBRANCH  15  16
ENDBRANCH   1  15
TORSDOF 6
ENDMDL
MODEL 4
REMARK VINA RESULT:      -2.8      1.804      3.927
REMARK  Name = *****
REMARK                            x       y       z     vdW  Elec       q    Type
REMARK                         _______ _______ _______ _____ _____    ______ ____
ROOT
ATOM      1  C   LIG    1       28.330 -18.439   4.421  0.00  0.00    +0.138 C 
ENDROOT
BRANCH   1   2
ATOM      2  N   LIG    1       27.363 -19.179   5.228  0.00  0.00    -0.323 N 
ATOM      3  C   LIG    1       26.031 -19.372   4.973  0.00  0.00    +0.151 A 
ATOM      4  C   LIG    1       25.175 -18.867   3.952  0.00  0.00    +0.282 C 
ATOM      5  N   LIG    1       23.863 -19.346   4.058  0.00  0.00    -0.262 N 
ATOM      6  C   LIG    1       23.381 -20.212   5.058  0.00  0.00    +0.333 C 
ATOM      7  N   LIG    1       24.299 -20.666   6.005  0.00  0.00    -0.280 N 
ATOM      8  C   LIG    1       23.880 -21.571   7.060  0.00  0.00    +0.155 C 
ATOM      9  O   LIG    1       22.194 -20.554   5.084  0.00  0.00    -0.246 OA
ATOM     10  C   LIG    1       22.893 -18.889   3.081  0.00  0.00    +0.157 C 
ATOM     11  O   LIG    1       25.562 -18.103   3.082  0.00  0.00    -0.265 OA
ATOM     12  C   LIG    1       25.604 -20.233   5.938  0.00  0.00    +0.168 A 
ATOM     13  N   LIG    1       26.612 -20.593   6.780  0.00  0.00    -0.218 NA
ATOM     14  C   LIG    1       27.667 -19.946   6.328  0.00  0.00    +0.202 A 
ENDBRANCH   1   2
BRANCH   1  15
ATOM     15  C   LIG    1       28.350 -16.975   4.890  0.00  0.00    +0.103 C 
BRANCH  15  16
ATOM     16  N   LIG    1       27.668 -15.976   4.057  0.00  0.00    -0.311 NA
ATOM     17  H   LIG    1       28.077 -15.976   3.119  0.00  0.00    +0.122 HD
BRANCH  16  19
ATOM     18  C   LIG    1       28.411 -13.719   3.518  0.00  0.00    +0.024 C 
ATOM     19  C   LIG    1       27.833 -14.600   4.630  0.00  0.00    +0.055 C 
BRANCH  19  20
ATOM     20  C   LIG    1       26.514 -13.991   5.197  0.00  0.00    +0.053 C 
BRANCH  20  21
ATOM     21  C   LIG    1       25.578 -13.334   4.198  0.00  0.00    -0.046 A 
ATOM     22  C   LIG    1       25.580 -13.697   2.842  0.00  0.00    +0.003 A 
ATOM     23  C   LIG    1       24.732 -13.055   1.931  0.00  0.00    +0.000 A 
ATOM     24  C   LIG    1       23.879 -12.039   2.361  0.00  0.00    +0.000 A 
ATOM     25  C   LIG    1       23.878 -11.662   3.700  0.00  0.00    +0.000 A 
ATOM     26  C   LIG    1       24.719 -12.305   4.612  0.00  0.00    +0.003 A 
ENDBRANCH  20  21
ENDBRANCH  19  20
ENDBRANCH  16  19
ENDBRANCH  15  16
ENDBRANCH   1  15
TORSDOF 6
ENDMDL
MODEL 5
REMARK VINA RESULT:      -2.0      2.150      3.976
REMARK  Name = *****
REMARK                            x       y       z     vdW  Elec       q    Type
REMARK                         _______ _______ _______ _____ _____    ______ ____
ROOT
ATOM      1  C   LIG    1       26.405 -17.269   2.810  0.00  0.00    +0.138 C 
ENDROOT
BRANCH   1   2
ATOM      2  N   LIG    1       26.462 -18.230   3.910  0.00  0.00    -0.323 N 
ATOM      3  C   LIG    1       25.433 -18.969   4.431  0.00  0.00    +0.151 A 
ATOM      4  C   LIG    1       24.035 -18.978   4.158  0.00  0.00    +0.282 C 
ATOM      5  N   LIG    1       23.339 -19.924   4.921  0.00  0.00    -0.262 N 
ATOM      6  C   LIG    1       23.905 -20.782   5.885  0.00  0.00    +0.333 C 
ATOM      7  N   LIG    1       25.286 -20.710   6.069  0.00  0.00    -0.280 N 
ATOM      8  C   LIG    1       25.943 -21.571   7.037  0.00  0.00    +0.155 C 
ATOM      9  O   LIG    1       23.200 -21.563   6.531  0.00  0.00    -0.246 OA
ATOM     10  C   LIG    1       21.903 -20.017   4.743  0.00  0.00    +0.157 C 
ATOM     11  O   LIG    1       23.516 -18.236   3.340  0.00  0.00    -0.265 OA
ATOM     12  C   LIG    1       26.017 -19.804   5.335  0.00  0.00    +0.168 A 
ATOM     13  N   LIG    1       27.366 -19.625   5.397  0.00  0.00    -0.218 NA
ATOM     14  C   LIG    1       27.611 -18.671   4.522  0.00  0.00    +0.202 A 
ENDBRANCH   1   2
BRANCH   1  15
ATOM     15  C   LIG    1       26.534 -15.850   3.385  0.00  0.00    +0.103 C 
BRANCH  15  16
ATOM     16  N   LIG    1       27.882 -15.286   3.532  0.00  0.00    -0.311 NA
ATOM     17  H   LIG    1       28.520 -16.010   3.874  0.00  0.00    +0.122 HD
BRANCH  16  19
ATOM     18  C   LIG    1       28.491 -12.945   3.821  0.00  0.00    +0.024 C 
ATOM     19  C   LIG    1       27.887 -14.164   4.526  0.00  0.00    +0.055 C 
BRANCH  19  20
ATOM     20  C   LIG    1       26.479 -13.832   5.109  0.00  0.00    +0.053 C 
BRANCH  20  21
ATOM     21  C   LIG    1       25.535 -13.047   4.216  0.00  0.00    -0.046 A 
ATOM     22  C   LIG    1       24.579 -12.171   4.750  0.00  0.00    +0.003 A 
ATOM     23  C   LIG    1       23.695 -11.481   3.910  0.00  0.00    +0.000 A 
ATOM     24  C   LIG    1       23.750 -11.666   2.529  0.00  0.00    +0.000 A 
ATOM     25  C   LIG    1       24.686 -12.543   1.989  0.00  0.00    +0.000 A 
ATOM     26  C   LIG    1       25.572 -13.227   2.825  0.00  0.00    +0.003 A 
ENDBRANCH  20  21
ENDBRANCH  19  20
ENDBRANCH  16  19
ENDBRANCH  15  16
ENDBRANCH   1  15
TORSDOF 6
ENDMDL
MODEL 6
REMARK VINA RESULT:      -1.2      2.453      6.562
REMARK  Name = *****
REMARK                            x       y       z     vdW  Elec       q    Type
REMARK                         _______ _______ _______ _____ _____    ______ ____
ROOT
ATOM      1  C   LIG    1       25.429 -17.811   3.298  0.00  0.00    +0.138 C 
ENDROOT
BRANCH   1   2
ATOM      2  N   LIG    1       26.237 -16.625   3.577  0.00  0.00    -0.323 N 
ATOM      3  C   LIG    1       25.798 -15.379   3.940  0.00  0.00    +0.151 A 
ATOM      4  C   LIG    1       24.489 -14.831   4.066  0.00  0.00    +0.282 C 
ATOM      5  N   LIG    1       24.499 -13.496   4.491  0.00  0.00    -0.262 N 
ATOM      6  C   LIG    1       25.647 -12.725   4.757  0.00  0.00    +0.333 C 
ATOM      7  N   LIG    1       26.884 -13.356   4.621  0.00  0.00    -0.280 N 
ATOM      8  C   LIG    1       28.113 -12.629   4.889  0.00  0.00    +0.155 C 
ATOM      9  O   LIG    1       25.552 -11.542   5.099  0.00  0.00    -0.246 OA
ATOM     10  C   LIG    1       23.224 -12.823   4.641  0.00  0.00    +0.157 C 
ATOM     11  O   LIG    1       23.478 -15.471   3.828  0.00  0.00    -0.265 OA
ATOM     12  C   LIG    1       26.928 -14.671   4.216  0.00  0.00    +0.168 A 
ATOM     13  N   LIG    1       28.053 -15.421   4.049  0.00  0.00    -0.218 NA
ATOM     14  C   LIG    1       27.608 -16.601   3.666  0.00  0.00    +0.202 A 
ENDBRANCH   1   2
BRANCH   1  15
ATOM     15  C   LIG    1       26.175 -19.052   3.814  0.00  0.00    +0.103 C 
BRANCH  15  16
ATOM     16  N   LIG    1       25.426 -20.311   3.921  0.00  0.00    -0.311 NA
ATOM     17  H   LIG    1       24.450 -20.151   3.656  0.00  0.00    +0.122 HD
BRANCH  16  19
ATOM     18  C   LIG    1       26.710 -20.276   5.992  0.00  0.00    +0.024 C 
ATOM     19  C   LIG    1       25.441 -20.824   5.330  0.00  0.00    +0.055 C 
BRANCH  19  20
ATOM     20  C   LIG    1       24.172 -20.444   6.152  0.00  0.00    +0.053 C 
BRANCH  20  21
ATOM     21  C   LIG    1       22.926 -20.085   5.363  0.00  0.00    -0.046 A 
ATOM     22  C   LIG    1       22.013 -21.066   4.946  0.00  0.00    +0.003 A 
ATOM     23  C   LIG    1       20.887 -20.717   4.191  0.00  0.00    +0.000 A 
ATOM     24  C   LIG    1       20.664 -19.388   3.834  0.00  0.00    +0.000 A 
ATOM     25  C   LIG    1       21.570 -18.408   4.230  0.00  0.00    +0.000 A 
ATOM     26  C   LIG    1       22.691 -18.754   4.989  0.00  0.00    +0.003 A 
ENDBRANCH  20  21
ENDBRANCH  19  20
ENDBRANCH  16  19
ENDBRANCH  15  16
ENDBRANCH   1  15
TORSDOF 6
ENDMDL
MODEL 7
REMARK VINA RESULT:      -0.8      1.625      2.827
REMARK  Name = *****
REMARK                            x       y       z     vdW  Elec       q    Type
REMARK                         _______ _______ _______ _____ _____    ______ ____
ROOT
ATOM      1  C   LIG    1       23.124 -16.238   3.329  0.00  0.00    +0.138 C 
ENDROOT
BRANCH   1   2
ATOM      2  N   LIG    1       22.959 -17.548   3.958  0.00  0.00    -0.323 N 
ATOM      3  C   LIG    1       23.939 -18.437   4.311  0.00  0.00    +0.151 A 
ATOM      4  C   LIG    1       25.350 -18.427   4.110  0.00  0.00    +0.282 C 
ATOM      5  N   LIG    1       25.984 -19.548   4.662  0.00  0.00    -0.262 N 
ATOM      6  C   LIG    1       25.345 -20.609   5.332  0.00  0.00    +0.333 C 
ATOM      7  N   LIG    1       23.962 -20.520   5.493  0.00  0.00    -0.280 N 
ATOM      8  C   LIG    1       23.234 -21.570   6.184  0.00  0.00    +0.155 C 
ATOM      9  O   LIG    1       25.991 -21.572   5.757  0.00  0.00    -0.246 OA
ATOM     10  C   LIG    1       27.422 -19.659   4.507  0.00  0.00    +0.157 C 
ATOM     11  O   LIG    1       25.928 -17.529   3.520  0.00  0.00    -0.265 OA
ATOM     12  C   LIG    1       23.293 -19.433   4.978  0.00  0.00    +0.168 A 
ATOM     13  N   LIG    1       21.953 -19.202   5.064  0.00  0.00    -0.218 NA
ATOM     14  C   LIG    1       21.777 -18.053   4.443  0.00  0.00    +0.202 A 
ENDBRANCH   1   2
BRANCH   1  15
ATOM     15  C   LIG    1       23.405 -15.195   4.422  0.00  0.00    +0.103 C 
BRANCH  15  16
ATOM     16  N   LIG    1       23.479 -13.784   4.024  0.00  0.00    -0.311 NA
ATOM     17  H   LIG    1       22.536 -13.430   3.842  0.00  0.00    +0.122 HD
BRANCH  16  19
ATOM     18  C   LIG    1       24.440 -12.120   2.526  0.00  0.00    +0.024 C 
ATOM     19  C   LIG    1       24.280 -13.624   2.767  0.00  0.00    +0.055 C 
BRANCH  19  20
ATOM     20  C   LIG    1       25.668 -14.334   2.809  0.00  0.00    +0.053 C 
BRANCH  20  21
ATOM     21  C   LIG    1       26.728 -13.713   3.701  0.00  0.00    -0.046 A 
ATOM     22  C   LIG    1       26.525 -13.554   5.080  0.00  0.00    +0.003 A 
ATOM     23  C   LIG    1       27.503 -12.948   5.880  0.00  0.00    +0.000 A 
ATOM     24  C   LIG    1       28.689 -12.487   5.311  0.00  0.00    +0.000 A 
ATOM     25  C   LIG    1       28.895 -12.627   3.942  0.00  0.00    +0.000 A 
ATOM     26  C   LIG    1       27.924 -13.236   3.143  0.00  0.00    +0.003 A 
ENDBRANCH  20  21
ENDBRANCH  19  20
ENDBRANCH  16  19
ENDBRANCH  15  16
ENDBRANCH   1  15
TORSDOF 6
ENDMDL
