MODEL 1
REMARK VINA RESULT:      -8.6      0.000      0.000
REMARK  Name = *****
REMARK                            x       y       z     vdW  Elec       q    Type
REMARK                         _______ _______ _______ _____ _____    ______ ____
ROOT
ATOM      1  C   LIG    1       26.674 -20.731   7.179  0.00  0.00    -0.021 C 
ATOM      2  C   LIG    1       26.511 -21.764   8.283  0.00  0.00    +0.104 C 
ATOM      3  S   LIG    1       25.976 -23.372   7.655  0.00  0.00    -0.131 S 
ATOM      4  C   LIG    1       24.549 -22.675   6.799  0.00  0.00    +0.169 C 
ATOM      5  N   LIG    1       24.987 -21.676   5.836  0.00  0.00    -0.249 N 
ATOM      6  C   LIG    1       24.365 -22.248   4.775  0.00  0.00    +0.244 C 
ATOM      7  O   LIG    1       24.353 -21.947   3.592  0.00  0.00    -0.273 OA
ATOM      8  CA  LIG    1       24.005 -23.485   5.585  0.00  0.00    +0.191 C 
ATOM      9  CA  LIG    1       25.947 -20.723   5.992  0.00  0.00    +0.123 C 
ENDROOT
BRANCH   8  10
ATOM     10  N   LIG    1       24.749 -24.699   5.147  0.00  0.00    -0.301 N 
ATOM     11  H   LIG    1       25.503 -24.612   4.471  0.00  0.00    +0.149 HD
ATOM     12  C   LIG    1       24.459 -25.936   5.674  0.00  0.00    +0.220 C 
ATOM     13  O   LIG    1       23.611 -26.046   6.554  0.00  0.00    -0.275 OA
BRANCH  12  14
ATOM     14  C   LIG    1       25.235 -27.087   5.046  0.00  0.00    +0.151 C 
BRANCH  14  15
ATOM     15  C   LIG    1       25.110 -28.379   5.795  0.00  0.00    +0.059 A 
ATOM     16  N   LIG    1       24.718 -29.515   5.095  0.00  0.00    -0.230 NA
ATOM     17  C   LIG    1       24.655 -30.549   5.900  0.00  0.00    +0.156 A 
ATOM     18  S   LIG    1       25.090 -30.244   7.529  0.00  0.00    -0.061 S 
ATOM     19  C   LIG    1       25.304 -28.595   7.149  0.00  0.00    +0.072 A 
BRANCH  17  20
ATOM     20  N   LIG    1       24.271 -31.772   5.509  0.00  0.00    -0.338 N 
ATOM     21  H   LIG    1       24.872 -32.262   4.860  0.00  0.00    +0.144 HD
ATOM     22  H   LIG    1       23.731 -32.346   6.142  0.00  0.00    +0.144 HD
ENDBRANCH  17  20
ENDBRANCH  14  15
ENDBRANCH  12  14
ENDBRANCH   8  10
BRANCH   9  23
ATOM     23  C   LIG    1       26.260 -19.723   4.921  0.00  0.00    +0.351 C 
ATOM     24  O   LIG    1       25.406 -19.075   4.334  0.00  0.00    -0.244 OA
BRANCH  23  25
ATOM     25  OXT LIG    1       27.539 -19.553   4.557  0.00  0.00    -0.476 OA
ATOM     26  HXT LIG    1       28.064 -20.348   4.317  0.00  0.00    +0.295 HD
ENDBRANCH  23  25
ENDBRANCH   9  23
BRANCH   1  27
ATOM     27  C   LIG    1       27.786 -19.750   7.500  0.00  0.00    +0.111 C 
BRANCH  27  28
ATOM     28  S   LIG    1       29.369 -20.258   6.722  0.00  0.00    -0.080 S 
BRANCH  28  30
ATOM     29  N   LIG    1       31.431 -19.991   8.546  0.00  0.00    -0.219 N 
ATOM     30  C   LIG    1       30.338 -20.680   8.094  0.00  0.00    +0.210 A 
ATOM     31  N   LIG    1       30.195 -21.762   8.828  0.00  0.00    -0.102 NA
ATOM     32  N   LIG    1       31.231 -21.744   9.734  0.00  0.00    -0.022 NA
ATOM     33  N   LIG    1       31.984 -20.663   9.576  0.00  0.00    -0.043 NA
BRANCH  29  34
ATOM     34  C   LIG    1       31.923 -18.684   8.189  0.00  0.00    +0.163 C 
BRANCH  34  35
ATOM     35  C   LIG    1       31.431 -17.556   9.102  0.00  0.00    +0.107 C 
BRANCH  35  37
ATOM     36  C   LIG    1       33.023 -16.032  10.061  0.00  0.00    +0.104 C 
ATOM     37  N   LIG    1       32.307 -17.298  10.261  0.00  0.00    -0.307 NA
ATOM     38  C   LIG    1       31.546 -17.246  11.509  0.00  0.00    +0.104 C 
ENDBRANCH  35  37
ENDBRANCH  34  35
ENDBRANCH  29  34
ENDBRANCH  28  30
ENDBRANCH  27  28
ENDBRANCH   1  27
TORSDOF 12
ENDMDL
MODEL 2
REMARK VINA RESULT:      -7.5      2.441     10.135
REMARK  Name = *****
REMARK                            x       y       z     vdW  Elec       q    Type
REMARK                         _______ _______ _______ _____ _____    ______ ____
ROOT
ATOM      1  C   LIG    1       25.558 -22.180   6.297  0.00  0.00    -0.021 C 
ATOM      2  C   LIG    1       26.226 -22.957   7.419  0.00  0.00    +0.104 C 
ATOM      3  S   LIG    1       27.397 -21.951   8.359  0.00  0.00    -0.131 S 
ATOM      4  C   LIG    1       28.308 -21.455   6.884  0.00  0.00    +0.169 C 
ATOM      5  N   LIG    1       27.417 -20.777   5.953  0.00  0.00    -0.249 N 
ATOM      6  C   LIG    1       28.174 -19.657   5.853  0.00  0.00    +0.244 C 
ATOM      7  O   LIG    1       27.988 -18.612   5.249  0.00  0.00    -0.273 OA
ATOM      8  CA  LIG    1       29.096 -20.114   6.975  0.00  0.00    +0.191 C 
ATOM      9  CA  LIG    1       26.140 -21.112   5.622  0.00  0.00    +0.123 C 
ENDROOT
BRANCH   8  10
ATOM     10  N   LIG    1       28.959 -19.288   8.207  0.00  0.00    -0.301 N 
ATOM     11  H   LIG    1       28.034 -19.069   8.567  0.00  0.00    +0.149 HD
ATOM     12  C   LIG    1       30.069 -18.849   8.892  0.00  0.00    +0.220 C 
ATOM     13  O   LIG    1       31.191 -19.177   8.520  0.00  0.00    -0.275 OA
BRANCH  12  14
ATOM     14  C   LIG    1       29.760 -17.930  10.068  0.00  0.00    +0.151 C 
BRANCH  14  15
ATOM     15  C   LIG    1       30.955 -17.184  10.580  0.00  0.00    +0.059 A 
ATOM     16  N   LIG    1       31.357 -17.401  11.894  0.00  0.00    -0.230 NA
ATOM     17  C   LIG    1       32.408 -16.668  12.176  0.00  0.00    +0.156 A 
ATOM     18  S   LIG    1       33.004 -15.704  10.890  0.00  0.00    -0.061 S 
ATOM     19  C   LIG    1       31.718 -16.246   9.908  0.00  0.00    +0.072 A 
BRANCH  17  20
ATOM     20  N   LIG    1       32.995 -16.644  13.381  0.00  0.00    -0.338 N 
ATOM     21  H   LIG    1       33.848 -16.109  13.473  0.00  0.00    +0.144 HD
ATOM     22  H   LIG    1       32.422 -16.721  14.211  0.00  0.00    +0.144 HD
ENDBRANCH  17  20
ENDBRANCH  14  15
ENDBRANCH  12  14
ENDBRANCH   8  10
BRANCH   9  23
ATOM     23  C   LIG    1       25.353 -20.343   4.603  0.00  0.00    +0.351 C 
ATOM     24  O   LIG    1       24.224 -19.922   4.802  0.00  0.00    -0.244 OA
BRANCH  23  25
ATOM     25  OXT LIG    1       25.898 -20.137   3.396  0.00  0.00    -0.476 OA
ATOM     26  HXT LIG    1       26.166 -19.223   3.156  0.00  0.00    +0.295 HD
ENDBRANCH  23  25
ENDBRANCH   9  23
BRANCH   1  27
ATOM     27  C   LIG    1       24.140 -22.666   6.056  0.00  0.00    +0.111 C 
BRANCH  27  28
ATOM     28  S   LIG    1       23.876 -24.336   6.769  0.00  0.00    -0.080 S 
BRANCH  28  30
ATOM     29  N   LIG    1       25.677 -26.323   6.091  0.00  0.00    -0.219 N 
ATOM     30  C   LIG    1       24.802 -25.344   5.706  0.00  0.00    +0.210 A 
ATOM     31  N   LIG    1       24.842 -25.240   4.396  0.00  0.00    -0.102 NA
ATOM     32  N   LIG    1       25.773 -26.161   3.972  0.00  0.00    -0.022 NA
ATOM     33  N   LIG    1       26.280 -26.833   4.998  0.00  0.00    -0.043 NA
BRANCH  29  34
ATOM     34  C   LIG    1       25.897 -26.923   7.383  0.00  0.00    +0.163 C 
BRANCH  34  35
ATOM     35  C   LIG    1       25.870 -28.456   7.378  0.00  0.00    +0.107 C 
BRANCH  35  37
ATOM     36  C   LIG    1       24.213 -29.480   5.973  0.00  0.00    +0.104 C 
ATOM     37  N   LIG    1       24.513 -29.031   7.338  0.00  0.00    -0.307 NA
ATOM     38  C   LIG    1       24.375 -30.149   8.270  0.00  0.00    +0.104 C 
ENDBRANCH  35  37
ENDBRANCH  34  35
ENDBRANCH  29  34
ENDBRANCH  28  30
ENDBRANCH  27  28
ENDBRANCH   1  27
TORSDOF 12
ENDMDL
MODEL 3
REMARK VINA RESULT:      -7.5      6.447      9.579
REMARK  Name = *****
REMARK                            x       y       z     vdW  Elec       q    Type
REMARK                         _______ _______ _______ _____ _____    ______ ____
ROOT
ATOM      1  C   LIG    1       25.555 -28.967  11.907  0.00  0.00    -0.021 C 
ATOM      2  C   LIG    1       26.831 -28.614  11.161  0.00  0.00    +0.104 C 
ATOM      3  S   LIG    1       26.590 -28.535   9.371  0.00  0.00    -0.131 S 
ATOM      4  C   LIG    1       25.881 -30.191   9.293  0.00  0.00    +0.169 C 
ATOM      5  N   LIG    1       24.699 -30.267  10.140  0.00  0.00    -0.249 N 
ATOM      6  C   LIG    1       23.874 -30.709   9.159  0.00  0.00    +0.244 C 
ATOM      7  O   LIG    1       22.676 -30.944   9.162  0.00  0.00    -0.273 OA
ATOM      8  CA  LIG    1       24.935 -30.484   8.091  0.00  0.00    +0.191 C 
ATOM      9  CA  LIG    1       24.525 -29.743  11.385  0.00  0.00    +0.123 C 
ENDROOT
BRANCH   8  10
ATOM     10  N   LIG    1       24.593 -29.369   7.164  0.00  0.00    -0.301 N 
ATOM     11  H   LIG    1       24.053 -28.577   7.505  0.00  0.00    +0.149 HD
ATOM     12  C   LIG    1       25.032 -29.372   5.860  0.00  0.00    +0.220 C 
ATOM     13  O   LIG    1       25.757 -30.276   5.458  0.00  0.00    -0.275 OA
BRANCH  12  14
ATOM     14  C   LIG    1       24.511 -28.215   5.017  0.00  0.00    +0.151 C 
BRANCH  14  15
ATOM     15  C   LIG    1       24.773 -26.866   5.614  0.00  0.00    +0.059 A 
ATOM     16  N   LIG    1       23.692 -26.018   5.834  0.00  0.00    -0.230 NA
ATOM     17  C   LIG    1       24.099 -24.885   6.353  0.00  0.00    +0.156 A 
ATOM     18  S   LIG    1       25.784 -24.769   6.645  0.00  0.00    -0.061 S 
ATOM     19  C   LIG    1       25.996 -26.315   5.955  0.00  0.00    +0.072 A 
BRANCH  17  20
ATOM     20  N   LIG    1       23.281 -23.863   6.640  0.00  0.00    -0.338 N 
ATOM     21  H   LIG    1       22.340 -24.089   6.935  0.00  0.00    +0.144 HD
ATOM     22  H   LIG    1       23.671 -23.005   7.007  0.00  0.00    +0.144 HD
ENDBRANCH  17  20
ENDBRANCH  14  15
ENDBRANCH  12  14
ENDBRANCH   8  10
BRANCH   9  23
ATOM     23  C   LIG    1       23.259 -29.943  12.164  0.00  0.00    +0.351 C 
ATOM     24  O   LIG    1       23.163 -30.716  13.105  0.00  0.00    -0.244 OA
BRANCH  23  25
ATOM     25  OXT LIG    1       22.163 -29.270  11.788  0.00  0.00    -0.476 OA
ATOM     26  HXT LIG    1       22.147 -28.869  10.891  0.00  0.00    +0.295 HD
ENDBRANCH  23  25
ENDBRANCH   9  23
BRANCH   1  27
ATOM     27  C   LIG    1       25.508 -28.300  13.270  0.00  0.00    +0.111 C 
BRANCH  27  28
ATOM     28  S   LIG    1       27.079 -27.424  13.639  0.00  0.00    -0.080 S 
BRANCH  28  30
ATOM     29  N   LIG    1       25.373 -25.587  14.809  0.00  0.00    -0.219 N 
ATOM     30  C   LIG    1       26.524 -25.854  14.115  0.00  0.00    +0.210 A 
ATOM     31  N   LIG    1       27.095 -24.712  13.801  0.00  0.00    -0.102 NA
ATOM     32  N   LIG    1       26.270 -23.728  14.295  0.00  0.00    -0.022 NA
ATOM     33  N   LIG    1       25.223 -24.251  14.919  0.00  0.00    -0.043 NA
BRANCH  29  34
ATOM     34  C   LIG    1       24.473 -26.475  15.500  0.00  0.00    +0.163 C 
BRANCH  34  35
ATOM     35  C   LIG    1       22.989 -26.192  15.242  0.00  0.00    +0.107 C 
BRANCH  35  37
ATOM     36  C   LIG    1       21.483 -28.057  15.090  0.00  0.00    +0.104 C 
ATOM     37  N   LIG    1       22.347 -27.152  14.324  0.00  0.00    -0.307 NA
ATOM     38  C   LIG    1       21.563 -26.470  13.295  0.00  0.00    +0.104 C 
ENDBRANCH  35  37
ENDBRANCH  34  35
ENDBRANCH  29  34
ENDBRANCH  28  30
ENDBRANCH  27  28
ENDBRANCH   1  27
TORSDOF 12
ENDMDL
MODEL 4
REMARK VINA RESULT:      -7.5      4.633      7.423
REMARK  Name = *****
REMARK                            x       y       z     vdW  Elec       q    Type
REMARK                         _______ _______ _______ _____ _____    ______ ____
ROOT
ATOM      1  C   LIG    1       26.943 -20.969   6.298  0.00  0.00    -0.021 C 
ATOM      2  C   LIG    1       26.954 -20.478   4.860  0.00  0.00    +0.104 C 
ATOM      3  S   LIG    1       25.538 -19.421   4.477  0.00  0.00    -0.131 S 
ATOM      4  C   LIG    1       24.343 -20.646   5.044  0.00  0.00    +0.169 C 
ATOM      5  N   LIG    1       24.593 -20.975   6.440  0.00  0.00    -0.249 N 
ATOM      6  C   LIG    1       23.335 -20.692   6.860  0.00  0.00    +0.244 C 
ATOM      7  O   LIG    1       22.839 -20.702   7.976  0.00  0.00    -0.273 OA
ATOM      8  CA  LIG    1       22.959 -20.102   5.508  0.00  0.00    +0.191 C 
ATOM      9  CA  LIG    1       25.792 -21.175   7.053  0.00  0.00    +0.123 C 
ENDROOT
BRANCH   8  10
ATOM     10  N   LIG    1       22.754 -18.627   5.559  0.00  0.00    -0.301 N 
ATOM     11  H   LIG    1       22.931 -18.123   6.424  0.00  0.00    +0.149 HD
ATOM     12  C   LIG    1       22.367 -17.927   4.439  0.00  0.00    +0.220 C 
ATOM     13  O   LIG    1       22.234 -18.507   3.367  0.00  0.00    -0.275 OA
BRANCH  12  14
ATOM     14  C   LIG    1       22.100 -16.447   4.683  0.00  0.00    +0.151 C 
BRANCH  14  15
ATOM     15  C   LIG    1       23.259 -15.560   4.343  0.00  0.00    +0.059 A 
ATOM     16  N   LIG    1       24.447 -16.154   3.927  0.00  0.00    -0.230 NA
ATOM     17  C   LIG    1       25.352 -15.238   3.679  0.00  0.00    +0.156 A 
ATOM     18  S   LIG    1       24.839 -13.616   3.888  0.00  0.00    -0.061 S 
ATOM     19  C   LIG    1       23.321 -14.180   4.426  0.00  0.00    +0.072 A 
BRANCH  17  20
ATOM     20  N   LIG    1       26.604 -15.518   3.293  0.00  0.00    -0.338 N 
ATOM     21  H   LIG    1       27.295 -15.657   4.018  0.00  0.00    +0.144 HD
ATOM     22  H   LIG    1       26.754 -16.023   2.429  0.00  0.00    +0.144 HD
ENDBRANCH  17  20
ENDBRANCH  14  15
ENDBRANCH  12  14
ENDBRANCH   8  10
BRANCH   9  23
ATOM     23  C   LIG    1       25.895 -21.558   8.499  0.00  0.00    +0.351 C 
ATOM     24  O   LIG    1       26.022 -22.711   8.882  0.00  0.00    -0.244 OA
BRANCH  23  25
ATOM     25  OXT LIG    1       25.805 -20.594   9.425  0.00  0.00    -0.476 OA
ATOM     26  HXT LIG    1       26.413 -19.825   9.357  0.00  0.00    +0.295 HD
ENDBRANCH  23  25
ENDBRANCH   9  23
BRANCH   1  27
ATOM     27  C   LIG    1       28.352 -21.133   6.837  0.00  0.00    +0.111 C 
BRANCH  27  28
ATOM     28  S   LIG    1       29.190 -19.510   7.023  0.00  0.00    -0.080 S 
BRANCH  28  30
ATOM     29  N   LIG    1       31.374 -18.984   8.637  0.00  0.00    -0.219 N 
ATOM     30  C   LIG    1       30.478 -19.881   8.120  0.00  0.00    +0.210 A 
ATOM     31  N   LIG    1       30.810 -21.085   8.532  0.00  0.00    -0.102 NA
ATOM     32  N   LIG    1       31.940 -20.924   9.300  0.00  0.00    -0.022 NA
ATOM     33  N   LIG    1       32.286 -19.645   9.378  0.00  0.00    -0.043 NA
BRANCH  29  34
ATOM     34  C   LIG    1       31.370 -17.543   8.613  0.00  0.00    +0.163 C 
BRANCH  34  35
ATOM     35  C   LIG    1       30.627 -16.896   9.788  0.00  0.00    +0.107 C 
BRANCH  35  37
ATOM     36  C   LIG    1       31.645 -17.058  11.958  0.00  0.00    +0.104 C 
ATOM     37  N   LIG    1       31.511 -16.223  10.758  0.00  0.00    -0.307 NA
ATOM     38  C   LIG    1       32.831 -15.958  10.188  0.00  0.00    +0.104 C 
ENDBRANCH  35  37
ENDBRANCH  34  35
ENDBRANCH  29  34
ENDBRANCH  28  30
ENDBRANCH  27  28
ENDBRANCH   1  27
TORSDOF 12
ENDMDL
MODEL 5
REMARK VINA RESULT:      -7.4      6.058     10.079
REMARK  Name = *****
REMARK                            x       y       z     vdW  Elec       q    Type
REMARK                         _______ _______ _______ _____ _____    ______ ____
ROOT
ATOM      1  C   LIG    1       24.677 -30.425   8.681  0.00  0.00    -0.021 C 
ATOM      2  C   LIG    1       23.393 -31.216   8.866  0.00  0.00    +0.104 C 
ATOM      3  S   LIG    1       22.334 -30.527  10.158  0.00  0.00    -0.131 S 
ATOM      4  C   LIG    1       23.647 -30.564  11.393  0.00  0.00    +0.169 C 
ATOM      5  N   LIG    1       24.778 -29.767  10.940  0.00  0.00    -0.249 N 
ATOM      6  C   LIG    1       24.824 -28.981  12.043  0.00  0.00    +0.244 C 
ATOM      7  O   LIG    1       25.533 -28.026  12.320  0.00  0.00    -0.273 OA
ATOM      8  CA  LIG    1       23.518 -29.554  12.573  0.00  0.00    +0.191 C 
ATOM      9  CA  LIG    1       25.315 -29.709   9.690  0.00  0.00    +0.123 C 
ENDROOT
BRANCH   8  10
ATOM     10  N   LIG    1       22.402 -28.568  12.548  0.00  0.00    -0.301 N 
ATOM     11  H   LIG    1       21.895 -28.401  11.682  0.00  0.00    +0.149 HD
ATOM     12  C   LIG    1       22.016 -27.906  13.691  0.00  0.00    +0.220 C 
ATOM     13  O   LIG    1       22.559 -28.160  14.761  0.00  0.00    -0.275 OA
BRANCH  12  14
ATOM     14  C   LIG    1       20.933 -26.856  13.476  0.00  0.00    +0.151 C 
BRANCH  14  15
ATOM     15  C   LIG    1       19.591 -27.256  14.010  0.00  0.00    +0.059 A 
ATOM     16  N   LIG    1       18.688 -26.254  14.350  0.00  0.00    -0.230 NA
ATOM     17  C   LIG    1       17.574 -26.777  14.803  0.00  0.00    +0.156 A 
ATOM     18  S   LIG    1       17.516 -28.490  14.821  0.00  0.00    -0.061 S 
ATOM     19  C   LIG    1       19.125 -28.536  14.256  0.00  0.00    +0.072 A 
BRANCH  17  20
ATOM     20  N   LIG    1       16.536 -26.050  15.238  0.00  0.00    -0.338 N 
ATOM     21  H   LIG    1       16.602 -25.651  16.165  0.00  0.00    +0.144 HD
ATOM     22  H   LIG    1       15.977 -25.537  14.569  0.00  0.00    +0.144 HD
ENDBRANCH  17  20
ENDBRANCH  14  15
ENDBRANCH  12  14
ENDBRANCH   8  10
BRANCH   9  23
ATOM     23  C   LIG    1       26.520 -28.873   9.377  0.00  0.00    +0.351 C 
ATOM     24  O   LIG    1       26.464 -27.808   8.782  0.00  0.00    -0.244 OA
BRANCH  23  25
ATOM     25  OXT LIG    1       27.727 -29.333   9.733  0.00  0.00    -0.476 OA
ATOM     26  HXT LIG    1       27.790 -29.913  10.523  0.00  0.00    +0.295 HD
ENDBRANCH  23  25
ENDBRANCH   9  23
BRANCH   1  27
ATOM     27  C   LIG    1       25.139 -30.450   7.236  0.00  0.00    +0.111 C 
BRANCH  27  28
ATOM     28  S   LIG    1       24.120 -29.338   6.190  0.00  0.00    -0.080 S 
BRANCH  28  30
ATOM     29  N   LIG    1       25.136 -26.807   5.726  0.00  0.00    -0.219 N 
ATOM     30  C   LIG    1       25.280 -28.167   5.655  0.00  0.00    +0.210 A 
ATOM     31  N   LIG    1       26.410 -28.435   5.038  0.00  0.00    -0.102 NA
ATOM     32  N   LIG    1       26.959 -27.217   4.709  0.00  0.00    -0.022 NA
ATOM     33  N   LIG    1       26.195 -26.219   5.133  0.00  0.00    -0.043 NA
BRANCH  29  34
ATOM     34  C   LIG    1       24.163 -26.007   6.425  0.00  0.00    +0.163 C 
BRANCH  34  35
ATOM     35  C   LIG    1       24.095 -24.548   5.958  0.00  0.00    +0.107 C 
BRANCH  35  37
ATOM     36  C   LIG    1       25.701 -23.337   7.271  0.00  0.00    +0.104 C 
ATOM     37  N   LIG    1       24.269 -23.564   7.043  0.00  0.00    -0.307 NA
ATOM     38  C   LIG    1       23.609 -22.297   6.730  0.00  0.00    +0.104 C 
ENDBRANCH  35  37
ENDBRANCH  34  35
ENDBRANCH  29  34
ENDBRANCH  28  30
ENDBRANCH  27  28
ENDBRANCH   1  27
TORSDOF 12
ENDMDL
MODEL 6
REMARK VINA RESULT:      -7.3      4.979      9.635
REMARK  Name = *****
REMARK                            x       y       z     vdW  Elec       q    Type
REMARK                         _______ _______ _______ _____ _____    ______ ____
ROOT
ATOM      1  C   LIG    1       25.660 -30.488   9.472  0.00  0.00    -0.021 C 
ATOM      2  C   LIG    1       26.695 -29.383   9.597  0.00  0.00    +0.104 C 
ATOM      3  S   LIG    1       26.262 -27.913   8.638  0.00  0.00    -0.131 S 
ATOM      4  C   LIG    1       26.063 -28.847   7.109  0.00  0.00    +0.169 C 
ATOM      5  N   LIG    1       25.046 -29.875   7.283  0.00  0.00    -0.249 N 
ATOM      6  C   LIG    1       24.291 -29.480   6.228  0.00  0.00    +0.244 C 
ATOM      7  O   LIG    1       23.220 -29.890   5.808  0.00  0.00    -0.273 OA
ATOM      8  CA  LIG    1       25.127 -28.223   6.031  0.00  0.00    +0.191 C 
ATOM      9  CA  LIG    1       24.853 -30.690   8.356  0.00  0.00    +0.123 C 
ENDROOT
BRANCH   8  10
ATOM     10  N   LIG    1       24.383 -26.977   6.369  0.00  0.00    -0.301 N 
ATOM     11  H   LIG    1       23.547 -27.029   6.945  0.00  0.00    +0.149 HD
ATOM     12  C   LIG    1       24.834 -25.747   5.948  0.00  0.00    +0.220 C 
ATOM     13  O   LIG    1       25.888 -25.658   5.327  0.00  0.00    -0.275 OA
BRANCH  12  14
ATOM     14  C   LIG    1       23.906 -24.586   6.286  0.00  0.00    +0.151 C 
BRANCH  14  15
ATOM     15  C   LIG    1       24.600 -23.261   6.359  0.00  0.00    +0.059 A 
ATOM     16  N   LIG    1       24.703 -22.502   5.197  0.00  0.00    -0.230 NA
ATOM     17  C   LIG    1       25.341 -21.382   5.438  0.00  0.00    +0.156 A 
ATOM     18  S   LIG    1       25.827 -21.143   7.063  0.00  0.00    -0.061 S 
ATOM     19  C   LIG    1       25.210 -22.684   7.459  0.00  0.00    +0.072 A 
BRANCH  17  20
ATOM     20  N   LIG    1       25.617 -20.468   4.497  0.00  0.00    -0.338 N 
ATOM     21  H   LIG    1       25.271 -20.643   3.563  0.00  0.00    +0.144 HD
ATOM     22  H   LIG    1       25.714 -19.498   4.764  0.00  0.00    +0.144 HD
ENDBRANCH  17  20
ENDBRANCH  14  15
ENDBRANCH  12  14
ENDBRANCH   8  10
BRANCH   9  23
ATOM     23  C   LIG    1       23.787 -31.744   8.375  0.00  0.00    +0.351 C 
ATOM     24  O   LIG    1       23.892 -32.819   7.805  0.00  0.00    -0.244 OA
BRANCH  23  25
ATOM     25  OXT LIG    1       22.640 -31.482   9.018  0.00  0.00    -0.476 OA
ATOM     26  HXT LIG    1       21.872 -31.169   8.491  0.00  0.00    +0.295 HD
ENDBRANCH  23  25
ENDBRANCH   9  23
BRANCH   1  27
ATOM     27  C   LIG    1       25.558 -31.299  10.751  0.00  0.00    +0.111 C 
BRANCH  27  28
ATOM     28  S   LIG    1       25.767 -30.237  12.233  0.00  0.00    -0.080 S 
BRANCH  28  30
ATOM     29  N   LIG    1       23.995 -28.263  13.018  0.00  0.00    -0.219 N 
ATOM     30  C   LIG    1       24.247 -29.411  12.314  0.00  0.00    +0.210 A 
ATOM     31  N   LIG    1       23.121 -29.825  11.776  0.00  0.00    -0.102 NA
ATOM     32  N   LIG    1       22.158 -28.925  12.173  0.00  0.00    -0.022 NA
ATOM     33  N   LIG    1       22.684 -27.964  12.922  0.00  0.00    -0.043 NA
BRANCH  29  34
ATOM     34  C   LIG    1       24.901 -27.344  13.658  0.00  0.00    +0.163 C 
BRANCH  34  35
ATOM     35  C   LIG    1       24.425 -25.886  13.654  0.00  0.00    +0.107 C 
BRANCH  35  37
ATOM     36  C   LIG    1       25.626 -24.073  14.675  0.00  0.00    +0.104 C 
ATOM     37  N   LIG    1       25.509 -24.903  13.470  0.00  0.00    -0.307 NA
ATOM     38  C   LIG    1       26.787 -25.558  13.192  0.00  0.00    +0.104 C 
ENDBRANCH  35  37
ENDBRANCH  34  35
ENDBRANCH  29  34
ENDBRANCH  28  30
ENDBRANCH  27  28
ENDBRANCH   1  27
TORSDOF 12
ENDMDL
MODEL 7
REMARK VINA RESULT:      -7.2      5.032      9.971
REMARK  Name = *****
REMARK                            x       y       z     vdW  Elec       q    Type
REMARK                         _______ _______ _______ _____ _____    ______ ____
ROOT
ATOM      1  C   LIG    1       25.486 -30.875   9.573  0.00  0.00    -0.021 C 
ATOM      2  C   LIG    1       26.570 -29.826   9.756  0.00  0.00    +0.104 C 
ATOM      3  S   LIG    1       26.253 -28.325   8.801  0.00  0.00    -0.131 S 
ATOM      4  C   LIG    1       26.071 -29.230   7.252  0.00  0.00    +0.169 C 
ATOM      5  N   LIG    1       24.997 -30.206   7.369  0.00  0.00    -0.249 N 
ATOM      6  C   LIG    1       24.308 -29.761   6.290  0.00  0.00    +0.244 C 
ATOM      7  O   LIG    1       23.237 -30.110   5.820  0.00  0.00    -0.273 OA
ATOM      8  CA  LIG    1       25.214 -28.546   6.145  0.00  0.00    +0.191 C 
ATOM      9  CA  LIG    1       24.718 -31.023   8.422  0.00  0.00    +0.123 C 
ENDROOT
BRANCH   8  10
ATOM     10  N   LIG    1       24.521 -27.268   6.469  0.00  0.00    -0.301 N 
ATOM     11  H   LIG    1       23.782 -27.257   7.167  0.00  0.00    +0.149 HD
ATOM     12  C   LIG    1       24.893 -26.088   5.866  0.00  0.00    +0.220 C 
ATOM     13  O   LIG    1       25.839 -26.068   5.086  0.00  0.00    -0.275 OA
BRANCH  12  14
ATOM     14  C   LIG    1       24.019 -24.893   6.226  0.00  0.00    +0.151 C 
BRANCH  14  15
ATOM     15  C   LIG    1       24.785 -23.620   6.416  0.00  0.00    +0.059 A 
ATOM     16  N   LIG    1       24.549 -22.567   5.537  0.00  0.00    -0.230 NA
ATOM     17  C   LIG    1       25.305 -21.540   5.842  0.00  0.00    +0.156 A 
ATOM     18  S   LIG    1       26.315 -21.745   7.211  0.00  0.00    -0.061 S 
ATOM     19  C   LIG    1       25.762 -23.353   7.360  0.00  0.00    +0.072 A 
BRANCH  17  20
ATOM     20  N   LIG    1       25.315 -20.394   5.147  0.00  0.00    -0.338 N 
ATOM     21  H   LIG    1       25.720 -19.582   5.593  0.00  0.00    +0.144 HD
ATOM     22  H   LIG    1       25.380 -20.429   4.138  0.00  0.00    +0.144 HD
ENDBRANCH  17  20
ENDBRANCH  14  15
ENDBRANCH  12  14
ENDBRANCH   8  10
BRANCH   9  23
ATOM     23  C   LIG    1       23.600 -32.020   8.383  0.00  0.00    +0.351 C 
ATOM     24  O   LIG    1       23.655 -33.069   7.758  0.00  0.00    -0.244 OA
BRANCH  23  25
ATOM     25  OXT LIG    1       22.463 -31.734   9.033  0.00  0.00    -0.476 OA
ATOM     26  HXT LIG    1       21.713 -32.364   8.959  0.00  0.00    +0.295 HD
ENDBRANCH  23  25
ENDBRANCH   9  23
BRANCH   1  27
ATOM     27  C   LIG    1       25.290 -31.695  10.835  0.00  0.00    +0.111 C 
BRANCH  27  28
ATOM     28  S   LIG    1       24.903 -30.623  12.275  0.00  0.00    -0.080 S 
BRANCH  28  30
ATOM     29  N   LIG    1       27.278 -30.221  13.635  0.00  0.00    -0.219 N 
ATOM     30  C   LIG    1       26.186 -31.004  13.376  0.00  0.00    +0.210 A 
ATOM     31  N   LIG    1       26.313 -32.131  14.041  0.00  0.00    -0.102 NA
ATOM     32  N   LIG    1       27.516 -32.044  14.705  0.00  0.00    -0.022 NA
ATOM     33  N   LIG    1       28.106 -30.879  14.472  0.00  0.00    -0.043 NA
BRANCH  29  34
ATOM     34  C   LIG    1       27.550 -28.851  13.279  0.00  0.00    +0.163 C 
BRANCH  34  35
ATOM     35  C   LIG    1       26.677 -27.826  14.011  0.00  0.00    +0.107 C 
BRANCH  35  37
ATOM     36  C   LIG    1       24.498 -26.929  13.542  0.00  0.00    +0.104 C 
ATOM     37  N   LIG    1       25.902 -26.949  13.113  0.00  0.00    -0.307 NA
ATOM     38  C   LIG    1       26.436 -25.588  13.099  0.00  0.00    +0.104 C 
ENDBRANCH  35  37
ENDBRANCH  34  35
ENDBRANCH  29  34
ENDBRANCH  28  30
ENDBRANCH  27  28
ENDBRANCH   1  27
TORSDOF 12
ENDMDL
MODEL 8
REMARK VINA RESULT:      -7.2      7.808     11.375
REMARK  Name = *****
REMARK                            x       y       z     vdW  Elec       q    Type
REMARK                         _______ _______ _______ _____ _____    ______ ____
ROOT
ATOM      1  C   LIG    1       25.731 -31.281  10.718  0.00  0.00    -0.021 C 
ATOM      2  C   LIG    1       24.585 -32.073  11.326  0.00  0.00    +0.104 C 
ATOM      3  S   LIG    1       23.356 -31.015  12.123  0.00  0.00    -0.131 S 
ATOM      4  C   LIG    1       24.585 -30.194  13.156  0.00  0.00    +0.169 C 
ATOM      5  N   LIG    1       25.595 -29.561  12.320  0.00  0.00    -0.249 N 
ATOM      6  C   LIG    1       25.448 -28.328  12.865  0.00  0.00    +0.244 C 
ATOM      7  O   LIG    1       25.974 -27.260  12.591  0.00  0.00    -0.273 OA
ATOM      8  CA  LIG    1       24.226 -28.765  13.660  0.00  0.00    +0.191 C 
ATOM      9  CA  LIG    1       26.184 -30.056  11.196  0.00  0.00    +0.123 C 
ENDROOT
BRANCH   8  10
ATOM     10  N   LIG    1       22.967 -28.134  13.175  0.00  0.00    -0.301 N 
ATOM     11  H   LIG    1       22.652 -28.303  12.222  0.00  0.00    +0.149 HD
ATOM     12  C   LIG    1       22.196 -27.357  14.009  0.00  0.00    +0.220 C 
ATOM     13  O   LIG    1       22.516 -27.215  15.185  0.00  0.00    -0.275 OA
BRANCH  12  14
ATOM     14  C   LIG    1       20.999 -26.701  13.333  0.00  0.00    +0.151 C 
BRANCH  14  15
ATOM     15  C   LIG    1       19.678 -27.140  13.887  0.00  0.00    +0.059 A 
ATOM     16  N   LIG    1       18.736 -26.167  14.203  0.00  0.00    -0.230 NA
ATOM     17  C   LIG    1       17.647 -26.722  14.678  0.00  0.00    +0.156 A 
ATOM     18  S   LIG    1       17.659 -28.435  14.745  0.00  0.00    -0.061 S 
ATOM     19  C   LIG    1       19.267 -28.431  14.172  0.00  0.00    +0.072 A 
BRANCH  17  20
ATOM     20  N   LIG    1       16.581 -26.026  15.098  0.00  0.00    -0.338 N 
ATOM     21  H   LIG    1       16.682 -25.023  15.177  0.00  0.00    +0.144 HD
ATOM     22  H   LIG    1       15.653 -26.368  14.885  0.00  0.00    +0.144 HD
ENDBRANCH  17  20
ENDBRANCH  14  15
ENDBRANCH  12  14
ENDBRANCH   8  10
BRANCH   9  23
ATOM     23  C   LIG    1       27.251 -29.304  10.459  0.00  0.00    +0.351 C 
ATOM     24  O   LIG    1       27.036 -28.637   9.459  0.00  0.00    -0.244 OA
BRANCH  23  25
ATOM     25  OXT LIG    1       28.516 -29.397  10.893  0.00  0.00    -0.476 OA
ATOM     26  HXT LIG    1       28.848 -30.278  11.173  0.00  0.00    +0.295 HD
ENDBRANCH  23  25
ENDBRANCH   9  23
BRANCH   1  27
ATOM     27  C   LIG    1       26.272 -31.958   9.472  0.00  0.00    +0.111 C 
BRANCH  27  28
ATOM     28  S   LIG    1       24.912 -32.581   8.407  0.00  0.00    -0.080 S 
BRANCH  28  30
ATOM     29  N   LIG    1       25.114 -30.829   6.275  0.00  0.00    -0.219 N 
ATOM     30  C   LIG    1       25.401 -32.046   6.833  0.00  0.00    +0.210 A 
ATOM     31  N   LIG    1       26.039 -32.772   5.941  0.00  0.00    -0.102 NA
ATOM     32  N   LIG    1       26.128 -31.992   4.812  0.00  0.00    -0.022 NA
ATOM     33  N   LIG    1       25.576 -30.802   5.009  0.00  0.00    -0.043 NA
BRANCH  29  34
ATOM     34  C   LIG    1       24.568 -29.635   6.871  0.00  0.00    +0.163 C 
BRANCH  34  35
ATOM     35  C   LIG    1       24.301 -28.501   5.875  0.00  0.00    +0.107 C 
BRANCH  35  37
ATOM     36  C   LIG    1       26.144 -27.184   5.073  0.00  0.00    +0.104 C 
ATOM     37  N   LIG    1       25.113 -27.292   6.113  0.00  0.00    -0.307 NA
ATOM     38  C   LIG    1       24.289 -26.084   6.122  0.00  0.00    +0.104 C 
ENDBRANCH  35  37
ENDBRANCH  34  35
ENDBRANCH  29  34
ENDBRANCH  28  30
ENDBRANCH  27  28
ENDBRANCH   1  27
TORSDOF 12
ENDMDL
MODEL 9
REMARK VINA RESULT:      -6.8      4.860      8.619
REMARK  Name = *****
REMARK                            x       y       z     vdW  Elec       q    Type
REMARK                         _______ _______ _______ _____ _____    ______ ____
ROOT
ATOM      1  C   LIG    1       25.992 -28.543   8.088  0.00  0.00    -0.021 C 
ATOM      2  C   LIG    1       25.140 -28.996   6.914  0.00  0.00    +0.104 C 
ATOM      3  S   LIG    1       23.956 -30.283   7.370  0.00  0.00    -0.131 S 
ATOM      4  C   LIG    1       25.232 -31.347   8.072  0.00  0.00    +0.169 C 
ATOM      5  N   LIG    1       25.929 -30.648   9.142  0.00  0.00    -0.249 N 
ATOM      6  C   LIG    1       25.709 -31.605  10.077  0.00  0.00    +0.244 C 
ATOM      7  O   LIG    1       25.991 -31.649  11.264  0.00  0.00    -0.273 OA
ATOM      8  CA  LIG    1       24.767 -32.366   9.154  0.00  0.00    +0.191 C 
ATOM      9  CA  LIG    1       26.338 -29.349   9.168  0.00  0.00    +0.123 C 
ENDROOT
BRANCH   8  10
ATOM     10  N   LIG    1       23.350 -32.321   9.613  0.00  0.00    -0.301 N 
ATOM     11  H   LIG    1       23.079 -31.679  10.354  0.00  0.00    +0.149 HD
ATOM     12  C   LIG    1       22.389 -33.108   9.021  0.00  0.00    +0.220 C 
ATOM     13  O   LIG    1       22.681 -33.824   8.069  0.00  0.00    -0.275 OA
BRANCH  12  14
ATOM     14  C   LIG    1       21.014 -33.023   9.674  0.00  0.00    +0.151 C 
BRANCH  14  15
ATOM     15  C   LIG    1       20.950 -32.061  10.821  0.00  0.00    +0.059 A 
ATOM     16  N   LIG    1       21.586 -32.405  12.010  0.00  0.00    -0.230 NA
ATOM     17  C   LIG    1       21.426 -31.459  12.904  0.00  0.00    +0.156 A 
ATOM     18  S   LIG    1       20.541 -30.088  12.379  0.00  0.00    -0.061 S 
ATOM     19  C   LIG    1       20.286 -30.848  10.872  0.00  0.00    +0.072 A 
BRANCH  17  20
ATOM     20  N   LIG    1       21.902 -31.531  14.154  0.00  0.00    -0.338 N 
ATOM     21  H   LIG    1       21.920 -32.442  14.593  0.00  0.00    +0.144 HD
ATOM     22  H   LIG    1       22.613 -30.876  14.451  0.00  0.00    +0.144 HD
ENDBRANCH  17  20
ENDBRANCH  14  15
ENDBRANCH  12  14
ENDBRANCH   8  10
BRANCH   9  23
ATOM     23  C   LIG    1       27.093 -28.775  10.329  0.00  0.00    +0.351 C 
ATOM     24  O   LIG    1       26.732 -27.782  10.943  0.00  0.00    -0.244 OA
BRANCH  23  25
ATOM     25  OXT LIG    1       28.247 -29.353  10.691  0.00  0.00    -0.476 OA
ATOM     26  HXT LIG    1       28.245 -29.941  11.478  0.00  0.00    +0.295 HD
ENDBRANCH  23  25
ENDBRANCH   9  23
BRANCH   1  27
ATOM     27  C   LIG    1       26.357 -27.075   7.974  0.00  0.00    +0.111 C 
BRANCH  27  28
ATOM     28  S   LIG    1       26.136 -26.463   6.257  0.00  0.00    -0.080 S 
BRANCH  28  30
ATOM     29  N   LIG    1       25.033 -23.996   6.846  0.00  0.00    -0.219 N 
ATOM     30  C   LIG    1       24.871 -25.293   6.441  0.00  0.00    +0.210 A 
ATOM     31  N   LIG    1       23.586 -25.527   6.293  0.00  0.00    -0.102 NA
ATOM     32  N   LIG    1       22.948 -24.356   6.631  0.00  0.00    -0.022 NA
ATOM     33  N   LIG    1       23.822 -23.414   6.960  0.00  0.00    -0.043 NA
BRANCH  29  34
ATOM     34  C   LIG    1       26.230 -23.209   7.001  0.00  0.00    +0.163 C 
BRANCH  34  35
ATOM     35  C   LIG    1       26.125 -22.105   8.059  0.00  0.00    +0.107 C 
BRANCH  35  37
ATOM     36  C   LIG    1       27.687 -20.300   7.788  0.00  0.00    +0.104 C 
ATOM     37  N   LIG    1       26.312 -20.743   7.525  0.00  0.00    -0.307 NA
ATOM     38  C   LIG    1       26.038 -20.686   6.090  0.00  0.00    +0.104 C 
ENDBRANCH  35  37
ENDBRANCH  34  35
ENDBRANCH  29  34
ENDBRANCH  28  30
ENDBRANCH  27  28
ENDBRANCH   1  27
TORSDOF 12
ENDMDL
