MODEL 1
REMARK VINA RESULT:      -4.3      0.000      0.000
REMARK  Name = *****
REMARK                            x       y       z     vdW  Elec       q    Type
REMARK                         _______ _______ _______ _____ _____    ______ ____
ROOT
ATOM      1  C   LIG    1       27.635 -16.738   4.065  0.00  0.00    +0.076 A 
ATOM      2  C   LIG    1       26.599 -17.665   3.868  0.00  0.00    +0.140 A 
ATOM      3  N   LIG    1       26.614 -18.926   4.359  0.00  0.00    -0.216 NA
ATOM      4  C   LIG    1       27.685 -19.300   5.093  0.00  0.00    +0.121 A 
ATOM      5  C   LIG    1       28.753 -18.440   5.310  0.00  0.00    +0.045 A 
ATOM      6  C   LIG    1       28.718 -17.143   4.826  0.00  0.00    +0.030 A 
ENDROOT
BRANCH   1   8
ATOM      7  C   LIG    1       27.132 -14.316   4.131  0.00  0.00    +0.405 C 
ATOM      8  N   LIG    1       27.530 -15.454   3.496  0.00  0.00    -0.248 N 
ATOM      9  H   LIG    1       27.929 -15.327   2.577  0.00  0.00    +0.158 HD
ATOM     10  O   LIG    1       26.860 -14.192   5.321  0.00  0.00    -0.226 OA
BRANCH   7  11
ATOM     11  O   LIG    1       27.073 -13.290   3.237  0.00  0.00    -0.450 OA
BRANCH  11  13
ATOM     12  C   LIG    1       24.732 -12.715   2.951  0.00  0.00    +0.048 C 
ATOM     13  C   LIG    1       25.970 -13.349   2.328  0.00  0.00    +0.230 C 
ENDBRANCH  11  13
ENDBRANCH   7  11
ENDBRANCH   1   8
BRANCH   2  14
ATOM     14  N   LIG    1       25.461 -17.287   3.131  0.00  0.00    -0.342 N 
ATOM     15  H   LIG    1       25.387 -16.277   3.115  0.00  0.00    +0.144 HD
ATOM     16  H   LIG    1       24.665 -17.695   3.615  0.00  0.00    +0.144 HD
ENDBRANCH   2  14
BRANCH   4  17
ATOM     17  N   LIG    1       27.684 -20.592   5.615  0.00  0.00    -0.325 N 
ATOM     18  H   LIG    1       27.619 -21.249   4.841  0.00  0.00    +0.148 HD
BRANCH  17  19
ATOM     19  C   LIG    1       26.797 -20.882   6.733  0.00  0.00    +0.138 C 
BRANCH  19  20
ATOM     20  C   LIG    1       25.373 -20.994   6.257  0.00  0.00    -0.030 A 
ATOM     21  C   LIG    1       24.303 -20.551   7.054  0.00  0.00    +0.008 A 
ATOM     22  C   LIG    1       22.996 -20.620   6.573  0.00  0.00    +0.039 A 
ATOM     23  C   LIG    1       22.764 -21.132   5.303  0.00  0.00    +0.123 A 
ATOM     24  F   LIG    1       21.510 -21.198   4.839  0.00  0.00    -0.205 F 
ATOM     25  C   LIG    1       23.811 -21.572   4.501  0.00  0.00    +0.039 A 
ATOM     26  C   LIG    1       25.117 -21.500   4.975  0.00  0.00    +0.008 A 
ENDBRANCH  19  20
ENDBRANCH  17  19
ENDBRANCH   4  17
TORSDOF 7
ENDMDL
MODEL 2
REMARK VINA RESULT:      -4.0      2.801      3.828
REMARK  Name = *****
REMARK                            x       y       z     vdW  Elec       q    Type
REMARK                         _______ _______ _______ _____ _____    ______ ____
ROOT
ATOM      1  C   LIG    1       25.180 -15.210   3.524  0.00  0.00    +0.076 A 
ATOM      2  C   LIG    1       24.004 -14.729   4.121  0.00  0.00    +0.140 A 
ATOM      3  N   LIG    1       22.965 -15.518   4.479  0.00  0.00    -0.216 NA
ATOM      4  C   LIG    1       23.081 -16.846   4.260  0.00  0.00    +0.121 A 
ATOM      5  C   LIG    1       24.209 -17.387   3.657  0.00  0.00    +0.045 A 
ATOM      6  C   LIG    1       25.278 -16.575   3.317  0.00  0.00    +0.030 A 
ENDROOT
BRANCH   1   8
ATOM      7  C   LIG    1       27.506 -14.366   3.549  0.00  0.00    +0.405 C 
ATOM      8  N   LIG    1       26.197 -14.303   3.173  0.00  0.00    -0.248 N 
ATOM      9  H   LIG    1       25.980 -13.627   2.455  0.00  0.00    +0.158 HD
ATOM     10  O   LIG    1       28.044 -15.256   4.200  0.00  0.00    -0.226 OA
BRANCH   7  11
ATOM     11  O   LIG    1       28.168 -13.269   3.088  0.00  0.00    -0.450 OA
BRANCH  11  13
ATOM     12  C   LIG    1       28.202 -12.469   5.380  0.00  0.00    +0.048 C 
ATOM     13  C   LIG    1       28.964 -12.593   4.066  0.00  0.00    +0.230 C 
ENDBRANCH  11  13
ENDBRANCH   7  11
ENDBRANCH   1   8
BRANCH   2  14
ATOM     14  N   LIG    1       23.872 -13.353   4.384  0.00  0.00    -0.342 N 
ATOM     15  H   LIG    1       23.162 -13.209   5.092  0.00  0.00    +0.144 HD
ATOM     16  H   LIG    1       23.589 -12.926   3.505  0.00  0.00    +0.144 HD
ENDBRANCH   2  14
BRANCH   4  17
ATOM     17  N   LIG    1       22.018 -17.657   4.652  0.00  0.00    -0.325 N 
ATOM     18  H   LIG    1       21.830 -17.482   5.637  0.00  0.00    +0.148 HD
BRANCH  17  19
ATOM     19  C   LIG    1       22.051 -19.064   4.282  0.00  0.00    +0.138 C 
BRANCH  19  20
ATOM     20  C   LIG    1       23.171 -19.769   5.001  0.00  0.00    -0.030 A 
ATOM     21  C   LIG    1       24.378 -20.071   4.347  0.00  0.00    +0.008 A 
ATOM     22  C   LIG    1       25.419 -20.681   5.045  0.00  0.00    +0.039 A 
ATOM     23  C   LIG    1       25.250 -20.988   6.388  0.00  0.00    +0.123 A 
ATOM     24  F   LIG    1       26.249 -21.572   7.062  0.00  0.00    -0.205 F 
ATOM     25  C   LIG    1       24.063 -20.694   7.051  0.00  0.00    +0.039 A 
ATOM     26  C   LIG    1       23.023 -20.081   6.359  0.00  0.00    +0.008 A 
ENDBRANCH  19  20
ENDBRANCH  17  19
ENDBRANCH   4  17
TORSDOF 7
ENDMDL
MODEL 3
REMARK VINA RESULT:      -3.5      3.996      7.568
REMARK  Name = *****
REMARK                            x       y       z     vdW  Elec       q    Type
REMARK                         _______ _______ _______ _____ _____    ______ ____
ROOT
ATOM      1  C   LIG    1       23.810 -18.149   4.287  0.00  0.00    +0.076 A 
ATOM      2  C   LIG    1       24.781 -17.335   3.681  0.00  0.00    +0.140 A 
ATOM      3  N   LIG    1       24.609 -16.017   3.432  0.00  0.00    -0.216 NA
ATOM      4  C   LIG    1       23.439 -15.455   3.806  0.00  0.00    +0.121 A 
ATOM      5  C   LIG    1       22.429 -16.204   4.393  0.00  0.00    +0.045 A 
ATOM      6  C   LIG    1       22.623 -17.548   4.668  0.00  0.00    +0.030 A 
ENDROOT
BRANCH   1   8
ATOM      7  C   LIG    1       23.560 -20.311   5.464  0.00  0.00    +0.405 C 
ATOM      8  N   LIG    1       24.081 -19.516   4.486  0.00  0.00    -0.248 N 
ATOM      9  H   LIG    1       24.585 -19.994   3.755  0.00  0.00    +0.158 HD
ATOM     10  O   LIG    1       22.717 -19.998   6.297  0.00  0.00    -0.226 OA
BRANCH   7  11
ATOM     11  O   LIG    1       24.120 -21.550   5.391  0.00  0.00    -0.450 OA
BRANCH  11  13
ATOM     12  C   LIG    1       25.964 -21.435   6.966  0.00  0.00    +0.048 C 
ATOM     13  C   LIG    1       25.546 -21.572   5.507  0.00  0.00    +0.230 C 
ENDBRANCH  11  13
ENDBRANCH   7  11
ENDBRANCH   1   8
BRANCH   2  14
ATOM     14  N   LIG    1       26.018 -17.893   3.308  0.00  0.00    -0.342 N 
ATOM     15  H   LIG    1       26.608 -17.988   4.127  0.00  0.00    +0.144 HD
ATOM     16  H   LIG    1       26.432 -17.241   2.646  0.00  0.00    +0.144 HD
ENDBRANCH   2  14
BRANCH   4  17
ATOM     17  N   LIG    1       23.278 -14.092   3.569  0.00  0.00    -0.325 N 
ATOM     18  H   LIG    1       23.461 -13.916   2.584  0.00  0.00    +0.148 HD
BRANCH  17  19
ATOM     19  C   LIG    1       23.916 -13.153   4.481  0.00  0.00    +0.138 C 
BRANCH  19  20
ATOM     20  C   LIG    1       25.408 -13.157   4.278  0.00  0.00    -0.030 A 
ATOM     21  C   LIG    1       26.288 -13.353   5.357  0.00  0.00    +0.008 A 
ATOM     22  C   LIG    1       27.663 -13.401   5.139  0.00  0.00    +0.039 A 
ATOM     23  C   LIG    1       28.154 -13.252   3.848  0.00  0.00    +0.123 A 
ATOM     24  F   LIG    1       29.475 -13.301   3.636  0.00  0.00    -0.205 F 
ATOM     25  C   LIG    1       27.298 -13.062   2.770  0.00  0.00    +0.039 A 
ATOM     26  C   LIG    1       25.924 -13.017   2.983  0.00  0.00    +0.008 A 
ENDBRANCH  19  20
ENDBRANCH  17  19
ENDBRANCH   4  17
TORSDOF 7
ENDMDL
MODEL 4
REMARK VINA RESULT:      -3.2      2.658      3.728
REMARK  Name = *****
REMARK                            x       y       z     vdW  Elec       q    Type
REMARK                         _______ _______ _______ _____ _____    ______ ____
ROOT
ATOM      1  C   LIG    1       24.674 -16.039   3.784  0.00  0.00    +0.076 A 
ATOM      2  C   LIG    1       23.490 -16.648   4.231  0.00  0.00    +0.140 A 
ATOM      3  N   LIG    1       23.262 -17.980   4.180  0.00  0.00    -0.216 NA
ATOM      4  C   LIG    1       24.244 -18.765   3.684  0.00  0.00    +0.121 A 
ATOM      5  C   LIG    1       25.432 -18.229   3.208  0.00  0.00    +0.045 A 
ATOM      6  C   LIG    1       25.666 -16.866   3.287  0.00  0.00    +0.030 A 
ENDROOT
BRANCH   1   8
ATOM      7  C   LIG    1       25.551 -13.847   3.043  0.00  0.00    +0.405 C 
ATOM      8  N   LIG    1       24.805 -14.640   3.864  0.00  0.00    -0.248 N 
ATOM      9  H   LIG    1       24.174 -14.156   4.487  0.00  0.00    +0.158 HD
ATOM     10  O   LIG    1       26.182 -14.200   2.053  0.00  0.00    -0.226 OA
BRANCH   7  11
ATOM     11  O   LIG    1       25.500 -12.560   3.482  0.00  0.00    -0.450 OA
BRANCH  11  13
ATOM     12  C   LIG    1       23.927 -11.621   1.888  0.00  0.00    +0.048 C 
ATOM     13  C   LIG    1       24.221 -11.931   3.351  0.00  0.00    +0.230 C 
ENDBRANCH  11  13
ENDBRANCH   7  11
ENDBRANCH   1   8
BRANCH   2  14
ATOM     14  N   LIG    1       22.465 -15.852   4.777  0.00  0.00    -0.342 N 
ATOM     15  H   LIG    1       21.990 -16.367   5.510  0.00  0.00    +0.144 HD
ATOM     16  H   LIG    1       21.826 -15.653   4.011  0.00  0.00    +0.144 HD
ENDBRANCH   2  14
BRANCH   4  17
ATOM     17  N   LIG    1       24.013 -20.139   3.657  0.00  0.00    -0.325 N 
ATOM     18  H   LIG    1       23.141 -20.306   3.160  0.00  0.00    +0.148 HD
BRANCH  17  19
ATOM     19  C   LIG    1       24.157 -20.886   4.898  0.00  0.00    +0.138 C 
BRANCH  19  20
ATOM     20  C   LIG    1       25.568 -20.783   5.413  0.00  0.00    -0.030 A 
ATOM     21  C   LIG    1       26.500 -19.920   4.810  0.00  0.00    +0.008 A 
ATOM     22  C   LIG    1       27.787 -19.805   5.333  0.00  0.00    +0.039 A 
ATOM     23  C   LIG    1       28.137 -20.550   6.452  0.00  0.00    +0.123 A 
ATOM     24  F   LIG    1       29.372 -20.439   6.957  0.00  0.00    -0.205 F 
ATOM     25  C   LIG    1       27.226 -21.405   7.062  0.00  0.00    +0.039 A 
ATOM     26  C   LIG    1       25.939 -21.521   6.545  0.00  0.00    +0.008 A 
ENDBRANCH  19  20
ENDBRANCH  17  19
ENDBRANCH   4  17
TORSDOF 7
ENDMDL
MODEL 5
REMARK VINA RESULT:      -2.7      1.482      2.508
REMARK  Name = *****
REMARK                            x       y       z     vdW  Elec       q    Type
REMARK                         _______ _______ _______ _____ _____    ______ ____
ROOT
ATOM      1  C   LIG    1       26.434 -15.307   3.112  0.00  0.00    +0.076 A 
ATOM      2  C   LIG    1       27.614 -15.371   3.871  0.00  0.00    +0.140 A 
ATOM      3  N   LIG    1       28.063 -16.498   4.471  0.00  0.00    -0.216 NA
ATOM      4  C   LIG    1       27.337 -17.625   4.312  0.00  0.00    +0.121 A 
ATOM      5  C   LIG    1       26.151 -17.629   3.590  0.00  0.00    +0.045 A 
ATOM      6  C   LIG    1       25.711 -16.478   2.958  0.00  0.00    +0.030 A 
ENDROOT
BRANCH   1   8
ATOM      7  C   LIG    1       25.605 -12.978   3.215  0.00  0.00    +0.405 C 
ATOM      8  N   LIG    1       26.044 -14.081   2.543  0.00  0.00    -0.248 N 
ATOM      9  H   LIG    1       26.247 -13.944   1.564  0.00  0.00    +0.158 HD
ATOM     10  O   LIG    1       25.538 -12.835   4.431  0.00  0.00    -0.226 OA
BRANCH   7  11
ATOM     11  O   LIG    1       25.239 -12.016   2.324  0.00  0.00    -0.450 OA
BRANCH  11  13
ATOM     12  C   LIG    1       23.490 -11.447   3.910  0.00  0.00    +0.048 C 
ATOM     13  C   LIG    1       23.883 -11.575   2.443  0.00  0.00    +0.230 C 
ENDBRANCH  11  13
ENDBRANCH   7  11
ENDBRANCH   1   8
BRANCH   2  14
ATOM     14  N   LIG    1       28.401 -14.215   4.027  0.00  0.00    -0.342 N 
ATOM     15  H   LIG    1       28.258 -13.830   4.954  0.00  0.00    +0.144 HD
ATOM     16  H   LIG    1       28.082 -13.561   3.317  0.00  0.00    +0.144 HD
ENDBRANCH   2  14
BRANCH   4  17
ATOM     17  N   LIG    1       27.817 -18.787   4.912  0.00  0.00    -0.325 N 
ATOM     18  H   LIG    1       28.830 -18.716   4.979  0.00  0.00    +0.148 HD
BRANCH  17  19
ATOM     19  C   LIG    1       27.331 -20.068   4.419  0.00  0.00    +0.138 C 
BRANCH  19  20
ATOM     20  C   LIG    1       26.013 -20.412   5.059  0.00  0.00    -0.030 A 
ATOM     21  C   LIG    1       24.869 -20.663   4.281  0.00  0.00    +0.008 A 
ATOM     22  C   LIG    1       23.672 -21.026   4.893  0.00  0.00    +0.039 A 
ATOM     23  C   LIG    1       23.619 -21.135   6.277  0.00  0.00    +0.123 A 
ATOM     24  F   LIG    1       22.470 -21.487   6.867  0.00  0.00    -0.205 F 
ATOM     25  C   LIG    1       24.741 -20.894   7.061  0.00  0.00    +0.039 A 
ATOM     26  C   LIG    1       25.941 -20.534   6.453  0.00  0.00    +0.008 A 
ENDBRANCH  19  20
ENDBRANCH  17  19
ENDBRANCH   4  17
TORSDOF 7
ENDMDL
MODEL 6
REMARK VINA RESULT:      -2.4      3.504      6.879
REMARK  Name = *****
REMARK                            x       y       z     vdW  Elec       q    Type
REMARK                         _______ _______ _______ _____ _____    ______ ____
ROOT
ATOM      1  C   LIG    1       24.901 -19.482   4.270  0.00  0.00    +0.076 A 
ATOM      2  C   LIG    1       24.517 -18.271   3.673  0.00  0.00    +0.140 A 
ATOM      3  N   LIG    1       25.376 -17.264   3.392  0.00  0.00    -0.216 NA
ATOM      4  C   LIG    1       26.680 -17.451   3.692  0.00  0.00    +0.121 A 
ATOM      5  C   LIG    1       27.126 -18.617   4.301  0.00  0.00    +0.045 A 
ATOM      6  C   LIG    1       26.243 -19.652   4.561  0.00  0.00    +0.030 A 
ENDROOT
BRANCH   1   8
ATOM      7  C   LIG    1       22.966 -20.406   5.506  0.00  0.00    +0.405 C 
ATOM      8  N   LIG    1       23.925 -20.460   4.537  0.00  0.00    -0.248 N 
ATOM      9  H   LIG    1       23.821 -21.202   3.860  0.00  0.00    +0.158 HD
ATOM     10  O   LIG    1       22.740 -19.472   6.267  0.00  0.00    -0.226 OA
BRANCH   7  11
ATOM     11  O   LIG    1       22.262 -21.571   5.517  0.00  0.00    -0.450 OA
BRANCH  11  13
ATOM     12  C   LIG    1       20.855 -20.188   4.102  0.00  0.00    +0.048 C 
ATOM     13  C   LIG    1       21.091 -21.572   4.696  0.00  0.00    +0.230 C 
ENDBRANCH  11  13
ENDBRANCH   7  11
ENDBRANCH   1   8
BRANCH   2  14
ATOM     14  N   LIG    1       23.168 -18.065   3.326  0.00  0.00    -0.342 N 
ATOM     15  H   LIG    1       22.999 -18.428   2.395  0.00  0.00    +0.144 HD
ATOM     16  H   LIG    1       23.024 -17.059   3.347  0.00  0.00    +0.144 HD
ENDBRANCH   2  14
BRANCH   4  17
ATOM     17  N   LIG    1       27.564 -16.421   3.379  0.00  0.00    -0.325 N 
ATOM     18  H   LIG    1       28.475 -16.830   3.185  0.00  0.00    +0.148 HD
BRANCH  17  19
ATOM     19  C   LIG    1       27.597 -15.254   4.248  0.00  0.00    +0.138 C 
BRANCH  19  20
ATOM     20  C   LIG    1       26.527 -14.273   3.852  0.00  0.00    -0.030 A 
ATOM     21  C   LIG    1       26.472 -13.743   2.550  0.00  0.00    +0.008 A 
ATOM     22  C   LIG    1       25.443 -12.874   2.191  0.00  0.00    +0.039 A 
ATOM     23  C   LIG    1       24.478 -12.536   3.130  0.00  0.00    +0.123 A 
ATOM     24  F   LIG    1       23.488 -11.703   2.787  0.00  0.00    -0.205 F 
ATOM     25  C   LIG    1       24.515 -13.054   4.420  0.00  0.00    +0.039 A 
ATOM     26  C   LIG    1       25.538 -13.925   4.782  0.00  0.00    +0.008 A 
ENDBRANCH  19  20
ENDBRANCH  17  19
ENDBRANCH   4  17
TORSDOF 7
ENDMDL
MODEL 7
REMARK VINA RESULT:      -2.3      2.757      3.870
REMARK  Name = *****
REMARK                            x       y       z     vdW  Elec       q    Type
REMARK                         _______ _______ _______ _____ _____    ______ ____
ROOT
ATOM      1  C   LIG    1       24.300 -16.116   3.858  0.00  0.00    +0.076 A 
ATOM      2  C   LIG    1       23.108 -16.094   4.601  0.00  0.00    +0.140 A 
ATOM      3  N   LIG    1       22.327 -17.180   4.802  0.00  0.00    -0.216 NA
ATOM      4  C   LIG    1       22.733 -18.352   4.267  0.00  0.00    +0.121 A 
ATOM      5  C   LIG    1       23.890 -18.441   3.506  0.00  0.00    +0.045 A 
ATOM      6  C   LIG    1       24.697 -17.331   3.326  0.00  0.00    +0.030 A 
ENDROOT
BRANCH   1   8
ATOM      7  C   LIG    1       26.385 -14.817   3.562  0.00  0.00    +0.405 C 
ATOM      8  N   LIG    1       25.032 -14.925   3.692  0.00  0.00    -0.248 N 
ATOM      9  H   LIG    1       24.505 -14.086   3.500  0.00  0.00    +0.158 HD
ATOM     10  O   LIG    1       27.195 -15.736   3.496  0.00  0.00    -0.226 OA
BRANCH   7  11
ATOM     11  O   LIG    1       26.735 -13.503   3.509  0.00  0.00    -0.450 OA
BRANCH  11  13
ATOM     12  C   LIG    1       28.714 -12.488   4.483  0.00  0.00    +0.048 C 
ATOM     13  C   LIG    1       28.131 -13.262   3.306  0.00  0.00    +0.230 C 
ENDBRANCH  11  13
ENDBRANCH   7  11
ENDBRANCH   1   8
BRANCH   2  14
ATOM     14  N   LIG    1       22.681 -14.890   5.191  0.00  0.00    -0.342 N 
ATOM     15  H   LIG    1       22.506 -14.201   4.468  0.00  0.00    +0.144 HD
ATOM     16  H   LIG    1       23.443 -14.587   5.793  0.00  0.00    +0.144 HD
ENDBRANCH   2  14
BRANCH   4  17
ATOM     17  N   LIG    1       21.936 -19.472   4.497  0.00  0.00    -0.325 N 
ATOM     18  H   LIG    1       21.392 -19.308   5.341  0.00  0.00    +0.148 HD
BRANCH  17  19
ATOM     19  C   LIG    1       22.558 -20.786   4.424  0.00  0.00    +0.138 C 
BRANCH  19  20
ATOM     20  C   LIG    1       23.923 -20.758   5.059  0.00  0.00    -0.030 A 
ATOM     21  C   LIG    1       25.084 -20.604   4.280  0.00  0.00    +0.008 A 
ATOM     22  C   LIG    1       26.333 -20.531   4.894  0.00  0.00    +0.039 A 
ATOM     23  C   LIG    1       26.419 -20.615   6.277  0.00  0.00    +0.123 A 
ATOM     24  F   LIG    1       27.617 -20.543   6.869  0.00  0.00    -0.205 F 
ATOM     25  C   LIG    1       25.280 -20.764   7.062  0.00  0.00    +0.039 A 
ATOM     26  C   LIG    1       24.031 -20.833   6.454  0.00  0.00    +0.008 A 
ENDBRANCH  19  20
ENDBRANCH  17  19
ENDBRANCH   4  17
TORSDOF 7
ENDMDL
MODEL 8
REMARK VINA RESULT:      -2.2      4.022      7.500
REMARK  Name = *****
REMARK                            x       y       z     vdW  Elec       q    Type
REMARK                         _______ _______ _______ _____ _____    ______ ____
ROOT
ATOM      1  C   LIG    1       24.273 -17.999   4.129  0.00  0.00    +0.076 A 
ATOM      2  C   LIG    1       22.997 -17.474   4.387  0.00  0.00    +0.140 A 
ATOM      3  N   LIG    1       22.663 -16.177   4.196  0.00  0.00    -0.216 NA
ATOM      4  C   LIG    1       23.616 -15.349   3.713  0.00  0.00    +0.121 A 
ATOM      5  C   LIG    1       24.904 -15.797   3.454  0.00  0.00    +0.045 A 
ATOM      6  C   LIG    1       25.229 -17.132   3.628  0.00  0.00    +0.030 A 
ENDROOT
BRANCH   1   8
ATOM      7  C   LIG    1       24.353 -20.391   3.501  0.00  0.00    +0.405 C 
ATOM      8  N   LIG    1       24.524 -19.361   4.378  0.00  0.00    -0.248 N 
ATOM      9  H   LIG    1       25.018 -19.588   5.229  0.00  0.00    +0.158 HD
ATOM     10  O   LIG    1       24.019 -20.309   2.324  0.00  0.00    -0.226 OA
BRANCH   7  11
ATOM     11  O   LIG    1       24.615 -21.572   4.126  0.00  0.00    -0.450 OA
BRANCH  11  13
ATOM     12  C   LIG    1       23.040 -21.572   5.974  0.00  0.00    +0.048 C 
ATOM     13  C   LIG    1       24.504 -21.533   5.552  0.00  0.00    +0.230 C 
ENDBRANCH  11  13
ENDBRANCH   7  11
ENDBRANCH   1   8
BRANCH   2  14
ATOM     14  N   LIG    1       21.981 -18.324   4.864  0.00  0.00    -0.342 N 
ATOM     15  H   LIG    1       21.147 -18.205   4.300  0.00  0.00    +0.144 HD
ATOM     16  H   LIG    1       21.805 -18.039   5.824  0.00  0.00    +0.144 HD
ENDBRANCH   2  14
BRANCH   4  17
ATOM     17  N   LIG    1       23.260 -14.020   3.496  0.00  0.00    -0.325 N 
ATOM     18  H   LIG    1       23.281 -13.843   2.495  0.00  0.00    +0.148 HD
BRANCH  17  19
ATOM     19  C   LIG    1       23.901 -12.994   4.306  0.00  0.00    +0.138 C 
BRANCH  19  20
ATOM     20  C   LIG    1       25.398 -13.072   4.163  0.00  0.00    -0.030 A 
ATOM     21  C   LIG    1       26.224 -13.310   5.276  0.00  0.00    +0.008 A 
ATOM     22  C   LIG    1       27.603 -13.426   5.112  0.00  0.00    +0.039 A 
ATOM     23  C   LIG    1       28.151 -13.303   3.842  0.00  0.00    +0.123 A 
ATOM     24  F   LIG    1       29.475 -13.417   3.682  0.00  0.00    -0.205 F 
ATOM     25  C   LIG    1       27.348 -13.071   2.730  0.00  0.00    +0.039 A 
ATOM     26  C   LIG    1       25.971 -12.958   2.889  0.00  0.00    +0.008 A 
ENDBRANCH  19  20
ENDBRANCH  17  19
ENDBRANCH   4  17
TORSDOF 7
ENDMDL
