MODEL 1
REMARK VINA RESULT:      -6.3      0.000      0.000
REMARK  Name = *****
REMARK                            x       y       z     vdW  Elec       q    Type
REMARK                         _______ _______ _______ _____ _____    ______ ____
ROOT
ATOM      1  C   LIG    1       26.110 -29.511  13.130  0.00  0.00    +0.090 C 
ENDROOT
BRANCH   1   3
ATOM      2  C   LIG    1       25.553 -31.308  11.335  0.00  0.00    +0.219 A 
ATOM      3  C   LIG    1       25.741 -29.960  11.675  0.00  0.00    +0.025 A 
ATOM      4  C   LIG    1       25.702 -29.091  10.579  0.00  0.00    +0.019 A 
ATOM      5  C   LIG    1       25.413 -29.560   9.259  0.00  0.00    +0.002 A 
ATOM      6  C   LIG    1       25.218 -30.926   9.074  0.00  0.00    +0.075 A 
ATOM      7  C   LIG    1       24.968 -31.429   7.793  0.00  0.00    +0.029 A 
ATOM      8  C   LIG    1       24.876 -30.579   6.699  0.00  0.00    +0.017 A 
ATOM      9  C   LIG    1       25.044 -29.216   6.872  0.00  0.00    +0.019 A 
ATOM     10 BR   LIG    1       24.896 -28.036   5.398  0.00  0.00    -0.050 Br
ATOM     11  C   LIG    1       25.324 -28.711   8.153  0.00  0.00    +0.025 A 
ATOM     12  N   LIG    1       25.282 -31.767  10.089  0.00  0.00    -0.213 NA
BRANCH   2  14
ATOM     13  C   LIG    1       24.936 -33.483  12.050  0.00  0.00    +0.278 C 
ATOM     14  O   LIG    1       25.663 -32.277  12.313  0.00  0.00    -0.479 OA
ENDBRANCH   2  14
ENDBRANCH   1   3
BRANCH   1  15
ATOM     15  C   LIG    1       27.629 -29.737  13.329  0.00  0.00    -0.037 A 
ATOM     16  C   LIG    1       28.506 -29.501  12.253  0.00  0.00    +0.004 A 
ATOM     17  C   LIG    1       29.892 -29.445  12.441  0.00  0.00    +0.000 A 
ATOM     18  C   LIG    1       30.433 -29.665  13.703  0.00  0.00    +0.000 A 
ATOM     19  C   LIG    1       29.593 -30.013  14.756  0.00  0.00    +0.000 A 
ATOM     20  C   LIG    1       28.203 -30.028  14.576  0.00  0.00    +0.004 A 
ENDBRANCH   1  15
BRANCH   1  21
ATOM     21  C   LIG    1       25.480 -28.112  13.712  0.00  0.00    +0.103 C 
BRANCH  21  22
ATOM     22  C   LIG    1       23.907 -28.078  13.603  0.00  0.00    -0.007 A 
ATOM     23  C   LIG    1       23.019 -29.199  13.799  0.00  0.00    -0.012 A 
ATOM     24  C   LIG    1       21.632 -29.063  13.497  0.00  0.00    -0.018 A 
ATOM     25  C   LIG    1       20.763 -30.171  13.501  0.00  0.00    +0.008 A 
ATOM     26  C   LIG    1       21.229 -31.442  13.815  0.00  0.00    +0.001 A 
ATOM     27  C   LIG    1       22.535 -31.584  14.244  0.00  0.00    +0.001 A 
ATOM     28  C   LIG    1       21.093 -27.810  13.201  0.00  0.00    +0.008 A 
ATOM     29  C   LIG    1       21.917 -26.702  13.102  0.00  0.00    +0.001 A 
ATOM     30  C   LIG    1       23.386 -30.474  14.292  0.00  0.00    +0.009 A 
ATOM     31  C   LIG    1       23.297 -26.848  13.235  0.00  0.00    +0.007 A 
ENDBRANCH  21  22
BRANCH  21  32
ATOM     32  O   LIG    1       25.799 -28.003  15.126  0.00  0.00    -0.383 OA
ATOM     33  H   LIG    1       26.765 -27.987  15.216  0.00  0.00    +0.211 HD
ENDBRANCH  21  32
BRANCH  21  34
ATOM     34  C   LIG    1       26.201 -26.871  13.043  0.00  0.00    +0.056 C 
BRANCH  34  35
ATOM     35  C   LIG    1       27.316 -26.180  13.874  0.00  0.00    +0.087 C 
BRANCH  35  36
ATOM     36  N   LIG    1       27.135 -24.712  14.045  0.00  0.00    -0.308 NA
ATOM     37  C   LIG    1       28.052 -24.127  15.023  0.00  0.00    +0.104 C 
ATOM     38  C   LIG    1       25.749 -24.418  14.441  0.00  0.00    +0.104 C 
ENDBRANCH  35  36
ENDBRANCH  34  35
ENDBRANCH  21  34
ENDBRANCH   1  21
TORSDOF 9
ENDMDL
MODEL 2
REMARK VINA RESULT:      -6.2      3.280      6.837
REMARK  Name = *****
REMARK                            x       y       z     vdW  Elec       q    Type
REMARK                         _______ _______ _______ _____ _____    ______ ____
ROOT
ATOM      1  C   LIG    1       24.540 -30.813   9.318  0.00  0.00    +0.090 C 
ENDROOT
BRANCH   1   3
ATOM      2  C   LIG    1       22.172 -30.858  10.390  0.00  0.00    +0.219 A 
ATOM      3  C   LIG    1       23.485 -30.363  10.384  0.00  0.00    +0.025 A 
ATOM      4  C   LIG    1       23.709 -29.347  11.320  0.00  0.00    +0.019 A 
ATOM      5  C   LIG    1       22.694 -28.934  12.238  0.00  0.00    +0.002 A 
ATOM      6  C   LIG    1       21.441 -29.536  12.148  0.00  0.00    +0.075 A 
ATOM      7  C   LIG    1       20.410 -29.136  13.005  0.00  0.00    +0.029 A 
ATOM      8  C   LIG    1       20.625 -28.165  13.974  0.00  0.00    +0.017 A 
ATOM      9  C   LIG    1       21.872 -27.575  14.090  0.00  0.00    +0.019 A 
ATOM     10 BR   LIG    1       22.195 -26.268  15.423  0.00  0.00    -0.050 Br
ATOM     11  C   LIG    1       22.902 -27.955  13.212  0.00  0.00    +0.025 A 
ATOM     12  N   LIG    1       21.198 -30.473  11.251  0.00  0.00    -0.213 NA
BRANCH   2  14
ATOM     13  C   LIG    1       20.945 -32.837   9.946  0.00  0.00    +0.278 C 
ATOM     14  O   LIG    1       21.794 -31.796   9.450  0.00  0.00    -0.479 OA
ENDBRANCH   2  14
ENDBRANCH   1   3
BRANCH   1  15
ATOM     15  C   LIG    1       24.663 -29.687   8.262  0.00  0.00    -0.037 A 
ATOM     16  C   LIG    1       25.562 -28.626   8.489  0.00  0.00    +0.004 A 
ATOM     17  C   LIG    1       25.899 -27.726   7.472  0.00  0.00    +0.000 A 
ATOM     18  C   LIG    1       25.311 -27.841   6.218  0.00  0.00    +0.000 A 
ATOM     19  C   LIG    1       24.335 -28.809   6.006  0.00  0.00    +0.000 A 
ATOM     20  C   LIG    1       24.029 -29.736   7.011  0.00  0.00    +0.004 A 
ENDBRANCH   1  15
BRANCH   1  21
ATOM     21  C   LIG    1       25.933 -31.515   9.827  0.00  0.00    +0.103 C 
BRANCH  21  22
ATOM     22  C   LIG    1       26.550 -30.773  11.075  0.00  0.00    -0.007 A 
ATOM     23  C   LIG    1       26.155 -30.956  12.450  0.00  0.00    -0.012 A 
ATOM     24  C   LIG    1       26.678 -30.091  13.456  0.00  0.00    -0.018 A 
ATOM     25  C   LIG    1       26.190 -30.115  14.777  0.00  0.00    +0.008 A 
ATOM     26  C   LIG    1       25.185 -30.998  15.151  0.00  0.00    +0.001 A 
ATOM     27  C   LIG    1       24.754 -31.940  14.237  0.00  0.00    +0.001 A 
ATOM     28  C   LIG    1       27.709 -29.199  13.155  0.00  0.00    +0.008 A 
ATOM     29  C   LIG    1       28.168 -29.077  11.855  0.00  0.00    +0.001 A 
ATOM     30  C   LIG    1       25.277 -31.953  12.938  0.00  0.00    +0.009 A 
ATOM     31  C   LIG    1       27.557 -29.799  10.832  0.00  0.00    +0.007 A 
ENDBRANCH  21  22
BRANCH  21  32
ATOM     32  O   LIG    1       25.647 -32.874  10.254  0.00  0.00    -0.383 OA
ATOM     33  H   LIG    1       24.836 -32.858  10.786  0.00  0.00    +0.211 HD
ENDBRANCH  21  32
BRANCH  21  34
ATOM     34  C   LIG    1       26.934 -31.680   8.612  0.00  0.00    +0.056 C 
BRANCH  34  35
ATOM     35  C   LIG    1       27.281 -33.133   8.185  0.00  0.00    +0.087 C 
BRANCH  35  36
ATOM     36  N   LIG    1       27.253 -33.364   6.714  0.00  0.00    -0.308 NA
ATOM     37  C   LIG    1       28.583 -33.531   6.131  0.00  0.00    +0.104 C 
ATOM     38  C   LIG    1       26.563 -32.252   6.043  0.00  0.00    +0.104 C 
ENDBRANCH  35  36
ENDBRANCH  34  35
ENDBRANCH  21  34
ENDBRANCH   1  21
TORSDOF 9
ENDMDL
MODEL 3
REMARK VINA RESULT:      -6.2      2.976      5.324
REMARK  Name = *****
REMARK                            x       y       z     vdW  Elec       q    Type
REMARK                         _______ _______ _______ _____ _____    ______ ____
ROOT
ATOM      1  C   LIG    1       24.009 -31.239  10.659  0.00  0.00    +0.090 C 
ENDROOT
BRANCH   1   3
ATOM      2  C   LIG    1       24.546 -31.688   8.155  0.00  0.00    +0.219 A 
ATOM      3  C   LIG    1       24.289 -30.775   9.189  0.00  0.00    +0.025 A 
ATOM      4  C   LIG    1       24.440 -29.437   8.811  0.00  0.00    +0.019 A 
ATOM      5  C   LIG    1       24.750 -29.067   7.464  0.00  0.00    +0.002 A 
ATOM      6  C   LIG    1       24.951 -30.083   6.533  0.00  0.00    +0.075 A 
ATOM      7  C   LIG    1       25.290 -29.764   5.213  0.00  0.00    +0.029 A 
ATOM      8  C   LIG    1       25.397 -28.441   4.805  0.00  0.00    +0.017 A 
ATOM      9  C   LIG    1       25.176 -27.421   5.714  0.00  0.00    +0.019 A 
ATOM     10 BR   LIG    1       25.290 -25.610   5.171  0.00  0.00    -0.050 Br
ATOM     11  C   LIG    1       24.864 -27.739   7.047  0.00  0.00    +0.025 A 
ATOM     12  N   LIG    1       24.845 -31.353   6.876  0.00  0.00    -0.213 NA
BRANCH   2  14
ATOM     13  C   LIG    1       23.744 -33.824   7.511  0.00  0.00    +0.278 C 
ATOM     14  O   LIG    1       24.525 -33.042   8.423  0.00  0.00    -0.479 OA
ENDBRANCH   2  14
ENDBRANCH   1   3
BRANCH   1  15
ATOM     15  C   LIG    1       24.962 -30.457  11.596  0.00  0.00    -0.037 A 
ATOM     16  C   LIG    1       24.965 -29.049  11.555  0.00  0.00    +0.004 A 
ATOM     17  C   LIG    1       25.611 -28.293  12.540  0.00  0.00    +0.000 A 
ATOM     18  C   LIG    1       26.302 -28.929  13.565  0.00  0.00    +0.000 A 
ATOM     19  C   LIG    1       26.408 -30.316  13.560  0.00  0.00    +0.000 A 
ATOM     20  C   LIG    1       25.728 -31.074  12.598  0.00  0.00    +0.004 A 
ENDBRANCH   1  15
BRANCH   1  21
ATOM     21  C   LIG    1       22.454 -31.415  11.153  0.00  0.00    +0.103 C 
BRANCH  21  22
ATOM     22  C   LIG    1       22.270 -31.046  12.675  0.00  0.00    -0.007 A 
ATOM     23  C   LIG    1       22.039 -29.723  13.205  0.00  0.00    -0.012 A 
ATOM     24  C   LIG    1       22.067 -29.513  14.616  0.00  0.00    -0.018 A 
ATOM     25  C   LIG    1       22.025 -28.219  15.170  0.00  0.00    +0.008 A 
ATOM     26  C   LIG    1       21.942 -27.096  14.356  0.00  0.00    +0.001 A 
ATOM     27  C   LIG    1       21.776 -27.272  12.996  0.00  0.00    +0.001 A 
ATOM     28  C   LIG    1       22.121 -30.598  15.491  0.00  0.00    +0.008 A 
ATOM     29  C   LIG    1       22.247 -31.886  14.999  0.00  0.00    +0.001 A 
ATOM     30  C   LIG    1       21.763 -28.560  12.448  0.00  0.00    +0.009 A 
ATOM     31  C   LIG    1       22.384 -32.095  13.628  0.00  0.00    +0.007 A 
ENDBRANCH  21  22
BRANCH  21  32
ATOM     32  O   LIG    1       21.613 -30.498  10.401  0.00  0.00    -0.383 OA
ATOM     33  H   LIG    1       21.043 -31.023   9.818  0.00  0.00    +0.211 HD
ENDBRANCH  21  32
BRANCH  21  34
ATOM     34  C   LIG    1       21.921 -32.854  10.767  0.00  0.00    +0.056 C 
BRANCH  34  35
ATOM     35  C   LIG    1       20.646 -32.913   9.882  0.00  0.00    +0.087 C 
BRANCH  35  36
ATOM     36  N   LIG    1       19.399 -32.477  10.569  0.00  0.00    -0.308 NA
ATOM     37  C   LIG    1       19.198 -33.126  11.864  0.00  0.00    +0.104 C 
ATOM     38  C   LIG    1       18.234 -32.735   9.709  0.00  0.00    +0.104 C 
ENDBRANCH  35  36
ENDBRANCH  34  35
ENDBRANCH  21  34
ENDBRANCH   1  21
TORSDOF 9
ENDMDL
MODEL 4
REMARK VINA RESULT:      -6.2      3.009      5.610
REMARK  Name = *****
REMARK                            x       y       z     vdW  Elec       q    Type
REMARK                         _______ _______ _______ _____ _____    ______ ____
ROOT
ATOM      1  C   LIG    1       25.623 -30.361   9.201  0.00  0.00    +0.090 C 
ENDROOT
BRANCH   1   3
ATOM      2  C   LIG    1       25.384 -29.915   6.651  0.00  0.00    +0.219 A 
ATOM      3  C   LIG    1       25.443 -29.420   7.962  0.00  0.00    +0.025 A 
ATOM      4  C   LIG    1       25.465 -28.023   8.037  0.00  0.00    +0.019 A 
ATOM      5  C   LIG    1       25.351 -27.207   6.868  0.00  0.00    +0.002 A 
ATOM      6  C   LIG    1       25.269 -27.838   5.629  0.00  0.00    +0.075 A 
ATOM      7  C   LIG    1       25.192 -27.075   4.459  0.00  0.00    +0.029 A 
ATOM      8  C   LIG    1       25.161 -25.688   4.514  0.00  0.00    +0.017 A 
ATOM      9  C   LIG    1       25.218 -25.047   5.740  0.00  0.00    +0.019 A 
ATOM     10 BR   LIG    1       25.150 -23.157   5.838  0.00  0.00    -0.050 Br
ATOM     11  C   LIG    1       25.325 -25.811   6.915  0.00  0.00    +0.025 A 
ATOM     12  N   LIG    1       25.280 -29.154   5.534  0.00  0.00    -0.213 NA
BRANCH   2  14
ATOM     13  C   LIG    1       24.375 -31.821   5.666  0.00  0.00    +0.278 C 
ATOM     14  O   LIG    1       25.453 -31.278   6.435  0.00  0.00    -0.479 OA
ENDBRANCH   2  14
ENDBRANCH   1   3
BRANCH   1  15
ATOM     15  C   LIG    1       26.506 -29.623  10.238  0.00  0.00    -0.037 A 
ATOM     16  C   LIG    1       25.972 -28.523  10.937  0.00  0.00    +0.004 A 
ATOM     17  C   LIG    1       26.624 -27.981  12.051  0.00  0.00    +0.000 A 
ATOM     18  C   LIG    1       27.846 -28.502  12.464  0.00  0.00    +0.000 A 
ATOM     19  C   LIG    1       28.446 -29.511  11.719  0.00  0.00    +0.000 A 
ATOM     20  C   LIG    1       27.774 -30.081  10.630  0.00  0.00    +0.004 A 
ENDBRANCH   1  15
BRANCH   1  21
ATOM     21  C   LIG    1       24.320 -31.175   9.776  0.00  0.00    +0.103 C 
BRANCH  21  22
ATOM     22  C   LIG    1       24.272 -31.183  11.353  0.00  0.00    -0.007 A 
ATOM     23  C   LIG    1       23.474 -30.312  12.181  0.00  0.00    -0.012 A 
ATOM     24  C   LIG    1       23.664 -30.313  13.595  0.00  0.00    -0.018 A 
ATOM     25  C   LIG    1       23.040 -29.360  14.424  0.00  0.00    +0.008 A 
ATOM     26  C   LIG    1       22.203 -28.389  13.891  0.00  0.00    +0.001 A 
ATOM     27  C   LIG    1       21.892 -28.444  12.546  0.00  0.00    +0.001 A 
ATOM     28  C   LIG    1       24.469 -31.280  14.199  0.00  0.00    +0.008 A 
ATOM     29  C   LIG    1       25.169 -32.188  13.424  0.00  0.00    +0.001 A 
ATOM     30  C   LIG    1       22.469 -29.424  11.729  0.00  0.00    +0.009 A 
ATOM     31  C   LIG    1       25.122 -32.096  12.034  0.00  0.00    +0.007 A 
ENDBRANCH  21  22
BRANCH  21  32
ATOM     32  O   LIG    1       23.110 -30.503   9.330  0.00  0.00    -0.383 OA
ATOM     33  H   LIG    1       23.301 -30.072   8.482  0.00  0.00    +0.211 HD
ENDBRANCH  21  32
BRANCH  21  34
ATOM     34  C   LIG    1       24.243 -32.613   9.119  0.00  0.00    +0.056 C 
BRANCH  34  35
ATOM     35  C   LIG    1       23.155 -33.575   9.669  0.00  0.00    +0.087 C 
BRANCH  35  36
ATOM     36  N   LIG    1       21.770 -33.032   9.614  0.00  0.00    -0.308 NA
ATOM     37  C   LIG    1       21.112 -32.998  10.920  0.00  0.00    +0.104 C 
ATOM     38  C   LIG    1       20.956 -33.824   8.680  0.00  0.00    +0.104 C 
ENDBRANCH  35  36
ENDBRANCH  34  35
ENDBRANCH  21  34
ENDBRANCH   1  21
TORSDOF 9
ENDMDL
MODEL 5
REMARK VINA RESULT:      -6.1      2.438      4.160
REMARK  Name = *****
REMARK                            x       y       z     vdW  Elec       q    Type
REMARK                         _______ _______ _______ _____ _____    ______ ____
ROOT
ATOM      1  C   LIG    1       25.945 -30.818  11.190  0.00  0.00    +0.090 C 
ENDROOT
BRANCH   1   3
ATOM      2  C   LIG    1       25.483 -31.474   8.717  0.00  0.00    +0.219 A 
ATOM      3  C   LIG    1       25.655 -30.477   9.689  0.00  0.00    +0.025 A 
ATOM      4  C   LIG    1       25.677 -29.179   9.168  0.00  0.00    +0.019 A 
ATOM      5  C   LIG    1       25.459 -28.923   7.778  0.00  0.00    +0.002 A 
ATOM      6  C   LIG    1       25.273 -30.012   6.930  0.00  0.00    +0.075 A 
ATOM      7  C   LIG    1       25.091 -29.807   5.558  0.00  0.00    +0.029 A 
ATOM      8  C   LIG    1       25.060 -28.524   5.027  0.00  0.00    +0.017 A 
ATOM      9  C   LIG    1       25.221 -27.431   5.862  0.00  0.00    +0.019 A 
ATOM     10 BR   LIG    1       25.155 -25.672   5.163  0.00  0.00    -0.050 Br
ATOM     11  C   LIG    1       25.432 -27.636   7.236  0.00  0.00    +0.025 A 
ATOM     12  N   LIG    1       25.280 -31.247   7.396  0.00  0.00    -0.213 NA
BRANCH   2  14
ATOM     13  C   LIG    1       26.750 -33.477   8.728  0.00  0.00    +0.278 C 
ATOM     14  O   LIG    1       25.539 -32.802   9.088  0.00  0.00    -0.479 OA
ENDBRANCH   2  14
ENDBRANCH   1   3
BRANCH   1  15
ATOM     15  C   LIG    1       26.658 -29.601  11.828  0.00  0.00    -0.037 A 
ATOM     16  C   LIG    1       26.299 -28.301  11.420  0.00  0.00    +0.004 A 
ATOM     17  C   LIG    1       26.721 -27.171  12.130  0.00  0.00    +0.000 A 
ATOM     18  C   LIG    1       27.547 -27.315  13.240  0.00  0.00    +0.000 A 
ATOM     19  C   LIG    1       28.007 -28.579  13.591  0.00  0.00    +0.000 A 
ATOM     20  C   LIG    1       27.551 -29.713  12.905  0.00  0.00    +0.004 A 
ENDBRANCH   1  15
BRANCH   1  21
ATOM     21  C   LIG    1       24.775 -31.548  12.079  0.00  0.00    +0.103 C 
BRANCH  21  22
ATOM     22  C   LIG    1       23.338 -30.988  11.743  0.00  0.00    -0.007 A 
ATOM     23  C   LIG    1       22.796 -29.725  12.183  0.00  0.00    -0.012 A 
ATOM     24  C   LIG    1       21.421 -29.428  11.950  0.00  0.00    -0.018 A 
ATOM     25  C   LIG    1       20.806 -28.293  12.514  0.00  0.00    +0.008 A 
ATOM     26  C   LIG    1       21.526 -27.412  13.311  0.00  0.00    +0.001 A 
ATOM     27  C   LIG    1       22.889 -27.598  13.444  0.00  0.00    +0.001 A 
ATOM     28  C   LIG    1       20.647 -30.255  11.136  0.00  0.00    +0.008 A 
ATOM     29  C   LIG    1       21.179 -31.426  10.624  0.00  0.00    +0.001 A 
ATOM     30  C   LIG    1       23.513 -28.696  12.839  0.00  0.00    +0.009 A 
ATOM     31  C   LIG    1       22.472 -31.812  10.975  0.00  0.00    +0.007 A 
ENDBRANCH  21  22
BRANCH  21  32
ATOM     32  O   LIG    1       24.751 -32.965  11.756  0.00  0.00    -0.383 OA
ATOM     33  H   LIG    1       23.834 -33.273  11.824  0.00  0.00    +0.211 HD
ENDBRANCH  21  32
BRANCH  21  34
ATOM     34  C   LIG    1       25.146 -31.494  13.616  0.00  0.00    +0.056 C 
BRANCH  34  35
ATOM     35  C   LIG    1       24.841 -32.766  14.453  0.00  0.00    +0.087 C 
BRANCH  35  36
ATOM     36  N   LIG    1       23.556 -32.715  15.204  0.00  0.00    -0.308 NA
ATOM     37  C   LIG    1       22.448 -33.357  14.497  0.00  0.00    +0.104 C 
ATOM     38  C   LIG    1       23.201 -31.318  15.499  0.00  0.00    +0.104 C 
ENDBRANCH  35  36
ENDBRANCH  34  35
ENDBRANCH  21  34
ENDBRANCH   1  21
TORSDOF 9
ENDMDL
MODEL 6
REMARK VINA RESULT:      -6.1      3.053      5.909
REMARK  Name = *****
REMARK                            x       y       z     vdW  Elec       q    Type
REMARK                         _______ _______ _______ _____ _____    ______ ____
ROOT
ATOM      1  C   LIG    1       25.876 -31.418   9.969  0.00  0.00    +0.090 C 
ENDROOT
BRANCH   1   3
ATOM      2  C   LIG    1       24.534 -32.572  11.874  0.00  0.00    +0.219 A 
ATOM      3  C   LIG    1       24.558 -31.982  10.602  0.00  0.00    +0.025 A 
ATOM      4  C   LIG    1       23.342 -32.072   9.915  0.00  0.00    +0.019 A 
ATOM      5  C   LIG    1       22.180 -32.645  10.519  0.00  0.00    +0.002 A 
ATOM      6  C   LIG    1       22.296 -33.168  11.804  0.00  0.00    +0.075 A 
ATOM      7  C   LIG    1       21.191 -33.770  12.417  0.00  0.00    +0.029 A 
ATOM      8  C   LIG    1       19.962 -33.825  11.773  0.00  0.00    +0.017 A 
ATOM      9  C   LIG    1       19.826 -33.288  10.504  0.00  0.00    +0.019 A 
ATOM     10 BR   LIG    1       18.152 -33.328   9.619  0.00  0.00    -0.050 Br
ATOM     11  C   LIG    1       20.942 -32.709   9.875  0.00  0.00    +0.025 A 
ATOM     12  N   LIG    1       23.442 -33.123  12.457  0.00  0.00    -0.213 NA
BRANCH   2  14
ATOM     13  C   LIG    1       25.706 -31.820  13.793  0.00  0.00    +0.278 C 
ATOM     14  O   LIG    1       25.697 -32.636  12.616  0.00  0.00    -0.479 OA
ENDBRANCH   2  14
ENDBRANCH   1   3
BRANCH   1  15
ATOM     15  C   LIG    1       26.257 -32.323   8.772  0.00  0.00    -0.037 A 
ATOM     16  C   LIG    1       25.563 -32.180   7.554  0.00  0.00    +0.004 A 
ATOM     17  C   LIG    1       26.024 -32.784   6.378  0.00  0.00    +0.000 A 
ATOM     18  C   LIG    1       27.165 -33.577   6.404  0.00  0.00    +0.000 A 
ATOM     19  C   LIG    1       27.799 -33.825   7.617  0.00  0.00    +0.000 A 
ATOM     20  C   LIG    1       27.363 -33.187   8.786  0.00  0.00    +0.004 A 
ENDBRANCH   1  15
BRANCH   1  21
ATOM     21  C   LIG    1       26.024 -29.798   9.758  0.00  0.00    +0.103 C 
BRANCH  21  22
ATOM     22  C   LIG    1       26.023 -29.017  11.129  0.00  0.00    -0.007 A 
ATOM     23  C   LIG    1       24.860 -28.695  11.920  0.00  0.00    -0.012 A 
ATOM     24  C   LIG    1       24.991 -27.832  13.048  0.00  0.00    -0.018 A 
ATOM     25  C   LIG    1       23.864 -27.348  13.742  0.00  0.00    +0.008 A 
ATOM     26  C   LIG    1       22.580 -27.707  13.355  0.00  0.00    +0.001 A 
ATOM     27  C   LIG    1       22.424 -28.646  12.354  0.00  0.00    +0.001 A 
ATOM     28  C   LIG    1       26.254 -27.456  13.508  0.00  0.00    +0.008 A 
ATOM     29  C   LIG    1       27.390 -27.836  12.815  0.00  0.00    +0.001 A 
ATOM     30  C   LIG    1       23.546 -29.170  11.699  0.00  0.00    +0.009 A 
ATOM     31  C   LIG    1       27.270 -28.543  11.620  0.00  0.00    +0.007 A 
ENDBRANCH  21  22
BRANCH  21  32
ATOM     32  O   LIG    1       27.303 -29.519   9.126  0.00  0.00    -0.383 OA
ATOM     33  H   LIG    1       27.424 -28.557   9.103  0.00  0.00    +0.211 HD
ENDBRANCH  21  32
BRANCH  21  34
ATOM     34  C   LIG    1       24.945 -29.283   8.721  0.00  0.00    +0.056 C 
BRANCH  34  35
ATOM     35  C   LIG    1       25.469 -28.437   7.528  0.00  0.00    +0.087 C 
BRANCH  35  36
ATOM     36  N   LIG    1       24.460 -28.185   6.463  0.00  0.00    -0.308 NA
ATOM     37  C   LIG    1       24.669 -28.998   5.266  0.00  0.00    +0.104 C 
ATOM     38  C   LIG    1       24.466 -26.761   6.092  0.00  0.00    +0.104 C 
ENDBRANCH  35  36
ENDBRANCH  34  35
ENDBRANCH  21  34
ENDBRANCH   1  21
TORSDOF 9
ENDMDL
MODEL 7
REMARK VINA RESULT:      -6.0      3.272      6.932
REMARK  Name = *****
REMARK                            x       y       z     vdW  Elec       q    Type
REMARK                         _______ _______ _______ _____ _____    ______ ____
ROOT
ATOM      1  C   LIG    1       24.256 -30.907   9.640  0.00  0.00    +0.090 C 
ENDROOT
BRANCH   1   3
ATOM      2  C   LIG    1       21.968 -30.305  10.719  0.00  0.00    +0.219 A 
ATOM      3  C   LIG    1       23.362 -30.155  10.683  0.00  0.00    +0.025 A 
ATOM      4  C   LIG    1       23.846 -29.180  11.563  0.00  0.00    +0.019 A 
ATOM      5  C   LIG    1       22.980 -28.481  12.460  0.00  0.00    +0.002 A 
ATOM      6  C   LIG    1       21.615 -28.755  12.405  0.00  0.00    +0.075 A 
ATOM      7  C   LIG    1       20.729 -28.067  13.242  0.00  0.00    +0.029 A 
ATOM      8  C   LIG    1       21.194 -27.132  14.157  0.00  0.00    +0.017 A 
ATOM      9  C   LIG    1       22.551 -26.867  14.239  0.00  0.00    +0.019 A 
ATOM     10 BR   LIG    1       23.209 -25.616  15.500  0.00  0.00    -0.050 Br
ATOM     11  C   LIG    1       23.440 -27.536  13.380  0.00  0.00    +0.025 A 
ATOM     12  N   LIG    1       21.134 -29.647  11.560  0.00  0.00    -0.213 NA
BRANCH   2  14
ATOM     13  C   LIG    1       21.016 -32.449  10.371  0.00  0.00    +0.278 C 
ATOM     14  O   LIG    1       21.355 -31.166   9.830  0.00  0.00    -0.479 OA
ENDBRANCH   2  14
ENDBRANCH   1   3
BRANCH   1  15
ATOM     15  C   LIG    1       24.823 -29.859   8.652  0.00  0.00    -0.037 A 
ATOM     16  C   LIG    1       24.176 -29.657   7.417  0.00  0.00    +0.004 A 
ATOM     17  C   LIG    1       24.487 -28.563   6.601  0.00  0.00    +0.000 A 
ATOM     18  C   LIG    1       25.483 -27.671   6.983  0.00  0.00    +0.000 A 
ATOM     19  C   LIG    1       26.213 -27.916   8.141  0.00  0.00    +0.000 A 
ATOM     20  C   LIG    1       25.873 -28.987   8.978  0.00  0.00    +0.004 A 
ENDBRANCH   1  15
BRANCH   1  21
ATOM     21  C   LIG    1       25.287 -32.068  10.170  0.00  0.00    +0.103 C 
BRANCH  21  22
ATOM     22  C   LIG    1       25.402 -32.087  11.744  0.00  0.00    -0.007 A 
ATOM     23  C   LIG    1       26.225 -31.211  12.544  0.00  0.00    -0.012 A 
ATOM     24  C   LIG    1       26.365 -31.457  13.942  0.00  0.00    -0.018 A 
ATOM     25  C   LIG    1       27.291 -30.743  14.727  0.00  0.00    +0.008 A 
ATOM     26  C   LIG    1       28.095 -29.759  14.166  0.00  0.00    +0.001 A 
ATOM     27  C   LIG    1       27.888 -29.404  12.846  0.00  0.00    +0.001 A 
ATOM     28  C   LIG    1       25.568 -32.411  14.575  0.00  0.00    +0.008 A 
ATOM     29  C   LIG    1       24.701 -33.198  13.837  0.00  0.00    +0.001 A 
ATOM     30  C   LIG    1       26.930 -30.076  12.078  0.00  0.00    +0.009 A 
ATOM     31  C   LIG    1       24.670 -33.081  12.448  0.00  0.00    +0.007 A 
ENDBRANCH  21  22
BRANCH  21  32
ATOM     32  O   LIG    1       24.773 -33.370   9.779  0.00  0.00    -0.383 OA
ATOM     33  H   LIG    1       25.530 -33.961   9.636  0.00  0.00    +0.211 HD
ENDBRANCH  21  32
BRANCH  21  34
ATOM     34  C   LIG    1       26.676 -31.945   9.422  0.00  0.00    +0.056 C 
BRANCH  34  35
ATOM     35  C   LIG    1       27.008 -33.047   8.379  0.00  0.00    +0.087 C 
BRANCH  35  36
ATOM     36  N   LIG    1       27.396 -32.528   7.038  0.00  0.00    -0.308 NA
ATOM     37  C   LIG    1       26.254 -32.305   6.153  0.00  0.00    +0.104 C 
ATOM     38  C   LIG    1       28.339 -33.454   6.393  0.00  0.00    +0.104 C 
ENDBRANCH  35  36
ENDBRANCH  34  35
ENDBRANCH  21  34
ENDBRANCH   1  21
TORSDOF 9
ENDMDL
MODEL 8
REMARK VINA RESULT:      -6.0      2.866      5.288
REMARK  Name = *****
REMARK                            x       y       z     vdW  Elec       q    Type
REMARK                         _______ _______ _______ _____ _____    ______ ____
ROOT
ATOM      1  C   LIG    1       25.140 -30.554  10.667  0.00  0.00    +0.090 C 
ENDROOT
BRANCH   1   3
ATOM      2  C   LIG    1       23.895 -32.638   9.738  0.00  0.00    +0.219 A 
ATOM      3  C   LIG    1       23.858 -31.424  10.440  0.00  0.00    +0.025 A 
ATOM      4  C   LIG    1       22.567 -31.013  10.788  0.00  0.00    +0.019 A 
ATOM      5  C   LIG    1       21.420 -31.821  10.510  0.00  0.00    +0.002 A 
ATOM      6  C   LIG    1       21.611 -33.021   9.829  0.00  0.00    +0.075 A 
ATOM      7  C   LIG    1       20.511 -33.825   9.507  0.00  0.00    +0.029 A 
ATOM      8  C   LIG    1       19.226 -33.459   9.886  0.00  0.00    +0.017 A 
ATOM      9  C   LIG    1       19.025 -32.280  10.584  0.00  0.00    +0.019 A 
ATOM     10 BR   LIG    1       17.284 -31.777  11.135  0.00  0.00    -0.050 Br
ATOM     11  C   LIG    1       20.124 -31.458  10.884  0.00  0.00    +0.025 A 
ATOM     12  N   LIG    1       22.817 -33.413   9.463  0.00  0.00    -0.213 NA
BRANCH   2  14
ATOM     13  C   LIG    1       25.151 -33.277   7.832  0.00  0.00    +0.278 C 
ATOM     14  O   LIG    1       25.100 -33.107   9.253  0.00  0.00    -0.479 OA
ENDBRANCH   2  14
ENDBRANCH   1   3
BRANCH   1  15
ATOM     15  C   LIG    1       25.231 -29.526   9.513  0.00  0.00    -0.037 A 
ATOM     16  C   LIG    1       26.282 -28.588   9.509  0.00  0.00    +0.004 A 
ATOM     17  C   LIG    1       26.558 -27.809   8.379  0.00  0.00    +0.000 A 
ATOM     18  C   LIG    1       25.763 -27.921   7.244  0.00  0.00    +0.000 A 
ATOM     19  C   LIG    1       24.651 -28.756   7.268  0.00  0.00    +0.000 A 
ATOM     20  C   LIG    1       24.399 -29.566   8.383  0.00  0.00    +0.004 A 
ENDBRANCH   1  15
BRANCH   1  21
ATOM     21  C   LIG    1       25.472 -30.010  12.180  0.00  0.00    +0.103 C 
BRANCH  21  22
ATOM     22  C   LIG    1       24.614 -28.741  12.556  0.00  0.00    -0.007 A 
ATOM     23  C   LIG    1       25.131 -27.435  12.885  0.00  0.00    -0.012 A 
ATOM     24  C   LIG    1       24.248 -26.429  13.377  0.00  0.00    -0.018 A 
ATOM     25  C   LIG    1       24.730 -25.203  13.877  0.00  0.00    +0.008 A 
ATOM     26  C   LIG    1       26.091 -24.926  13.896  0.00  0.00    +0.001 A 
ATOM     27  C   LIG    1       26.961 -25.822  13.303  0.00  0.00    +0.001 A 
ATOM     28  C   LIG    1       22.867 -26.631  13.359  0.00  0.00    +0.008 A 
ATOM     29  C   LIG    1       22.345 -27.847  12.956  0.00  0.00    +0.001 A 
ATOM     30  C   LIG    1       26.477 -27.017  12.757  0.00  0.00    +0.009 A 
ATOM     31  C   LIG    1       23.203 -28.896  12.626  0.00  0.00    +0.007 A 
ENDBRANCH  21  22
BRANCH  21  32
ATOM     32  O   LIG    1       25.123 -31.044  13.140  0.00  0.00    -0.383 OA
ATOM     33  H   LIG    1       25.170 -31.902  12.689  0.00  0.00    +0.211 HD
ENDBRANCH  21  32
BRANCH  21  34
ATOM     34  C   LIG    1       27.032 -29.811  12.356  0.00  0.00    +0.056 C 
BRANCH  34  35
ATOM     35  C   LIG    1       27.633 -30.184  13.739  0.00  0.00    +0.087 C 
BRANCH  35  36
ATOM     36  N   LIG    1       29.112 -30.034  13.827  0.00  0.00    -0.308 NA
ATOM     37  C   LIG    1       29.533 -29.063  14.836  0.00  0.00    +0.104 C 
ATOM     38  C   LIG    1       29.657 -29.644  12.519  0.00  0.00    +0.104 C 
ENDBRANCH  35  36
ENDBRANCH  34  35
ENDBRANCH  21  34
ENDBRANCH   1  21
TORSDOF 9
ENDMDL
MODEL 9
REMARK VINA RESULT:      -6.0      3.267      7.999
REMARK  Name = *****
REMARK                            x       y       z     vdW  Elec       q    Type
REMARK                         _______ _______ _______ _____ _____    ______ ____
ROOT
ATOM      1  C   LIG    1       24.095 -30.678   8.610  0.00  0.00    +0.090 C 
ENDROOT
BRANCH   1   3
ATOM      2  C   LIG    1       24.836 -29.784  10.936  0.00  0.00    +0.219 A 
ATOM      3  C   LIG    1       23.808 -30.075  10.027  0.00  0.00    +0.025 A 
ATOM      4  C   LIG    1       22.523 -29.906  10.555  0.00  0.00    +0.019 A 
ATOM      5  C   LIG    1       22.315 -29.402  11.877  0.00  0.00    +0.002 A 
ATOM      6  C   LIG    1       23.433 -29.127  12.660  0.00  0.00    +0.075 A 
ATOM      7  C   LIG    1       23.272 -28.666  13.971  0.00  0.00    +0.029 A 
ATOM      8  C   LIG    1       22.006 -28.444  14.498  0.00  0.00    +0.017 A 
ATOM      9  C   LIG    1       20.886 -28.690  13.722  0.00  0.00    +0.019 A 
ATOM     10 BR   LIG    1       19.152 -28.368  14.412  0.00  0.00    -0.050 Br
ATOM     11  C   LIG    1       21.045 -29.181  12.415  0.00  0.00    +0.025 A 
ATOM     12  N   LIG    1       24.654 -29.311  12.193  0.00  0.00    -0.213 NA
BRANCH   2  14
ATOM     13  C   LIG    1       27.116 -29.691  11.581  0.00  0.00    +0.278 C 
ATOM     14  O   LIG    1       26.149 -30.003  10.571  0.00  0.00    -0.479 OA
ENDBRANCH   2  14
ENDBRANCH   1   3
BRANCH   1  15
ATOM     15  C   LIG    1       24.656 -29.547   7.714  0.00  0.00    -0.037 A 
ATOM     16  C   LIG    1       24.114 -29.356   6.427  0.00  0.00    +0.004 A 
ATOM     17  C   LIG    1       24.400 -28.208   5.679  0.00  0.00    +0.000 A 
ATOM     18  C   LIG    1       25.269 -27.247   6.184  0.00  0.00    +0.000 A 
ATOM     19  C   LIG    1       25.904 -27.470   7.401  0.00  0.00    +0.000 A 
ATOM     20  C   LIG    1       25.585 -28.598   8.168  0.00  0.00    +0.004 A 
ENDBRANCH   1  15
BRANCH   1  21
ATOM     21  C   LIG    1       24.823 -32.145   8.504  0.00  0.00    +0.103 C 
BRANCH  21  22
ATOM     22  C   LIG    1       24.686 -32.773   7.064  0.00  0.00    -0.007 A 
ATOM     23  C   LIG    1       25.775 -33.192   6.214  0.00  0.00    -0.012 A 
ATOM     24  C   LIG    1       25.511 -33.579   4.867  0.00  0.00    -0.018 A 
ATOM     25  C   LIG    1       26.554 -33.824   3.952  0.00  0.00    +0.008 A 
ATOM     26  C   LIG    1       27.883 -33.708   4.337  0.00  0.00    +0.001 A 
ATOM     27  C   LIG    1       28.172 -33.467   5.666  0.00  0.00    +0.001 A 
ATOM     28  C   LIG    1       24.199 -33.743   4.423  0.00  0.00    +0.008 A 
ATOM     29  C   LIG    1       23.137 -33.436   5.257  0.00  0.00    +0.001 A 
ATOM     30  C   LIG    1       27.137 -33.278   6.589  0.00  0.00    +0.009 A 
ATOM     31  C   LIG    1       23.379 -32.903   6.521  0.00  0.00    +0.007 A 
ENDBRANCH  21  22
BRANCH  21  32
ATOM     32  O   LIG    1       26.246 -31.984   8.751  0.00  0.00    -0.383 OA
ATOM     33  H   LIG    1       26.537 -31.167   8.314  0.00  0.00    +0.211 HD
ENDBRANCH  21  32
BRANCH  21  34
ATOM     34  C   LIG    1       24.320 -33.088   9.671  0.00  0.00    +0.056 C 
BRANCH  34  35
ATOM     35  C   LIG    1       25.336 -33.404  10.802  0.00  0.00    +0.087 C 
BRANCH  35  36
ATOM     36  N   LIG    1       24.730 -33.530  12.156  0.00  0.00    -0.308 NA
ATOM     37  C   LIG    1       23.331 -33.107  12.203  0.00  0.00    +0.104 C 
ATOM     38  C   LIG    1       25.508 -32.749  13.130  0.00  0.00    +0.104 C 
ENDBRANCH  35  36
ENDBRANCH  34  35
ENDBRANCH  21  34
ENDBRANCH   1  21
TORSDOF 9
ENDMDL
