MODEL 1
REMARK VINA RESULT:      -5.7      0.000      0.000
REMARK  Name = *****
REMARK                            x       y       z     vdW  Elec       q    Type
REMARK                         _______ _______ _______ _____ _____    ______ ____
ROOT
ATOM      1  C   LIG    1       25.073 -12.345   2.787  0.00  0.00    +0.014 C 
ATOM      2  C   LIG    1       25.382 -13.525   3.760  0.00  0.00    -0.001 C 
ATOM      3  C   LIG    1       26.476 -12.996   4.748  0.00  0.00    +0.149 C 
ATOM      4  C   LIG    1       27.812 -13.271   4.031  0.00  0.00    +0.144 C 
ATOM      5  C   LIG    1       27.576 -14.665   3.490  0.00  0.00    +0.038 C 
ATOM      6  C   LIG    1       26.094 -14.705   3.011  0.00  0.00    +0.004 C 
ATOM      7  C   LIG    1       25.481 -16.149   3.029  0.00  0.00    +0.001 C 
ATOM      8  C   LIG    1       24.032 -16.277   3.575  0.00  0.00    +0.023 C 
ATOM      9  C   LIG    1       23.617 -17.716   3.927  0.00  0.00    -0.041 A 
ATOM     10  C   LIG    1       24.536 -18.779   3.935  0.00  0.00    -0.041 A 
ATOM     11  C   LIG    1       25.941 -18.602   3.453  0.00  0.00    +0.036 C 
ATOM     12  C   LIG    1       24.154 -20.066   4.344  0.00  0.00    +0.049 A 
ATOM     13  C   LIG    1       22.844 -20.307   4.738  0.00  0.00    +0.117 A 
ATOM     14  C   LIG    1       21.907 -19.293   4.694  0.00  0.00    +0.045 A 
ATOM     15  C   LIG    1       22.283 -18.006   4.287  0.00  0.00    +0.008 A 
ATOM     16  C   LIG    1       23.824 -15.348   4.781  0.00  0.00    +0.009 C 
ATOM     17  C   LIG    1       26.409 -17.187   3.691  0.00  0.00    +0.009 C 
ATOM     18  C   LIG    1       24.038 -13.883   4.423  0.00  0.00    +0.010 C 
ENDROOT
BRANCH   3  19
ATOM     19  O   LIG    1       26.435 -13.680   6.001  0.00  0.00    -0.389 OA
ATOM     20  H   LIG    1       25.851 -14.453   5.924  0.00  0.00    +0.210 HD
ENDBRANCH   3  19
BRANCH   4  21
ATOM     21  O   LIG    1       28.072 -12.364   2.968  0.00  0.00    -0.389 OA
ATOM     22  H   LIG    1       28.094 -11.461   3.328  0.00  0.00    +0.210 HD
ENDBRANCH   4  21
BRANCH  13  23
ATOM     23  O   LIG    1       22.544 -21.569   5.150  0.00  0.00    -0.507 OA
ATOM     24  H   LIG    1       21.638 -21.776   4.864  0.00  0.00    +0.292 HD
ENDBRANCH  13  23
TORSDOF 3
ENDMDL
MODEL 2
REMARK VINA RESULT:      -4.0      1.225      6.801
REMARK  Name = *****
REMARK                            x       y       z     vdW  Elec       q    Type
REMARK                         _______ _______ _______ _____ _____    ______ ____
ROOT
ATOM      1  C   LIG    1       23.893 -21.508   2.932  0.00  0.00    +0.014 C 
ATOM      2  C   LIG    1       24.069 -20.382   3.998  0.00  0.00    -0.001 C 
ATOM      3  C   LIG    1       23.559 -20.982   5.352  0.00  0.00    +0.149 C 
ATOM      4  C   LIG    1       22.042 -20.708   5.350  0.00  0.00    +0.144 C 
ATOM      5  C   LIG    1       21.999 -19.285   4.834  0.00  0.00    +0.038 C 
ATOM      6  C   LIG    1       23.090 -19.187   3.726  0.00  0.00    +0.004 C 
ATOM      7  C   LIG    1       23.641 -17.731   3.533  0.00  0.00    +0.001 C 
ATOM      8  C   LIG    1       25.177 -17.591   3.351  0.00  0.00    +0.023 C 
ATOM      9  C   LIG    1       25.707 -16.160   3.545  0.00  0.00    -0.041 A 
ATOM     10  C   LIG    1       24.896 -15.122   4.032  0.00  0.00    -0.041 A 
ATOM     11  C   LIG    1       23.428 -15.311   4.248  0.00  0.00    +0.036 C 
ATOM     12  C   LIG    1       25.423 -13.846   4.285  0.00  0.00    +0.049 A 
ATOM     13  C   LIG    1       26.766 -13.590   4.039  0.00  0.00    +0.117 A 
ATOM     14  C   LIG    1       27.577 -14.578   3.514  0.00  0.00    +0.045 A 
ATOM     15  C   LIG    1       27.056 -15.854   3.261  0.00  0.00    +0.008 A 
ATOM     16  C   LIG    1       25.922 -18.569   4.274  0.00  0.00    +0.009 C 
ATOM     17  C   LIG    1       23.124 -16.747   4.602  0.00  0.00    +0.009 C 
ATOM     18  C   LIG    1       25.567 -20.021   3.981  0.00  0.00    +0.010 C 
ENDROOT
BRANCH   3  19
ATOM     19  O   LIG    1       24.176 -20.354   6.477  0.00  0.00    -0.389 OA
ATOM     20  H   LIG    1       23.621 -19.615   6.774  0.00  0.00    +0.210 HD
ENDBRANCH   3  19
BRANCH   4  21
ATOM     21  O   LIG    1       21.320 -21.571   4.483  0.00  0.00    -0.389 OA
ATOM     22  H   LIG    1       20.924 -21.039   3.771  0.00  0.00    +0.210 HD
ENDBRANCH   4  21
BRANCH  13  23
ATOM     23  O   LIG    1       27.222 -12.342   4.330  0.00  0.00    -0.507 OA
ATOM     24  H   LIG    1       28.185 -12.390   4.457  0.00  0.00    +0.292 HD
ENDBRANCH  13  23
TORSDOF 3
ENDMDL
