MODEL 1
REMARK VINA RESULT:      -8.4      0.000      0.000
REMARK  Name = *****
REMARK                            x       y       z     vdW  Elec       q    Type
REMARK                         _______ _______ _______ _____ _____    ______ ____
ROOT
ATOM      1  O   LIG    1       27.997 -21.052   6.941  0.00  0.00    -0.461 OA
ENDROOT
BRANCH   1  10
ATOM      2  C   LIG    1       23.372 -20.437   6.942  0.00  0.00    +0.193 C 
ATOM      3  N   LIG    1       24.132 -21.756   6.988  0.00  0.00    +0.247 N 
ATOM      4  C   LIG    1       23.025 -22.833   7.025  0.00  0.00    +0.193 C 
ATOM      5  C   LIG    1       25.132 -22.026   5.826  0.00  0.00    +0.102 C 
ATOM      6  C   LIG    1       26.046 -23.158   6.282  0.00  0.00    +0.201 C 
ATOM      7  C   LIG    1       26.072 -23.085   7.778  0.00  0.00    +0.201 C 
ATOM      8  O   LIG    1       25.510 -24.205   7.101  0.00  0.00    -0.357 OA
ATOM      9  C   LIG    1       25.995 -20.754   5.650  0.00  0.00    +0.102 C 
ATOM     10  C   LIG    1       26.734 -20.331   6.947  0.00  0.00    +0.187 C 
ATOM     11  C   LIG    1       25.988 -20.654   8.269  0.00  0.00    +0.102 C 
ATOM     12  C   LIG    1       25.141 -21.942   8.168  0.00  0.00    +0.102 C 
ENDBRANCH   1  10
BRANCH   1  13
ATOM     13  C   LIG    1       28.991 -20.574   7.751  0.00  0.00    +0.317 C 
ATOM     14  O   LIG    1       29.563 -21.265   8.577  0.00  0.00    -0.250 OA
BRANCH  13  15
ATOM     15  C   LIG    1       29.371 -19.136   7.388  0.00  0.00    +0.153 C 
BRANCH  15  16
ATOM     16  C   LIG    1       30.203 -18.426   8.458  0.00  0.00    -0.032 A 
ATOM     17  C   LIG    1       31.572 -18.185   8.252  0.00  0.00    +0.004 A 
ATOM     18  C   LIG    1       32.341 -17.533   9.223  0.00  0.00    +0.000 A 
ATOM     19  C   LIG    1       31.756 -17.112  10.414  0.00  0.00    +0.000 A 
ATOM     20  C   LIG    1       30.404 -17.356  10.640  0.00  0.00    +0.000 A 
ATOM     21  C   LIG    1       29.633 -18.009   9.674  0.00  0.00    +0.004 A 
ENDBRANCH  15  16
BRANCH  15  22
ATOM     22  C   LIG    1       30.072 -19.102   6.019  0.00  0.00    +0.175 C 
BRANCH  22  23
ATOM     23  O   LIG    1       29.677 -17.977   5.236  0.00  0.00    -0.394 OA
ATOM     24  H   LIG    1       28.739 -18.113   4.985  0.00  0.00    +0.209 HD
ENDBRANCH  22  23
ENDBRANCH  15  22
ENDBRANCH  13  15
ENDBRANCH   1  13
TORSDOF 6
ENDMDL
MODEL 2
REMARK VINA RESULT:      -7.8      0.760      1.667
REMARK  Name = *****
REMARK                            x       y       z     vdW  Elec       q    Type
REMARK                         _______ _______ _______ _____ _____    ______ ____
ROOT
ATOM      1  O   LIG    1       27.899 -20.872   6.892  0.00  0.00    -0.461 OA
ENDROOT
BRANCH   1  10
ATOM      2  C   LIG    1       23.243 -20.571   6.927  0.00  0.00    +0.193 C 
ATOM      3  N   LIG    1       24.091 -21.835   6.978  0.00  0.00    +0.247 N 
ATOM      4  C   LIG    1       23.060 -22.984   7.032  0.00  0.00    +0.193 C 
ATOM      5  C   LIG    1       25.098 -22.046   5.809  0.00  0.00    +0.102 C 
ATOM      6  C   LIG    1       26.090 -23.111   6.267  0.00  0.00    +0.201 C 
ATOM      7  C   LIG    1       26.123 -23.022   7.762  0.00  0.00    +0.201 C 
ATOM      8  O   LIG    1       25.632 -24.184   7.099  0.00  0.00    -0.357 OA
ATOM      9  C   LIG    1       25.872 -20.721   5.616  0.00  0.00    +0.102 C 
ATOM     10  C   LIG    1       26.591 -20.238   6.904  0.00  0.00    +0.187 C 
ATOM     11  C   LIG    1       25.879 -20.600   8.234  0.00  0.00    +0.102 C 
ATOM     12  C   LIG    1       25.120 -21.942   8.150  0.00  0.00    +0.102 C 
ENDBRANCH   1  10
BRANCH   1  13
ATOM     13  C   LIG    1       28.972 -20.080   6.585  0.00  0.00    +0.317 C 
ATOM     14  O   LIG    1       28.939 -19.227   5.713  0.00  0.00    -0.250 OA
BRANCH  13  15
ATOM     15  C   LIG    1       30.136 -20.305   7.553  0.00  0.00    +0.153 C 
BRANCH  15  16
ATOM     16  C   LIG    1       30.540 -19.057   8.339  0.00  0.00    -0.032 A 
ATOM     17  C   LIG    1       31.827 -18.509   8.194  0.00  0.00    +0.004 A 
ATOM     18  C   LIG    1       32.205 -17.365   8.906  0.00  0.00    +0.000 A 
ATOM     19  C   LIG    1       31.307 -16.751   9.774  0.00  0.00    +0.000 A 
ATOM     20  C   LIG    1       30.034 -17.289   9.942  0.00  0.00    +0.000 A 
ATOM     21  C   LIG    1       29.653 -18.434   9.234  0.00  0.00    +0.004 A 
ENDBRANCH  15  16
BRANCH  15  22
ATOM     22  C   LIG    1       29.823 -21.483   8.493  0.00  0.00    +0.175 C 
BRANCH  22  23
ATOM     23  O   LIG    1       30.800 -21.630   9.521  0.00  0.00    -0.394 OA
ATOM     24  H   LIG    1       30.503 -21.089  10.284  0.00  0.00    +0.209 HD
ENDBRANCH  22  23
ENDBRANCH  15  22
ENDBRANCH  13  15
ENDBRANCH   1  13
TORSDOF 6
ENDMDL
MODEL 3
REMARK VINA RESULT:      -7.3      1.239      2.265
REMARK  Name = *****
REMARK                            x       y       z     vdW  Elec       q    Type
REMARK                         _______ _______ _______ _____ _____    ______ ____
ROOT
ATOM      1  O   LIG    1       27.568 -21.625   6.860  0.00  0.00    -0.461 OA
ENDROOT
BRANCH   1  10
ATOM      2  C   LIG    1       23.014 -22.414   7.496  0.00  0.00    +0.193 C 
ATOM      3  N   LIG    1       23.672 -21.649   6.355  0.00  0.00    +0.247 N 
ATOM      4  C   LIG    1       22.490 -21.191   5.471  0.00  0.00    +0.193 C 
ATOM      5  C   LIG    1       24.571 -20.441   6.752  0.00  0.00    +0.102 C 
ATOM      6  C   LIG    1       25.423 -20.104   5.533  0.00  0.00    +0.201 C 
ATOM      7  C   LIG    1       25.552 -21.380   4.759  0.00  0.00    +0.201 C 
ATOM      8  O   LIG    1       24.863 -20.254   4.223  0.00  0.00    -0.357 OA
ATOM      9  C   LIG    1       25.515 -20.916   7.882  0.00  0.00    +0.102 C 
ATOM     10  C   LIG    1       26.367 -22.151   7.489  0.00  0.00    +0.187 C 
ATOM     11  C   LIG    1       25.686 -23.138   6.504  0.00  0.00    +0.102 C 
ATOM     12  C   LIG    1       24.739 -22.424   5.515  0.00  0.00    +0.102 C 
ENDBRANCH   1  10
BRANCH   1  13
ATOM     13  C   LIG    1       28.469 -20.991   7.672  0.00  0.00    +0.317 C 
ATOM     14  O   LIG    1       29.016 -21.540   8.613  0.00  0.00    -0.250 OA
BRANCH  13  15
ATOM     15  C   LIG    1       28.793 -19.583   7.163  0.00  0.00    +0.153 C 
BRANCH  15  16
ATOM     16  C   LIG    1       29.870 -18.863   7.975  0.00  0.00    -0.032 A 
ATOM     17  C   LIG    1       29.528 -18.145   9.134  0.00  0.00    +0.004 A 
ATOM     18  C   LIG    1       30.508 -17.486   9.886  0.00  0.00    +0.000 A 
ATOM     19  C   LIG    1       31.842 -17.531   9.493  0.00  0.00    +0.000 A 
ATOM     20  C   LIG    1       32.196 -18.225   8.338  0.00  0.00    +0.000 A 
ATOM     21  C   LIG    1       31.220 -18.883   7.583  0.00  0.00    +0.004 A 
ENDBRANCH  15  16
BRANCH  15  22
ATOM     22  C   LIG    1       29.154 -19.630   5.668  0.00  0.00    +0.175 C 
BRANCH  22  23
ATOM     23  O   LIG    1       28.885 -18.395   5.007  0.00  0.00    -0.394 OA
ATOM     24  H   LIG    1       27.965 -18.441   4.670  0.00  0.00    +0.209 HD
ENDBRANCH  22  23
ENDBRANCH  15  22
ENDBRANCH  13  15
ENDBRANCH   1  13
TORSDOF 6
ENDMDL
MODEL 4
REMARK VINA RESULT:      -7.2      6.552      9.473
REMARK  Name = *****
REMARK                            x       y       z     vdW  Elec       q    Type
REMARK                         _______ _______ _______ _____ _____    ______ ____
ROOT
ATOM      1  O   LIG    1       25.443 -29.087   6.730  0.00  0.00    -0.461 OA
ENDROOT
BRANCH   1  10
ATOM      2  C   LIG    1       22.886 -32.441   8.724  0.00  0.00    +0.193 C 
ATOM      3  N   LIG    1       24.387 -32.449   8.468  0.00  0.00    +0.247 N 
ATOM      4  C   LIG    1       24.859 -33.816   9.009  0.00  0.00    +0.193 C 
ATOM      5  C   LIG    1       24.844 -32.245   6.994  0.00  0.00    +0.102 C 
ATOM      6  C   LIG    1       26.325 -31.881   7.036  0.00  0.00    +0.201 C 
ATOM      7  C   LIG    1       26.550 -31.237   8.370  0.00  0.00    +0.201 C 
ATOM      8  O   LIG    1       27.166 -32.477   8.033  0.00  0.00    -0.357 OA
ATOM      9  C   LIG    1       24.068 -31.032   6.429  0.00  0.00    +0.102 C 
ATOM     10  C   LIG    1       24.259 -29.739   7.266  0.00  0.00    +0.187 C 
ATOM     11  C   LIG    1       24.464 -29.960   8.788  0.00  0.00    +0.102 C 
ATOM     12  C   LIG    1       25.210 -31.277   9.097  0.00  0.00    +0.102 C 
ENDBRANCH   1  10
BRANCH   1  13
ATOM     13  C   LIG    1       25.615 -27.764   7.030  0.00  0.00    +0.317 C 
ATOM     14  O   LIG    1       26.245 -27.380   8.002  0.00  0.00    -0.250 OA
BRANCH  13  15
ATOM     15  C   LIG    1       25.048 -26.858   5.934  0.00  0.00    +0.153 C 
BRANCH  15  16
ATOM     16  C   LIG    1       24.827 -25.411   6.377  0.00  0.00    -0.032 A 
ATOM     17  C   LIG    1       25.915 -24.611   6.767  0.00  0.00    +0.004 A 
ATOM     18  C   LIG    1       25.723 -23.284   7.170  0.00  0.00    +0.000 A 
ATOM     19  C   LIG    1       24.444 -22.736   7.193  0.00  0.00    +0.000 A 
ATOM     20  C   LIG    1       23.353 -23.519   6.825  0.00  0.00    +0.000 A 
ATOM     21  C   LIG    1       23.540 -24.846   6.423  0.00  0.00    +0.004 A 
ENDBRANCH  15  16
BRANCH  15  22
ATOM     22  C   LIG    1       25.932 -26.931   4.676  0.00  0.00    +0.175 C 
BRANCH  22  23
ATOM     23  O   LIG    1       27.266 -27.335   4.975  0.00  0.00    -0.394 OA
ATOM     24  H   LIG    1       27.417 -27.157   5.928  0.00  0.00    +0.209 HD
ENDBRANCH  22  23
ENDBRANCH  15  22
ENDBRANCH  13  15
ENDBRANCH   1  13
TORSDOF 6
ENDMDL
MODEL 5
REMARK VINA RESULT:      -7.1      1.144      1.895
REMARK  Name = *****
REMARK                            x       y       z     vdW  Elec       q    Type
REMARK                         _______ _______ _______ _____ _____    ______ ____
ROOT
ATOM      1  O   LIG    1       27.503 -20.248   7.412  0.00  0.00    -0.461 OA
ENDROOT
BRANCH   1  10
ATOM      2  C   LIG    1       25.080 -23.676   5.374  0.00  0.00    +0.193 C 
ATOM      3  N   LIG    1       24.566 -22.638   6.363  0.00  0.00    +0.247 N 
ATOM      4  C   LIG    1       23.072 -22.988   6.540  0.00  0.00    +0.193 C 
ATOM      5  C   LIG    1       25.289 -22.570   7.741  0.00  0.00    +0.102 C 
ATOM      6  C   LIG    1       24.902 -21.238   8.377  0.00  0.00    +0.201 C 
ATOM      7  C   LIG    1       24.587 -20.317   7.239  0.00  0.00    +0.201 C 
ATOM      8  O   LIG    1       23.583 -20.718   8.168  0.00  0.00    -0.357 OA
ATOM      9  C   LIG    1       26.811 -22.546   7.467  0.00  0.00    +0.102 C 
ATOM     10  C   LIG    1       27.248 -21.383   6.538  0.00  0.00    +0.187 C 
ATOM     11  C   LIG    1       26.204 -20.959   5.471  0.00  0.00    +0.102 C 
ATOM     12  C   LIG    1       24.752 -21.138   5.965  0.00  0.00    +0.102 C 
ENDBRANCH   1  10
BRANCH   1  13
ATOM     13  C   LIG    1       28.770 -20.121   7.913  0.00  0.00    +0.317 C 
ATOM     14  O   LIG    1       29.343 -21.020   8.505  0.00  0.00    -0.250 OA
BRANCH  13  15
ATOM     15  C   LIG    1       29.402 -18.784   7.514  0.00  0.00    +0.153 C 
BRANCH  15  16
ATOM     16  C   LIG    1       30.258 -18.150   8.612  0.00  0.00    -0.032 A 
ATOM     17  C   LIG    1       31.622 -17.891   8.392  0.00  0.00    +0.004 A 
ATOM     18  C   LIG    1       32.412 -17.308   9.389  0.00  0.00    +0.000 A 
ATOM     19  C   LIG    1       31.855 -16.976  10.620  0.00  0.00    +0.000 A 
ATOM     20  C   LIG    1       30.509 -17.240  10.861  0.00  0.00    +0.000 A 
ATOM     21  C   LIG    1       29.717 -17.825   9.868  0.00  0.00    +0.004 A 
ENDBRANCH  15  16
BRANCH  15  22
ATOM     22  C   LIG    1       30.196 -18.943   6.205  0.00  0.00    +0.175 C 
BRANCH  22  23
ATOM     23  O   LIG    1       29.748 -18.049   5.188  0.00  0.00    -0.394 OA
ATOM     24  H   LIG    1       29.518 -18.593   4.405  0.00  0.00    +0.209 HD
ENDBRANCH  22  23
ENDBRANCH  15  22
ENDBRANCH  13  15
ENDBRANCH   1  13
TORSDOF 6
ENDMDL
MODEL 6
REMARK VINA RESULT:      -7.1      1.428      2.624
REMARK  Name = *****
REMARK                            x       y       z     vdW  Elec       q    Type
REMARK                         _______ _______ _______ _____ _____    ______ ____
ROOT
ATOM      1  O   LIG    1       28.687 -19.962   7.308  0.00  0.00    -0.461 OA
ENDROOT
BRANCH   1  10
ATOM      2  C   LIG    1       25.285 -22.408   5.257  0.00  0.00    +0.193 C 
ATOM      3  N   LIG    1       25.384 -22.008   6.724  0.00  0.00    +0.247 N 
ATOM      4  C   LIG    1       24.113 -22.603   7.369  0.00  0.00    +0.193 C 
ATOM      5  C   LIG    1       26.663 -22.466   7.486  0.00  0.00    +0.102 C 
ATOM      6  C   LIG    1       26.741 -21.630   8.759  0.00  0.00    +0.201 C 
ATOM      7  C   LIG    1       26.027 -20.349   8.453  0.00  0.00    +0.201 C 
ATOM      8  O   LIG    1       25.530 -21.259   9.431  0.00  0.00    -0.357 OA
ATOM      9  C   LIG    1       27.883 -22.111   6.603  0.00  0.00    +0.102 C 
ATOM     10  C   LIG    1       27.953 -20.606   6.231  0.00  0.00    +0.187 C 
ATOM     11  C   LIG    1       26.581 -19.898   6.077  0.00  0.00    +0.102 C 
ATOM     12  C   LIG    1       25.509 -20.478   7.025  0.00  0.00    +0.102 C 
ENDBRANCH   1  10
BRANCH   1  13
ATOM     13  C   LIG    1       29.747 -19.172   6.953  0.00  0.00    +0.317 C 
ATOM     14  O   LIG    1       29.677 -18.319   6.085  0.00  0.00    -0.250 OA
BRANCH  13  15
ATOM     15  C   LIG    1       30.953 -19.402   7.868  0.00  0.00    +0.153 C 
BRANCH  15  16
ATOM     16  C   LIG    1       31.146 -18.314   8.926  0.00  0.00    -0.032 A 
ATOM     17  C   LIG    1       30.222 -18.170   9.976  0.00  0.00    +0.004 A 
ATOM     18  C   LIG    1       30.392 -17.181  10.951  0.00  0.00    +0.000 A 
ATOM     19  C   LIG    1       31.484 -16.319  10.893  0.00  0.00    +0.000 A 
ATOM     20  C   LIG    1       32.399 -16.438   9.851  0.00  0.00    +0.000 A 
ATOM     21  C   LIG    1       32.232 -17.424   8.873  0.00  0.00    +0.004 A 
ENDBRANCH  15  16
BRANCH  15  22
ATOM     22  C   LIG    1       30.875 -20.799   8.507  0.00  0.00    +0.175 C 
BRANCH  22  23
ATOM     23  O   LIG    1       32.062 -21.134   9.224  0.00  0.00    -0.394 OA
ATOM     24  H   LIG    1       32.708 -20.413   9.067  0.00  0.00    +0.209 HD
ENDBRANCH  22  23
ENDBRANCH  15  22
ENDBRANCH  13  15
ENDBRANCH   1  13
TORSDOF 6
ENDMDL
MODEL 7
REMARK VINA RESULT:      -6.4      2.241      6.770
REMARK  Name = *****
REMARK                            x       y       z     vdW  Elec       q    Type
REMARK                         _______ _______ _______ _____ _____    ______ ____
ROOT
ATOM      1  O   LIG    1       28.139 -21.366   7.001  0.00  0.00    -0.461 OA
ENDROOT
BRANCH   1  10
ATOM      2  C   LIG    1       31.003 -19.255  10.020  0.00  0.00    +0.193 C 
ATOM      3  N   LIG    1       30.802 -18.925   8.546  0.00  0.00    +0.247 N 
ATOM      4  C   LIG    1       31.767 -17.747   8.284  0.00  0.00    +0.193 C 
ATOM      5  C   LIG    1       31.049 -20.082   7.533  0.00  0.00    +0.102 C 
ATOM      6  C   LIG    1       30.408 -19.661   6.215  0.00  0.00    +0.201 C 
ATOM      7  C   LIG    1       29.302 -18.719   6.582  0.00  0.00    +0.201 C 
ATOM      8  O   LIG    1       30.432 -18.279   5.834  0.00  0.00    -0.357 OA
ATOM      9  C   LIG    1       30.295 -21.327   8.057  0.00  0.00    +0.102 C 
ATOM     10  C   LIG    1       28.779 -21.078   8.275  0.00  0.00    +0.187 C 
ATOM     11  C   LIG    1       28.401 -19.636   8.703  0.00  0.00    +0.102 C 
ATOM     12  C   LIG    1       29.346 -18.575   8.098  0.00  0.00    +0.102 C 
ENDBRANCH   1  10
BRANCH   1  13
ATOM     13  C   LIG    1       26.864 -21.861   7.043  0.00  0.00    +0.317 C 
ATOM     14  O   LIG    1       26.615 -23.055   7.058  0.00  0.00    -0.250 OA
BRANCH  13  15
ATOM     15  C   LIG    1       25.830 -20.743   7.210  0.00  0.00    +0.153 C 
BRANCH  15  16
ATOM     16  C   LIG    1       25.068 -20.407   5.927  0.00  0.00    -0.032 A 
ATOM     17  C   LIG    1       23.662 -20.419   5.910  0.00  0.00    +0.004 A 
ATOM     18  C   LIG    1       22.955 -20.110   4.742  0.00  0.00    +0.000 A 
ATOM     19  C   LIG    1       23.639 -19.785   3.574  0.00  0.00    +0.000 A 
ATOM     20  C   LIG    1       25.031 -19.784   3.569  0.00  0.00    +0.000 A 
ATOM     21  C   LIG    1       25.741 -20.095   4.733  0.00  0.00    +0.004 A 
ENDBRANCH  15  16
BRANCH  15  22
ATOM     22  C   LIG    1       24.868 -21.078   8.363  0.00  0.00    +0.175 C 
BRANCH  22  23
ATOM     23  O   LIG    1       25.543 -21.650   9.482  0.00  0.00    -0.394 OA
ATOM     24  H   LIG    1       25.512 -20.990  10.207  0.00  0.00    +0.209 HD
ENDBRANCH  22  23
ENDBRANCH  15  22
ENDBRANCH  13  15
ENDBRANCH   1  13
TORSDOF 6
ENDMDL
MODEL 8
REMARK VINA RESULT:      -6.4      6.397      9.455
REMARK  Name = *****
REMARK                            x       y       z     vdW  Elec       q    Type
REMARK                         _______ _______ _______ _____ _____    ______ ____
ROOT
ATOM      1  O   LIG    1       24.734 -28.701   7.536  0.00  0.00    -0.461 OA
ENDROOT
BRANCH   1  10
ATOM      2  C   LIG    1       25.746 -33.209   8.186  0.00  0.00    +0.193 C 
ATOM      3  N   LIG    1       24.904 -32.309   9.082  0.00  0.00    +0.247 N 
ATOM      4  C   LIG    1       24.476 -33.226  10.249  0.00  0.00    +0.193 C 
ATOM      5  C   LIG    1       25.590 -31.016   9.612  0.00  0.00    +0.102 C 
ATOM      6  C   LIG    1       24.479 -30.101  10.115  0.00  0.00    +0.201 C 
ATOM      7  C   LIG    1       23.257 -30.472   9.331  0.00  0.00    +0.201 C 
ATOM      8  O   LIG    1       23.324 -30.677  10.739  0.00  0.00    -0.357 OA
ATOM      9  C   LIG    1       26.273 -30.324   8.408  0.00  0.00    +0.102 C 
ATOM     10  C   LIG    1       25.294 -30.011   7.246  0.00  0.00    +0.187 C 
ATOM     11  C   LIG    1       24.128 -31.019   7.074  0.00  0.00    +0.102 C 
ATOM     12  C   LIG    1       23.666 -31.622   8.419  0.00  0.00    +0.102 C 
ENDBRANCH   1  10
BRANCH   1  13
ATOM     13  C   LIG    1       25.513 -27.614   7.248  0.00  0.00    +0.317 C 
ATOM     14  O   LIG    1       26.595 -27.413   7.775  0.00  0.00    -0.250 OA
BRANCH  13  15
ATOM     15  C   LIG    1       24.924 -26.785   6.103  0.00  0.00    +0.153 C 
BRANCH  15  16
ATOM     16  C   LIG    1       24.735 -25.306   6.441  0.00  0.00    -0.032 A 
ATOM     17  C   LIG    1       25.845 -24.493   6.732  0.00  0.00    +0.004 A 
ATOM     18  C   LIG    1       25.681 -23.138   7.039  0.00  0.00    +0.000 A 
ATOM     19  C   LIG    1       24.409 -22.572   7.062  0.00  0.00    +0.000 A 
ATOM     20  C   LIG    1       23.298 -23.366   6.792  0.00  0.00    +0.000 A 
ATOM     21  C   LIG    1       23.457 -24.722   6.487  0.00  0.00    +0.004 A 
ENDBRANCH  15  16
BRANCH  15  22
ATOM     22  C   LIG    1       25.769 -26.966   4.829  0.00  0.00    +0.175 C 
BRANCH  22  23
ATOM     23  O   LIG    1       27.126 -27.293   5.121  0.00  0.00    -0.394 OA
ATOM     24  H   LIG    1       27.153 -28.248   5.342  0.00  0.00    +0.209 HD
ENDBRANCH  22  23
ENDBRANCH  15  22
ENDBRANCH  13  15
ENDBRANCH   1  13
TORSDOF 6
ENDMDL
MODEL 9
REMARK VINA RESULT:      -6.3      2.367      6.670
REMARK  Name = *****
REMARK                            x       y       z     vdW  Elec       q    Type
REMARK                         _______ _______ _______ _____ _____    ______ ____
ROOT
ATOM      1  O   LIG    1       26.372 -21.115   7.197  0.00  0.00    -0.461 OA
ENDROOT
BRANCH   1  10
ATOM      2  C   LIG    1       30.722 -20.841   8.861  0.00  0.00    +0.193 C 
ATOM      3  N   LIG    1       30.149 -20.129   7.642  0.00  0.00    +0.247 N 
ATOM      4  C   LIG    1       31.336 -19.311   7.085  0.00  0.00    +0.193 C 
ATOM      5  C   LIG    1       29.527 -21.032   6.536  0.00  0.00    +0.102 C 
ATOM      6  C   LIG    1       28.676 -20.126   5.652  0.00  0.00    +0.201 C 
ATOM      7  C   LIG    1       28.254 -18.983   6.524  0.00  0.00    +0.201 C 
ATOM      8  O   LIG    1       29.109 -18.782   5.403  0.00  0.00    -0.357 OA
ATOM      9  C   LIG    1       28.586 -22.042   7.234  0.00  0.00    +0.102 C 
ATOM     10  C   LIG    1       27.488 -21.362   8.095  0.00  0.00    +0.187 C 
ATOM     11  C   LIG    1       27.900 -20.018   8.751  0.00  0.00    +0.102 C 
ATOM     12  C   LIG    1       28.900 -19.221   7.885  0.00  0.00    +0.102 C 
ENDBRANCH   1  10
BRANCH   1  13
ATOM     13  C   LIG    1       25.153 -21.613   7.568  0.00  0.00    +0.317 C 
ATOM     14  O   LIG    1       24.768 -21.633   8.725  0.00  0.00    -0.250 OA
BRANCH  13  15
ATOM     15  C   LIG    1       24.307 -21.998   6.351  0.00  0.00    +0.153 C 
BRANCH  15  16
ATOM     16  C   LIG    1       23.946 -20.818   5.447  0.00  0.00    -0.032 A 
ATOM     17  C   LIG    1       22.758 -20.097   5.657  0.00  0.00    +0.004 A 
ATOM     18  C   LIG    1       22.421 -19.014   4.837  0.00  0.00    +0.000 A 
ATOM     19  C   LIG    1       23.263 -18.634   3.796  0.00  0.00    +0.000 A 
ATOM     20  C   LIG    1       24.436 -19.347   3.565  0.00  0.00    +0.000 A 
ATOM     21  C   LIG    1       24.775 -20.431   4.380  0.00  0.00    +0.004 A 
ENDBRANCH  15  16
BRANCH  15  22
ATOM     22  C   LIG    1       24.998 -23.121   5.559  0.00  0.00    +0.175 C 
BRANCH  22  23
ATOM     23  O   LIG    1       25.739 -24.002   6.401  0.00  0.00    -0.394 OA
ATOM     24  H   LIG    1       26.402 -23.458   6.877  0.00  0.00    +0.209 HD
ENDBRANCH  22  23
ENDBRANCH  15  22
ENDBRANCH  13  15
ENDBRANCH   1  13
TORSDOF 6
ENDMDL
