MODEL 1
REMARK VINA RESULT:      -3.0      0.000      0.000
REMARK  Name = *****
REMARK                            x       y       z     vdW  Elec       q    Type
REMARK                         _______ _______ _______ _____ _____    ______ ____
ROOT
ATOM      1  C   LIG    1       25.551 -14.718   3.779  0.00  0.00    +0.056 C 
ATOM      2  C   LIG    1       26.372 -14.346   2.509  0.00  0.00    +0.034 C 
ATOM      3  C   LIG    1       27.007 -12.948   2.579  0.00  0.00    +0.085 C 
ATOM      4  N   LIG    1       27.810 -12.709   3.780  0.00  0.00    -0.305 NA
ATOM      5  C   LIG    1       29.103 -13.384   3.728  0.00  0.00    +0.105 C 
ATOM      6  C   LIG    1       27.049 -13.003   4.992  0.00  0.00    +0.085 C 
ATOM      7  C   LIG    1       26.442 -14.406   5.011  0.00  0.00    +0.034 C 
ENDROOT
BRANCH   1   8
ATOM      8  C   LIG    1       25.154 -16.216   3.704  0.00  0.00    -0.030 A 
ATOM      9  C   LIG    1       23.846 -16.613   4.042  0.00  0.00    +0.050 A 
ATOM     10  C   LIG    1       23.467 -17.954   3.978  0.00  0.00    +0.117 A 
ATOM     11  C   LIG    1       24.371 -18.937   3.599  0.00  0.00    +0.045 A 
ATOM     12  C   LIG    1       25.674 -18.570   3.282  0.00  0.00    +0.004 A 
ATOM     13  C   LIG    1       26.062 -17.228   3.336  0.00  0.00    +0.005 A 
BRANCH  10  14
ATOM     14  O   LIG    1       22.179 -18.266   4.299  0.00  0.00    -0.507 OA
ATOM     15  H   LIG    1       22.112 -18.350   5.264  0.00  0.00    +0.292 HD
ENDBRANCH  10  14
ENDBRANCH   1   8
BRANCH   1  16
ATOM     16  C   LIG    1       24.244 -13.867   3.825  0.00  0.00    +0.144 C 
ATOM     17  O   LIG    1       23.513 -13.853   4.825  0.00  0.00    -0.296 OA
BRANCH  16  19
ATOM     18  C   LIG    1       23.824 -11.564   2.897  0.00  0.00    +0.012 C 
ATOM     19  C   LIG    1       23.857 -13.056   2.595  0.00  0.00    +0.072 C 
ENDBRANCH  16  19
ENDBRANCH   1  16
TORSDOF 4
ENDMDL
MODEL 2
REMARK VINA RESULT:      -2.9      1.091      1.611
REMARK  Name = *****
REMARK                            x       y       z     vdW  Elec       q    Type
REMARK                         _______ _______ _______ _____ _____    ______ ____
ROOT
ATOM      1  C   LIG    1       25.338 -14.311   3.870  0.00  0.00    +0.056 C 
ATOM      2  C   LIG    1       26.327 -14.336   2.667  0.00  0.00    +0.034 C 
ATOM      3  C   LIG    1       27.262 -13.117   2.620  0.00  0.00    +0.085 C 
ATOM      4  N   LIG    1       27.995 -12.870   3.863  0.00  0.00    -0.305 NA
ATOM      5  C   LIG    1       29.095 -13.811   4.058  0.00  0.00    +0.105 C 
ATOM      6  C   LIG    1       27.088 -12.793   5.006  0.00  0.00    +0.085 C 
ATOM      7  C   LIG    1       26.170 -14.008   5.144  0.00  0.00    +0.034 C 
ENDROOT
BRANCH   1   8
ATOM      8  C   LIG    1       24.610 -15.678   3.954  0.00  0.00    -0.030 A 
ATOM      9  C   LIG    1       25.282 -16.857   3.578  0.00  0.00    +0.050 A 
ATOM     10  C   LIG    1       24.647 -18.096   3.649  0.00  0.00    +0.117 A 
ATOM     11  C   LIG    1       23.330 -18.204   4.074  0.00  0.00    +0.045 A 
ATOM     12  C   LIG    1       22.639 -17.051   4.430  0.00  0.00    +0.004 A 
ATOM     13  C   LIG    1       23.269 -15.804   4.369  0.00  0.00    +0.005 A 
BRANCH  10  14
ATOM     14  O   LIG    1       25.364 -19.199   3.290  0.00  0.00    -0.507 OA
ATOM     15  H   LIG    1       25.732 -19.604   4.093  0.00  0.00    +0.292 HD
ENDBRANCH  10  14
ENDBRANCH   1   8
BRANCH   1  16
ATOM     16  C   LIG    1       24.266 -13.200   3.644  0.00  0.00    +0.144 C 
ATOM     17  O   LIG    1       23.750 -12.593   4.592  0.00  0.00    -0.296 OA
BRANCH  16  19
ATOM     18  C   LIG    1       24.190 -11.447   1.838  0.00  0.00    +0.012 C 
ATOM     19  C   LIG    1       23.837 -12.878   2.219  0.00  0.00    +0.072 C 
ENDBRANCH  16  19
ENDBRANCH   1  16
TORSDOF 4
ENDMDL
MODEL 3
REMARK VINA RESULT:      -2.6      2.269      3.694
REMARK  Name = *****
REMARK                            x       y       z     vdW  Elec       q    Type
REMARK                         _______ _______ _______ _____ _____    ______ ____
ROOT
ATOM      1  C   LIG    1       26.176 -14.372   3.730  0.00  0.00    +0.056 C 
ATOM      2  C   LIG    1       24.762 -14.000   4.266  0.00  0.00    +0.034 C 
ATOM      3  C   LIG    1       24.401 -12.520   4.062  0.00  0.00    +0.085 C 
ATOM      4  N   LIG    1       24.553 -12.046   2.685  0.00  0.00    -0.305 NA
ATOM      5  C   LIG    1       23.479 -12.514   1.813  0.00  0.00    +0.105 C 
ATOM      6  C   LIG    1       25.888 -12.338   2.169  0.00  0.00    +0.085 C 
ATOM      7  C   LIG    1       26.284 -13.810   2.288  0.00  0.00    +0.034 C 
ENDROOT
BRANCH   1   8
ATOM      8  C   LIG    1       26.344 -15.914   3.776  0.00  0.00    -0.030 A 
ATOM      9  C   LIG    1       27.546 -16.476   4.249  0.00  0.00    +0.050 A 
ATOM     10  C   LIG    1       27.716 -17.859   4.301  0.00  0.00    +0.117 A 
ATOM     11  C   LIG    1       26.716 -18.721   3.872  0.00  0.00    +0.045 A 
ATOM     12  C   LIG    1       25.530 -18.188   3.380  0.00  0.00    +0.004 A 
ATOM     13  C   LIG    1       25.347 -16.803   3.330  0.00  0.00    +0.005 A 
BRANCH  10  14
ATOM     14  O   LIG    1       28.896 -18.335   4.790  0.00  0.00    -0.507 OA
ATOM     15  H   LIG    1       29.465 -18.578   4.042  0.00  0.00    +0.292 HD
ENDBRANCH  10  14
ENDBRANCH   1   8
BRANCH   1  16
ATOM     16  C   LIG    1       27.267 -13.734   4.645  0.00  0.00    +0.144 C 
ATOM     17  O   LIG    1       27.076 -13.554   5.855  0.00  0.00    -0.296 OA
BRANCH  16  19
ATOM     18  C   LIG    1       29.091 -11.997   4.609  0.00  0.00    +0.012 C 
ATOM     19  C   LIG    1       28.588 -13.307   4.017  0.00  0.00    +0.072 C 
ENDBRANCH  16  19
ENDBRANCH   1  16
TORSDOF 4
ENDMDL
MODEL 4
REMARK VINA RESULT:      -2.5      1.314      1.783
REMARK  Name = *****
REMARK                            x       y       z     vdW  Elec       q    Type
REMARK                         _______ _______ _______ _____ _____    ______ ____
ROOT
ATOM      1  C   LIG    1       25.382 -14.607   3.732  0.00  0.00    +0.056 C 
ATOM      2  C   LIG    1       26.272 -14.428   2.466  0.00  0.00    +0.034 C 
ATOM      3  C   LIG    1       27.042 -13.098   2.443  0.00  0.00    +0.085 C 
ATOM      4  N   LIG    1       27.831 -12.836   3.649  0.00  0.00    -0.305 NA
ATOM      5  C   LIG    1       29.051 -13.637   3.701  0.00  0.00    +0.105 C 
ATOM      6  C   LIG    1       27.011 -12.950   4.853  0.00  0.00    +0.085 C 
ATOM      7  C   LIG    1       26.264 -14.279   4.965  0.00  0.00    +0.034 C 
ENDROOT
BRANCH   1   8
ATOM      8  C   LIG    1       24.838 -16.060   3.766  0.00  0.00    -0.030 A 
ATOM      9  C   LIG    1       25.671 -17.131   3.387  0.00  0.00    +0.050 A 
ATOM     10  C   LIG    1       25.203 -18.444   3.413  0.00  0.00    +0.117 A 
ATOM     11  C   LIG    1       23.900 -18.734   3.795  0.00  0.00    +0.045 A 
ATOM     12  C   LIG    1       23.053 -17.690   4.152  0.00  0.00    +0.004 A 
ATOM     13  C   LIG    1       23.515 -16.370   4.136  0.00  0.00    +0.005 A 
BRANCH  10  14
ATOM     14  O   LIG    1       26.069 -19.434   3.054  0.00  0.00    -0.507 OA
ATOM     15  H   LIG    1       26.863 -19.026   2.671  0.00  0.00    +0.292 HD
ENDBRANCH  10  14
ENDBRANCH   1   8
BRANCH   1  16
ATOM     16  C   LIG    1       24.166 -13.632   3.659  0.00  0.00    +0.144 C 
ATOM     17  O   LIG    1       23.600 -13.378   2.587  0.00  0.00    -0.296 OA
BRANCH  16  19
ATOM     18  C   LIG    1       23.699 -11.448   4.822  0.00  0.00    +0.012 C 
ATOM     19  C   LIG    1       23.687 -12.966   4.942  0.00  0.00    +0.072 C 
ENDBRANCH  16  19
ENDBRANCH   1  16
TORSDOF 4
ENDMDL
MODEL 5
REMARK VINA RESULT:      -2.3      4.217      6.894
REMARK  Name = *****
REMARK                            x       y       z     vdW  Elec       q    Type
REMARK                         _______ _______ _______ _____ _____    ______ ____
ROOT
ATOM      1  C   LIG    1       24.929 -20.123   4.591  0.00  0.00    +0.056 C 
ATOM      2  C   LIG    1       23.847 -19.453   5.489  0.00  0.00    +0.034 C 
ATOM      3  C   LIG    1       22.455 -19.408   4.839  0.00  0.00    +0.085 C 
ATOM      4  N   LIG    1       21.972 -20.704   4.357  0.00  0.00    -0.305 NA
ATOM      5  C   LIG    1       21.528 -21.572   5.444  0.00  0.00    +0.105 C 
ATOM      6  C   LIG    1       22.947 -21.336   3.471  0.00  0.00    +0.085 C 
ATOM      7  C   LIG    1       24.341 -21.466   4.085  0.00  0.00    +0.034 C 
ENDROOT
BRANCH   1   8
ATOM      8  C   LIG    1       26.224 -20.322   5.422  0.00  0.00    -0.030 A 
ATOM      9  C   LIG    1       27.305 -19.433   5.264  0.00  0.00    +0.050 A 
ATOM     10  C   LIG    1       28.476 -19.593   6.004  0.00  0.00    +0.117 A 
ATOM     11  C   LIG    1       28.619 -20.641   6.903  0.00  0.00    +0.045 A 
ATOM     12  C   LIG    1       27.573 -21.544   7.059  0.00  0.00    +0.004 A 
ATOM     13  C   LIG    1       26.392 -21.389   6.327  0.00  0.00    +0.005 A 
BRANCH  10  14
ATOM     14  O   LIG    1       29.474 -18.683   5.817  0.00  0.00    -0.507 OA
ATOM     15  H   LIG    1       30.314 -19.086   6.091  0.00  0.00    +0.292 HD
ENDBRANCH  10  14
ENDBRANCH   1   8
BRANCH   1  16
ATOM     16  C   LIG    1       25.262 -19.188   3.387  0.00  0.00    +0.144 C 
ATOM     17  O   LIG    1       25.758 -19.628   2.341  0.00  0.00    -0.296 OA
BRANCH  16  19
ATOM     18  C   LIG    1       26.246 -16.871   3.312  0.00  0.00    +0.012 C 
ATOM     19  C   LIG    1       24.984 -17.696   3.521  0.00  0.00    +0.072 C 
ENDBRANCH  16  19
ENDBRANCH   1  16
TORSDOF 4
ENDMDL
MODEL 6
REMARK VINA RESULT:      -1.3      3.317      6.373
REMARK  Name = *****
REMARK                            x       y       z     vdW  Elec       q    Type
REMARK                         _______ _______ _______ _____ _____    ______ ____
ROOT
ATOM      1  C   LIG    1       23.045 -18.880   4.467  0.00  0.00    +0.056 C 
ATOM      2  C   LIG    1       23.135 -19.290   5.967  0.00  0.00    +0.034 C 
ATOM      3  C   LIG    1       23.084 -20.810   6.189  0.00  0.00    +0.085 C 
ATOM      4  N   LIG    1       24.062 -21.568   5.405  0.00  0.00    -0.305 NA
ATOM      5  C   LIG    1       25.415 -21.451   5.940  0.00  0.00    +0.105 C 
ATOM      6  C   LIG    1       23.969 -21.240   3.984  0.00  0.00    +0.085 C 
ATOM      7  C   LIG    1       24.074 -19.743   3.691  0.00  0.00    +0.034 C 
ENDROOT
BRANCH   1   8
ATOM      8  C   LIG    1       23.335 -17.361   4.340  0.00  0.00    -0.030 A 
ATOM      9  C   LIG    1       24.531 -16.922   3.740  0.00  0.00    +0.050 A 
ATOM     10  C   LIG    1       24.809 -15.562   3.613  0.00  0.00    +0.117 A 
ATOM     11  C   LIG    1       23.927 -14.601   4.089  0.00  0.00    +0.045 A 
ATOM     12  C   LIG    1       22.750 -15.012   4.705  0.00  0.00    +0.004 A 
ATOM     13  C   LIG    1       22.458 -16.374   4.831  0.00  0.00    +0.005 A 
BRANCH  10  14
ATOM     14  O   LIG    1       25.976 -15.207   3.003  0.00  0.00    -0.507 OA
ATOM     15  H   LIG    1       26.385 -14.488   3.513  0.00  0.00    +0.292 HD
ENDBRANCH  10  14
ENDBRANCH   1   8
BRANCH   1  16
ATOM     16  C   LIG    1       21.602 -19.148   3.937  0.00  0.00    +0.144 C 
ATOM     17  O   LIG    1       20.956 -20.145   4.287  0.00  0.00    -0.296 OA
BRANCH  16  19
ATOM     18  C   LIG    1       19.475 -18.280   2.904  0.00  0.00    +0.012 C 
ATOM     19  C   LIG    1       20.993 -18.163   2.948  0.00  0.00    +0.072 C 
ENDBRANCH  16  19
ENDBRANCH   1  16
TORSDOF 4
ENDMDL
MODEL 7
REMARK VINA RESULT:      -0.3      3.468      6.778
REMARK  Name = *****
REMARK                            x       y       z     vdW  Elec       q    Type
REMARK                         _______ _______ _______ _____ _____    ______ ____
ROOT
ATOM      1  C   LIG    1       24.285 -19.141   4.322  0.00  0.00    +0.056 C 
ATOM      2  C   LIG    1       23.574 -19.816   3.112  0.00  0.00    +0.034 C 
ATOM      3  C   LIG    1       23.251 -21.301   3.344  0.00  0.00    +0.085 C 
ATOM      4  N   LIG    1       22.506 -21.572   4.575  0.00  0.00    -0.305 NA
ATOM      5  C   LIG    1       21.098 -21.196   4.467  0.00  0.00    +0.105 C 
ATOM      6  C   LIG    1       23.174 -20.991   5.737  0.00  0.00    +0.085 C 
ATOM      7  C   LIG    1       23.470 -19.498   5.592  0.00  0.00    +0.034 C 
ENDROOT
BRANCH   1   8
ATOM      8  C   LIG    1       24.356 -17.611   4.077  0.00  0.00    -0.030 A 
ATOM      9  C   LIG    1       25.517 -17.040   3.522  0.00  0.00    +0.050 A 
ATOM     10  C   LIG    1       25.600 -15.668   3.291  0.00  0.00    +0.117 A 
ATOM     11  C   LIG    1       24.550 -14.821   3.618  0.00  0.00    +0.045 A 
ATOM     12  C   LIG    1       23.401 -15.359   4.187  0.00  0.00    +0.004 A 
ATOM     13  C   LIG    1       23.305 -16.735   4.417  0.00  0.00    +0.005 A 
BRANCH  10  14
ATOM     14  O   LIG    1       26.746 -15.186   2.731  0.00  0.00    -0.507 OA
ATOM     15  H   LIG    1       26.681 -15.278   1.767  0.00  0.00    +0.292 HD
ENDBRANCH  10  14
ENDBRANCH   1   8
BRANCH   1  16
ATOM     16  C   LIG    1       25.743 -19.684   4.443  0.00  0.00    +0.144 C 
ATOM     17  O   LIG    1       26.477 -19.799   3.452  0.00  0.00    -0.296 OA
BRANCH  16  19
ATOM     18  C   LIG    1       27.774 -20.005   5.897  0.00  0.00    +0.012 C 
ATOM     19  C   LIG    1       26.256 -20.101   5.815  0.00  0.00    +0.072 C 
ENDBRANCH  16  19
ENDBRANCH   1  16
TORSDOF 4
ENDMDL
MODEL 8
REMARK VINA RESULT:      -0.2      2.997      6.061
REMARK  Name = *****
REMARK                            x       y       z     vdW  Elec       q    Type
REMARK                         _______ _______ _______ _____ _____    ______ ____
ROOT
ATOM      1  C   LIG    1       23.856 -18.831   4.118  0.00  0.00    +0.056 C 
ATOM      2  C   LIG    1       23.548 -19.028   5.632  0.00  0.00    +0.034 C 
ATOM      3  C   LIG    1       23.119 -20.461   5.987  0.00  0.00    +0.085 C 
ATOM      4  N   LIG    1       24.042 -21.500   5.526  0.00  0.00    -0.305 NA
ATOM      5  C   LIG    1       25.252 -21.571   6.341  0.00  0.00    +0.105 C 
ATOM      6  C   LIG    1       24.314 -21.370   4.096  0.00  0.00    +0.085 C 
ATOM      7  C   LIG    1       24.804 -19.981   3.687  0.00  0.00    +0.034 C 
ENDROOT
BRANCH   1   8
ATOM      8  C   LIG    1       24.494 -17.432   3.910  0.00  0.00    -0.030 A 
ATOM      9  C   LIG    1       23.754 -16.271   4.205  0.00  0.00    +0.050 A 
ATOM     10  C   LIG    1       24.310 -15.005   4.028  0.00  0.00    +0.117 A 
ATOM     11  C   LIG    1       25.600 -14.849   3.540  0.00  0.00    +0.045 A 
ATOM     12  C   LIG    1       26.342 -15.981   3.221  0.00  0.00    +0.004 A 
ATOM     13  C   LIG    1       25.796 -17.256   3.401  0.00  0.00    +0.005 A 
BRANCH  10  14
ATOM     14  O   LIG    1       23.543 -13.924   4.354  0.00  0.00    -0.507 OA
ATOM     15  H   LIG    1       24.130 -13.204   4.639  0.00  0.00    +0.292 HD
ENDBRANCH  10  14
ENDBRANCH   1   8
BRANCH   1  16
ATOM     16  C   LIG    1       22.527 -18.888   3.302  0.00  0.00    +0.144 C 
ATOM     17  O   LIG    1       22.516 -19.184   2.099  0.00  0.00    -0.296 OA
BRANCH  16  19
ATOM     18  C   LIG    1       20.094 -18.308   3.013  0.00  0.00    +0.012 C 
ATOM     19  C   LIG    1       21.221 -18.549   4.008  0.00  0.00    +0.072 C 
ENDBRANCH  16  19
ENDBRANCH   1  16
TORSDOF 4
ENDMDL
MODEL 9
REMARK VINA RESULT:      -0.1      3.484      6.734
REMARK  Name = *****
REMARK                            x       y       z     vdW  Elec       q    Type
REMARK                         _______ _______ _______ _____ _____    ______ ____
ROOT
ATOM      1  C   LIG    1       24.526 -19.391   4.510  0.00  0.00    +0.056 C 
ATOM      2  C   LIG    1       23.982 -20.164   3.272  0.00  0.00    +0.034 C 
ATOM      3  C   LIG    1       23.395 -21.541   3.622  0.00  0.00    +0.085 C 
ATOM      4  N   LIG    1       22.382 -21.514   4.679  0.00  0.00    -0.305 NA
ATOM      5  C   LIG    1       21.100 -20.994   4.210  0.00  0.00    +0.105 C 
ATOM      6  C   LIG    1       22.881 -20.836   5.873  0.00  0.00    +0.085 C 
ATOM      7  C   LIG    1       23.424 -19.433   5.601  0.00  0.00    +0.034 C 
ENDROOT
BRANCH   1   8
ATOM      8  C   LIG    1       24.879 -17.941   4.085  0.00  0.00    -0.030 A 
ATOM      9  C   LIG    1       23.932 -16.911   4.247  0.00  0.00    +0.050 A 
ATOM     10  C   LIG    1       24.230 -15.601   3.874  0.00  0.00    +0.117 A 
ATOM     11  C   LIG    1       25.458 -15.275   3.317  0.00  0.00    +0.045 A 
ATOM     12  C   LIG    1       26.401 -16.280   3.127  0.00  0.00    +0.004 A 
ATOM     13  C   LIG    1       26.115 -17.596   3.503  0.00  0.00    +0.005 A 
BRANCH  10  14
ATOM     14  O   LIG    1       23.274 -14.650   4.079  0.00  0.00    -0.507 OA
ATOM     15  H   LIG    1       22.402 -15.050   3.924  0.00  0.00    +0.292 HD
ENDBRANCH  10  14
ENDBRANCH   1   8
BRANCH   1  16
ATOM     16  C   LIG    1       25.828 -20.079   5.026  0.00  0.00    +0.144 C 
ATOM     17  O   LIG    1       26.756 -20.372   4.259  0.00  0.00    -0.296 OA
BRANCH  16  19
ATOM     18  C   LIG    1       27.383 -20.342   6.990  0.00  0.00    +0.012 C 
ATOM     19  C   LIG    1       25.940 -20.412   6.508  0.00  0.00    +0.072 C 
ENDBRANCH  16  19
ENDBRANCH   1  16
TORSDOF 4
ENDMDL
