MODEL 1
REMARK VINA RESULT:      -8.5      0.000      0.000
REMARK  Name = *****
REMARK                            x       y       z     vdW  Elec       q    Type
REMARK                         _______ _______ _______ _____ _____    ______ ____
ROOT
ATOM      1  O   LIG    1       26.259 -20.941   5.843  0.00  0.00    -0.458 OA
ENDROOT
BRANCH   1   3
ATOM      2  C   LIG    1       23.804 -20.560   5.915  0.00  0.00    +0.032 C 
ATOM      3  C   LIG    1       25.161 -20.475   6.657  0.00  0.00    +0.180 C 
ATOM      4  C   LIG    1       25.092 -21.343   7.931  0.00  0.00    +0.048 C 
ATOM      5  C   LIG    1       24.638 -22.802   7.715  0.00  0.00    -0.011 C 
ATOM      6  C   LIG    1       25.776 -23.711   7.247  0.00  0.00    +0.007 C 
ATOM      7  C   LIG    1       23.415 -22.909   6.793  0.00  0.00    +0.004 C 
ATOM      8  C   LIG    1       23.494 -22.024   5.550  0.00  0.00    +0.007 C 
BRANCH   2  10
ATOM      9  C   LIG    1       22.229 -18.940   4.614  0.00  0.00    +0.007 C 
ATOM     10  C   LIG    1       23.601 -19.605   4.703  0.00  0.00    -0.011 C 
ATOM     11  C   LIG    1       23.922 -20.271   3.360  0.00  0.00    +0.007 C 
ENDBRANCH   2  10
ENDBRANCH   1   3
BRANCH   1  12
ATOM     12  C   LIG    1       27.135 -19.989   5.418  0.00  0.00    +0.341 C 
ATOM     13  O   LIG    1       26.904 -19.129   4.572  0.00  0.00    -0.245 OA
BRANCH  12  14
ATOM     14  C   LIG    1       28.401 -20.034   6.204  0.00  0.00    +0.080 A 
ATOM     15  C   LIG    1       29.444 -19.117   5.931  0.00  0.00    +0.039 A 
ATOM     16  C   LIG    1       30.582 -19.129   6.752  0.00  0.00    +0.023 A 
ATOM     17  C   LIG    1       30.743 -20.095   7.747  0.00  0.00    +0.002 A 
ATOM     18  C   LIG    1       29.741 -21.036   7.968  0.00  0.00    +0.001 A 
ATOM     19  C   LIG    1       28.568 -21.000   7.209  0.00  0.00    +0.017 A 
BRANCH  15  20
ATOM     20  N   LIG    1       29.297 -18.040   5.033  0.00  0.00    -0.357 N 
ATOM     21  H   LIG    1       29.623 -18.282   4.090  0.00  0.00    +0.142 HD
ATOM     22  H   LIG    1       29.702 -17.168   5.360  0.00  0.00    +0.142 HD
ENDBRANCH  15  20
ENDBRANCH  12  14
ENDBRANCH   1  12
TORSDOF 5
ENDMDL
MODEL 2
REMARK VINA RESULT:      -8.3      2.272      5.159
REMARK  Name = *****
REMARK                            x       y       z     vdW  Elec       q    Type
REMARK                         _______ _______ _______ _____ _____    ______ ____
ROOT
ATOM      1  O   LIG    1       26.641 -20.148   7.588  0.00  0.00    -0.458 OA
ENDROOT
BRANCH   1   3
ATOM      2  C   LIG    1       27.037 -20.002   5.139  0.00  0.00    +0.032 C 
ATOM      3  C   LIG    1       27.189 -20.830   6.439  0.00  0.00    +0.180 C 
ATOM      4  C   LIG    1       28.689 -21.093   6.695  0.00  0.00    +0.048 C 
ATOM      5  C   LIG    1       29.590 -19.841   6.693  0.00  0.00    -0.011 C 
ATOM      6  C   LIG    1       29.570 -19.097   8.030  0.00  0.00    +0.007 C 
ATOM      7  C   LIG    1       29.291 -18.900   5.519  0.00  0.00    +0.004 C 
ATOM      8  C   LIG    1       27.801 -18.671   5.269  0.00  0.00    +0.007 C 
BRANCH   2  10
ATOM      9  C   LIG    1       24.876 -21.057   4.132  0.00  0.00    +0.007 C 
ATOM     10  C   LIG    1       25.592 -19.792   4.601  0.00  0.00    -0.011 C 
ATOM     11  C   LIG    1       25.518 -18.736   3.492  0.00  0.00    +0.007 C 
ENDBRANCH   2  10
ENDBRANCH   1   3
BRANCH   1  12
ATOM     12  C   LIG    1       26.006 -20.932   8.503  0.00  0.00    +0.341 C 
ATOM     13  O   LIG    1       25.944 -20.717   9.711  0.00  0.00    -0.245 OA
BRANCH  12  14
ATOM     14  C   LIG    1       25.271 -22.046   7.838  0.00  0.00    +0.080 A 
ATOM     15  C   LIG    1       23.910 -21.891   7.482  0.00  0.00    +0.039 A 
ATOM     16  C   LIG    1       23.279 -22.926   6.775  0.00  0.00    +0.023 A 
ATOM     17  C   LIG    1       23.934 -24.132   6.524  0.00  0.00    +0.002 A 
ATOM     18  C   LIG    1       25.253 -24.303   6.936  0.00  0.00    +0.001 A 
ATOM     19  C   LIG    1       25.925 -23.260   7.580  0.00  0.00    +0.017 A 
BRANCH  15  20
ATOM     20  N   LIG    1       23.228 -20.661   7.589  0.00  0.00    -0.357 N 
ATOM     21  H   LIG    1       23.870 -19.884   7.783  0.00  0.00    +0.142 HD
ATOM     22  H   LIG    1       22.445 -20.675   8.235  0.00  0.00    +0.142 HD
ENDBRANCH  15  20
ENDBRANCH  12  14
ENDBRANCH   1  12
TORSDOF 5
ENDMDL
MODEL 3
REMARK VINA RESULT:      -8.3      1.637      3.550
REMARK  Name = *****
REMARK                            x       y       z     vdW  Elec       q    Type
REMARK                         _______ _______ _______ _____ _____    ______ ____
ROOT
ATOM      1  O   LIG    1       25.557 -20.405   5.719  0.00  0.00    -0.458 OA
ENDROOT
BRANCH   1   3
ATOM      2  C   LIG    1       23.194 -21.119   5.433  0.00  0.00    +0.032 C 
ATOM      3  C   LIG    1       24.647 -21.172   4.901  0.00  0.00    +0.180 C 
ATOM      4  C   LIG    1       24.678 -20.602   3.467  0.00  0.00    +0.048 C 
ATOM      5  C   LIG    1       24.047 -19.205   3.296  0.00  0.00    -0.011 C 
ATOM      6  C   LIG    1       25.001 -18.074   3.686  0.00  0.00    +0.007 C 
ATOM      7  C   LIG    1       22.696 -19.076   4.013  0.00  0.00    +0.004 C 
ATOM      8  C   LIG    1       22.681 -19.666   5.422  0.00  0.00    +0.007 C 
BRANCH   2  10
ATOM      9  C   LIG    1       23.525 -21.149   8.019  0.00  0.00    +0.007 C 
ATOM     10  C   LIG    1       22.914 -21.823   6.793  0.00  0.00    -0.011 C 
ATOM     11  C   LIG    1       23.309 -23.304   6.787  0.00  0.00    +0.007 C 
ENDBRANCH   2  10
ENDBRANCH   1   3
BRANCH   1  12
ATOM     12  C   LIG    1       26.572 -21.103   6.301  0.00  0.00    +0.341 C 
ATOM     13  O   LIG    1       26.523 -22.279   6.654  0.00  0.00    -0.245 OA
BRANCH  12  14
ATOM     14  C   LIG    1       27.821 -20.291   6.353  0.00  0.00    +0.080 A 
ATOM     15  C   LIG    1       28.771 -20.508   7.379  0.00  0.00    +0.039 A 
ATOM     16  C   LIG    1       29.977 -19.790   7.341  0.00  0.00    +0.023 A 
ATOM     17  C   LIG    1       30.196 -18.799   6.384  0.00  0.00    +0.002 A 
ATOM     18  C   LIG    1       29.229 -18.545   5.415  0.00  0.00    +0.001 A 
ATOM     19  C   LIG    1       28.050 -19.295   5.391  0.00  0.00    +0.017 A 
BRANCH  15  20
ATOM     20  N   LIG    1       28.674 -21.574   8.296  0.00  0.00    -0.357 N 
ATOM     21  H   LIG    1       29.505 -22.175   8.274  0.00  0.00    +0.142 HD
ATOM     22  H   LIG    1       27.816 -22.113   8.219  0.00  0.00    +0.142 HD
ENDBRANCH  15  20
ENDBRANCH  12  14
ENDBRANCH   1  12
TORSDOF 5
ENDMDL
MODEL 4
REMARK VINA RESULT:      -8.3      1.089      3.124
REMARK  Name = *****
REMARK                            x       y       z     vdW  Elec       q    Type
REMARK                         _______ _______ _______ _____ _____    ______ ____
ROOT
ATOM      1  O   LIG    1       25.590 -20.576   5.687  0.00  0.00    -0.458 OA
ENDROOT
BRANCH   1   3
ATOM      2  C   LIG    1       24.619 -22.860   5.807  0.00  0.00    +0.032 C 
ATOM      3  C   LIG    1       25.088 -21.686   4.912  0.00  0.00    +0.180 C 
ATOM      4  C   LIG    1       23.896 -21.194   4.064  0.00  0.00    +0.048 C 
ATOM      5  C   LIG    1       22.619 -20.847   4.856  0.00  0.00    -0.011 C 
ATOM      6  C   LIG    1       22.665 -19.445   5.469  0.00  0.00    +0.007 C 
ATOM      7  C   LIG    1       22.268 -21.910   5.906  0.00  0.00    +0.004 C 
ATOM      8  C   LIG    1       23.466 -22.400   6.719  0.00  0.00    +0.007 C 
BRANCH   2  10
ATOM      9  C   LIG    1       25.570 -25.144   6.630  0.00  0.00    +0.007 C 
ATOM     10  C   LIG    1       25.718 -23.624   6.602  0.00  0.00    -0.011 C 
ATOM     11  C   LIG    1       25.878 -23.112   8.037  0.00  0.00    +0.007 C 
ENDBRANCH   2  10
ENDBRANCH   1   3
BRANCH   1  12
ATOM     12  C   LIG    1       26.551 -19.816   5.091  0.00  0.00    +0.341 C 
ATOM     13  O   LIG    1       26.387 -19.091   4.113  0.00  0.00    -0.245 OA
BRANCH  12  14
ATOM     14  C   LIG    1       27.831 -19.873   5.853  0.00  0.00    +0.080 A 
ATOM     15  C   LIG    1       28.872 -18.959   5.568  0.00  0.00    +0.039 A 
ATOM     16  C   LIG    1       30.025 -18.983   6.369  0.00  0.00    +0.023 A 
ATOM     17  C   LIG    1       30.200 -19.958   7.351  0.00  0.00    +0.002 A 
ATOM     18  C   LIG    1       29.198 -20.897   7.583  0.00  0.00    +0.001 A 
ATOM     19  C   LIG    1       28.012 -20.849   6.846  0.00  0.00    +0.017 A 
BRANCH  15  20
ATOM     20  N   LIG    1       28.714 -17.873   4.682  0.00  0.00    -0.357 N 
ATOM     21  H   LIG    1       29.048 -16.994   5.093  0.00  0.00    +0.142 HD
ATOM     22  H   LIG    1       27.778 -17.781   4.301  0.00  0.00    +0.142 HD
ENDBRANCH  15  20
ENDBRANCH  12  14
ENDBRANCH   1  12
TORSDOF 5
ENDMDL
MODEL 5
REMARK VINA RESULT:      -8.0      2.837      5.708
REMARK  Name = *****
REMARK                            x       y       z     vdW  Elec       q    Type
REMARK                         _______ _______ _______ _____ _____    ______ ____
ROOT
ATOM      1  O   LIG    1       25.046 -22.351   6.368  0.00  0.00    -0.458 OA
ENDROOT
BRANCH   1   3
ATOM      2  C   LIG    1       26.008 -20.080   6.065  0.00  0.00    +0.032 C 
ATOM      3  C   LIG    1       25.076 -21.004   6.888  0.00  0.00    +0.180 C 
ATOM      4  C   LIG    1       23.643 -20.433   6.852  0.00  0.00    +0.048 C 
ATOM      5  C   LIG    1       23.080 -20.143   5.445  0.00  0.00    -0.011 C 
ATOM      6  C   LIG    1       22.519 -21.394   4.765  0.00  0.00    +0.007 C 
ATOM      7  C   LIG    1       24.088 -19.415   4.545  0.00  0.00    +0.004 C 
ATOM      8  C   LIG    1       25.505 -19.982   4.613  0.00  0.00    +0.007 C 
BRANCH   2  10
ATOM      9  C   LIG    1       28.098 -20.603   7.534  0.00  0.00    +0.007 C 
ATOM     10  C   LIG    1       27.534 -20.376   6.133  0.00  0.00    -0.011 C 
ATOM     11  C   LIG    1       28.378 -19.311   5.422  0.00  0.00    +0.007 C 
ENDBRANCH   2  10
ENDBRANCH   1   3
BRANCH   1  12
ATOM     12  C   LIG    1       25.592 -23.312   7.164  0.00  0.00    +0.341 C 
ATOM     13  O   LIG    1       26.098 -23.126   8.268  0.00  0.00    -0.245 OA
BRANCH  12  14
ATOM     14  C   LIG    1       25.392 -24.670   6.582  0.00  0.00    +0.080 A 
ATOM     15  C   LIG    1       24.086 -25.153   6.330  0.00  0.00    +0.039 A 
ATOM     16  C   LIG    1       23.941 -26.398   5.697  0.00  0.00    +0.023 A 
ATOM     17  C   LIG    1       25.049 -27.200   5.421  0.00  0.00    +0.002 A 
ATOM     18  C   LIG    1       26.328 -26.746   5.731  0.00  0.00    +0.001 A 
ATOM     19  C   LIG    1       26.502 -25.481   6.299  0.00  0.00    +0.017 A 
BRANCH  15  20
ATOM     20  N   LIG    1       22.935 -24.350   6.465  0.00  0.00    -0.357 N 
ATOM     21  H   LIG    1       23.012 -23.480   5.927  0.00  0.00    +0.142 HD
ATOM     22  H   LIG    1       22.660 -24.177   7.426  0.00  0.00    +0.142 HD
ENDBRANCH  15  20
ENDBRANCH  12  14
ENDBRANCH   1  12
TORSDOF 5
ENDMDL
MODEL 6
REMARK VINA RESULT:      -7.9      1.316      3.113
REMARK  Name = *****
REMARK                            x       y       z     vdW  Elec       q    Type
REMARK                         _______ _______ _______ _____ _____    ______ ____
ROOT
ATOM      1  O   LIG    1       25.896 -21.618   6.048  0.00  0.00    -0.458 OA
ENDROOT
BRANCH   1   3
ATOM      2  C   LIG    1       24.525 -23.630   5.552  0.00  0.00    +0.032 C 
ATOM      3  C   LIG    1       24.990 -22.224   5.100  0.00  0.00    +0.180 C 
ATOM      4  C   LIG    1       23.755 -21.310   4.950  0.00  0.00    +0.048 C 
ATOM      5  C   LIG    1       22.824 -21.248   6.178  0.00  0.00    -0.011 C 
ATOM      6  C   LIG    1       23.321 -20.274   7.248  0.00  0.00    +0.007 C 
ATOM      7  C   LIG    1       22.533 -22.635   6.769  0.00  0.00    +0.004 C 
ATOM      8  C   LIG    1       23.766 -23.531   6.888  0.00  0.00    +0.007 C 
BRANCH   2  10
ATOM      9  C   LIG    1       25.320 -25.953   4.673  0.00  0.00    +0.007 C 
ATOM     10  C   LIG    1       25.600 -24.755   5.578  0.00  0.00    -0.011 C 
ATOM     11  C   LIG    1       25.900 -25.259   6.994  0.00  0.00    +0.007 C 
ENDBRANCH   2  10
ENDBRANCH   1   3
BRANCH   1  12
ATOM     12  C   LIG    1       26.600 -20.542   5.599  0.00  0.00    +0.341 C 
ATOM     13  O   LIG    1       26.194 -19.704   4.797  0.00  0.00    -0.245 OA
BRANCH  12  14
ATOM     14  C   LIG    1       27.910 -20.425   6.301  0.00  0.00    +0.080 A 
ATOM     15  C   LIG    1       28.853 -19.452   5.894  0.00  0.00    +0.039 A 
ATOM     16  C   LIG    1       30.036 -19.311   6.637  0.00  0.00    +0.023 A 
ATOM     17  C   LIG    1       30.337 -20.181   7.685  0.00  0.00    +0.002 A 
ATOM     18  C   LIG    1       29.433 -21.180   8.038  0.00  0.00    +0.001 A 
ATOM     19  C   LIG    1       28.218 -21.296   7.358  0.00  0.00    +0.017 A 
BRANCH  15  20
ATOM     20  N   LIG    1       28.563 -18.462   4.933  0.00  0.00    -0.357 N 
ATOM     21  H   LIG    1       29.013 -17.568   5.158  0.00  0.00    +0.142 HD
ATOM     22  H   LIG    1       27.573 -18.348   4.740  0.00  0.00    +0.142 HD
ENDBRANCH  15  20
ENDBRANCH  12  14
ENDBRANCH   1  12
TORSDOF 5
ENDMDL
MODEL 7
REMARK VINA RESULT:      -7.7      1.619      2.247
REMARK  Name = *****
REMARK                            x       y       z     vdW  Elec       q    Type
REMARK                         _______ _______ _______ _____ _____    ______ ____
ROOT
ATOM      1  O   LIG    1       25.343 -21.385   5.957  0.00  0.00    -0.458 OA
ENDROOT
BRANCH   1   3
ATOM      2  C   LIG    1       23.115 -20.307   5.744  0.00  0.00    +0.032 C 
ATOM      3  C   LIG    1       24.255 -20.773   6.682  0.00  0.00    +0.180 C 
ATOM      4  C   LIG    1       23.693 -21.802   7.685  0.00  0.00    +0.048 C 
ATOM      5  C   LIG    1       22.934 -22.990   7.057  0.00  0.00    -0.011 C 
ATOM      6  C   LIG    1       23.871 -24.095   6.563  0.00  0.00    +0.007 C 
ATOM      7  C   LIG    1       21.952 -22.552   5.963  0.00  0.00    +0.004 C 
ATOM      8  C   LIG    1       22.522 -21.515   4.995  0.00  0.00    +0.007 C 
BRANCH   2  10
ATOM      9  C   LIG    1       22.248 -18.220   4.443  0.00  0.00    +0.007 C 
ATOM     10  C   LIG    1       23.431 -19.125   4.781  0.00  0.00    -0.011 C 
ATOM     11  C   LIG    1       24.098 -19.582   3.479  0.00  0.00    +0.007 C 
ENDBRANCH   2  10
ENDBRANCH   1   3
BRANCH   1  12
ATOM     12  C   LIG    1       26.481 -21.617   6.668  0.00  0.00    +0.341 C 
ATOM     13  O   LIG    1       26.704 -22.606   7.363  0.00  0.00    -0.245 OA
BRANCH  12  14
ATOM     14  C   LIG    1       27.503 -20.564   6.407  0.00  0.00    +0.080 A 
ATOM     15  C   LIG    1       28.649 -20.460   7.231  0.00  0.00    +0.039 A 
ATOM     16  C   LIG    1       29.633 -19.517   6.897  0.00  0.00    +0.023 A 
ATOM     17  C   LIG    1       29.444 -18.618   5.847  0.00  0.00    +0.002 A 
ATOM     18  C   LIG    1       28.284 -18.682   5.080  0.00  0.00    +0.001 A 
ATOM     19  C   LIG    1       27.321 -19.658   5.349  0.00  0.00    +0.017 A 
BRANCH  15  20
ATOM     20  N   LIG    1       28.964 -21.411   8.223  0.00  0.00    -0.357 N 
ATOM     21  H   LIG    1       28.362 -22.240   8.163  0.00  0.00    +0.142 HD
ATOM     22  H   LIG    1       28.994 -21.034   9.165  0.00  0.00    +0.142 HD
ENDBRANCH  15  20
ENDBRANCH  12  14
ENDBRANCH   1  12
TORSDOF 5
ENDMDL
MODEL 8
REMARK VINA RESULT:      -7.7      2.594      5.695
REMARK  Name = *****
REMARK                            x       y       z     vdW  Elec       q    Type
REMARK                         _______ _______ _______ _____ _____    ______ ____
ROOT
ATOM      1  O   LIG    1       24.371 -22.442   5.751  0.00  0.00    -0.458 OA
ENDROOT
BRANCH   1   3
ATOM      2  C   LIG    1       25.462 -20.317   6.436  0.00  0.00    +0.032 C 
ATOM      3  C   LIG    1       24.143 -21.110   6.260  0.00  0.00    +0.180 C 
ATOM      4  C   LIG    1       23.231 -20.356   5.269  0.00  0.00    +0.048 C 
ATOM      5  C   LIG    1       23.879 -19.997   3.916  0.00  0.00    -0.011 C 
ATOM      6  C   LIG    1       23.864 -21.163   2.925  0.00  0.00    +0.007 C 
ATOM      7  C   LIG    1       25.287 -19.408   4.073  0.00  0.00    +0.004 C 
ATOM      8  C   LIG    1       26.166 -20.156   5.075  0.00  0.00    +0.007 C 
BRANCH   2  10
ATOM      9  C   LIG    1       25.953 -20.632   8.977  0.00  0.00    +0.007 C 
ATOM     10  C   LIG    1       26.440 -20.810   7.541  0.00  0.00    -0.011 C 
ATOM     11  C   LIG    1       27.841 -20.200   7.410  0.00  0.00    +0.007 C 
ENDBRANCH   2  10
ENDBRANCH   1   3
BRANCH   1  12
ATOM     12  C   LIG    1       23.749 -23.453   6.419  0.00  0.00    +0.341 C 
ATOM     13  O   LIG    1       22.688 -23.360   7.032  0.00  0.00    -0.245 OA
BRANCH  12  14
ATOM     14  C   LIG    1       24.459 -24.748   6.217  0.00  0.00    +0.080 A 
ATOM     15  C   LIG    1       25.868 -24.814   6.326  0.00  0.00    +0.039 A 
ATOM     16  C   LIG    1       26.492 -26.067   6.220  0.00  0.00    +0.023 A 
ATOM     17  C   LIG    1       25.761 -27.212   5.903  0.00  0.00    +0.002 A 
ATOM     18  C   LIG    1       24.382 -27.129   5.733  0.00  0.00    +0.001 A 
ATOM     19  C   LIG    1       23.729 -25.905   5.900  0.00  0.00    +0.017 A 
BRANCH  15  20
ATOM     20  N   LIG    1       26.652 -23.729   6.768  0.00  0.00    -0.357 N 
ATOM     21  H   LIG    1       26.742 -23.004   6.048  0.00  0.00    +0.142 HD
ATOM     22  H   LIG    1       27.553 -23.996   7.151  0.00  0.00    +0.142 HD
ENDBRANCH  15  20
ENDBRANCH  12  14
ENDBRANCH   1  12
TORSDOF 5
ENDMDL
MODEL 9
REMARK VINA RESULT:      -7.5      1.661      2.314
REMARK  Name = *****
REMARK                            x       y       z     vdW  Elec       q    Type
REMARK                         _______ _______ _______ _____ _____    ______ ____
ROOT
ATOM      1  O   LIG    1       26.565 -21.868   6.663  0.00  0.00    -0.458 OA
ENDROOT
BRANCH   1   3
ATOM      2  C   LIG    1       24.233 -21.637   5.835  0.00  0.00    +0.032 C 
ATOM      3  C   LIG    1       25.172 -21.875   7.043  0.00  0.00    +0.180 C 
ATOM      4  C   LIG    1       24.842 -23.245   7.673  0.00  0.00    +0.048 C 
ATOM      5  C   LIG    1       24.838 -24.439   6.696  0.00  0.00    -0.011 C 
ATOM      6  C   LIG    1       26.242 -24.985   6.424  0.00  0.00    +0.007 C 
ATOM      7  C   LIG    1       24.090 -24.131   5.391  0.00  0.00    +0.004 C 
ATOM      8  C   LIG    1       24.414 -22.761   4.797  0.00  0.00    +0.007 C 
BRANCH   2  10
ATOM      9  C   LIG    1       22.918 -19.554   4.981  0.00  0.00    +0.007 C 
ATOM     10  C   LIG    1       24.274 -20.227   5.176  0.00  0.00    -0.011 C 
ATOM     11  C   LIG    1       25.033 -20.215   3.844  0.00  0.00    +0.007 C 
ENDBRANCH   2  10
ENDBRANCH   1   3
BRANCH   1  12
ATOM     12  C   LIG    1       27.438 -21.397   7.596  0.00  0.00    +0.341 C 
ATOM     13  O   LIG    1       27.513 -21.775   8.763  0.00  0.00    -0.245 OA
BRANCH  12  14
ATOM     14  C   LIG    1       28.398 -20.429   6.994  0.00  0.00    +0.080 A 
ATOM     15  C   LIG    1       29.737 -20.375   7.450  0.00  0.00    +0.039 A 
ATOM     16  C   LIG    1       30.635 -19.517   6.796  0.00  0.00    +0.023 A 
ATOM     17  C   LIG    1       30.202 -18.648   5.794  0.00  0.00    +0.002 A 
ATOM     18  C   LIG    1       28.869 -18.660   5.394  0.00  0.00    +0.001 A 
ATOM     19  C   LIG    1       27.971 -19.555   5.982  0.00  0.00    +0.017 A 
BRANCH  15  20
ATOM     20  N   LIG    1       30.271 -21.307   8.364  0.00  0.00    -0.357 N 
ATOM     21  H   LIG    1       29.534 -21.807   8.873  0.00  0.00    +0.142 HD
ATOM     22  H   LIG    1       30.968 -20.920   8.992  0.00  0.00    +0.142 HD
ENDBRANCH  15  20
ENDBRANCH  12  14
ENDBRANCH   1  12
TORSDOF 5
ENDMDL
