MODEL 1
REMARK VINA RESULT:      -5.1      0.000      0.000
REMARK  Name = *****
REMARK                            x       y       z     vdW  Elec       q    Type
REMARK                         _______ _______ _______ _____ _____    ______ ____
ROOT
ATOM      1  C   LIG    1       21.968 -19.207   4.631  0.00  0.00    +0.150 C 
ATOM      2  N   LIG    1       23.241 -18.720   4.153  0.00  0.00    -0.331 N 
ATOM      3  C   LIG    1       23.579 -17.384   4.094  0.00  0.00    +0.069 A 
ATOM      4  C   LIG    1       24.881 -17.374   3.619  0.00  0.00    +0.091 A 
ATOM      5  C   LIG    1       25.550 -16.144   3.456  0.00  0.00    +0.053 A 
ATOM      6  C   LIG    1       24.924 -14.919   3.761  0.00  0.00    +0.032 A 
ATOM      7  C   LIG    1       23.598 -14.996   4.234  0.00  0.00    +0.025 A 
ATOM      8  N   LIG    1       25.326 -18.654   3.396  0.00  0.00    -0.232 NA
ATOM      9  C   LIG    1       22.900 -16.208   4.413  0.00  0.00    +0.030 A 
ATOM     10  C   LIG    1       24.331 -19.455   3.733  0.00  0.00    +0.111 A 
ENDROOT
BRANCH   6  11
ATOM     11  N   LIG    1       25.578 -13.696   3.604  0.00  0.00    -0.328 N 
BRANCH  11  12
ATOM     12  C   LIG    1       25.670 -13.041   2.280  0.00  0.00    +0.121 C 
BRANCH  12  13
ATOM     13  C   LIG    1       24.399 -12.254   1.944  0.00  0.00    +0.127 C 
ATOM     14 CL   LIG    1       23.712 -11.501   3.404  0.00  0.00    -0.124 Cl
ENDBRANCH  12  13
ENDBRANCH  11  12
BRANCH  11  15
ATOM     15  C   LIG    1       26.160 -12.983   4.764  0.00  0.00    +0.121 C 
BRANCH  15  16
ATOM     16  C   LIG    1       27.560 -13.505   5.104  0.00  0.00    +0.127 C 
ATOM     17 CL   LIG    1       28.770 -12.858   3.968  0.00  0.00    -0.124 Cl
ENDBRANCH  15  16
ENDBRANCH  11  15
ENDBRANCH   6  11
BRANCH  10  18
ATOM     18  C   LIG    1       24.399 -20.947   3.687  0.00  0.00    +0.075 C 
BRANCH  18  19
ATOM     19  C   LIG    1       24.771 -21.569   5.040  0.00  0.00    +0.019 C 
BRANCH  19  20
ATOM     20  C   LIG    1       25.422 -20.621   6.054  0.00  0.00    +0.121 C 
BRANCH  20  21
ATOM     21  C   LIG    1       26.935 -20.697   6.082  0.00  0.00    +0.305 C 
ATOM     22  O   LIG    1       27.604 -21.229   6.943  0.00  0.00    -0.251 OA
BRANCH  21  23
ATOM     23  O   LIG    1       27.511 -20.046   5.043  0.00  0.00    -0.481 OA
ATOM     24  H   LIG    1       28.435 -19.778   5.200  0.00  0.00    +0.295 HD
ENDBRANCH  21  23
ENDBRANCH  20  21
ENDBRANCH  19  20
ENDBRANCH  18  19
ENDBRANCH  10  18
TORSDOF 10
ENDMDL
MODEL 2
REMARK VINA RESULT:      -5.0      0.130      2.189
REMARK  Name = *****
REMARK                            x       y       z     vdW  Elec       q    Type
REMARK                         _______ _______ _______ _____ _____    ______ ____
ROOT
ATOM      1  C   LIG    1       22.016 -19.235   4.653  0.00  0.00    +0.150 C 
ATOM      2  N   LIG    1       23.276 -18.722   4.168  0.00  0.00    -0.331 N 
ATOM      3  C   LIG    1       23.582 -17.378   4.098  0.00  0.00    +0.069 A 
ATOM      4  C   LIG    1       24.881 -17.342   3.619  0.00  0.00    +0.091 A 
ATOM      5  C   LIG    1       25.521 -16.097   3.444  0.00  0.00    +0.053 A 
ATOM      6  C   LIG    1       24.866 -14.885   3.742  0.00  0.00    +0.032 A 
ATOM      7  C   LIG    1       23.544 -14.990   4.220  0.00  0.00    +0.025 A 
ATOM      8  N   LIG    1       25.357 -18.612   3.405  0.00  0.00    -0.232 NA
ATOM      9  C   LIG    1       22.876 -16.217   4.410  0.00  0.00    +0.030 A 
ATOM     10  C   LIG    1       24.382 -19.434   3.750  0.00  0.00    +0.111 A 
ENDROOT
BRANCH   6  11
ATOM     11  N   LIG    1       25.491 -13.648   3.573  0.00  0.00    -0.328 N 
BRANCH  11  12
ATOM     12  C   LIG    1       26.090 -12.931   4.720  0.00  0.00    +0.121 C 
BRANCH  12  13
ATOM     13  C   LIG    1       27.462 -13.501   5.095  0.00  0.00    +0.127 C 
ATOM     14 CL   LIG    1       28.642 -13.234   3.788  0.00  0.00    -0.124 Cl
ENDBRANCH  12  13
ENDBRANCH  11  12
BRANCH  11  15
ATOM     15  C   LIG    1       25.623 -13.032   2.233  0.00  0.00    +0.121 C 
BRANCH  15  16
ATOM     16  C   LIG    1       24.532 -11.985   1.983  0.00  0.00    +0.127 C 
ATOM     17 CL   LIG    1       23.679 -11.584   3.495  0.00  0.00    -0.124 Cl
ENDBRANCH  15  16
ENDBRANCH  11  15
ENDBRANCH   6  11
BRANCH  10  18
ATOM     18  C   LIG    1       24.485 -20.925   3.716  0.00  0.00    +0.075 C 
BRANCH  18  19
ATOM     19  C   LIG    1       24.786 -21.534   5.091  0.00  0.00    +0.019 C 
BRANCH  19  20
ATOM     20  C   LIG    1       25.434 -20.590   6.111  0.00  0.00    +0.121 C 
BRANCH  20  21
ATOM     21  C   LIG    1       26.949 -20.652   6.129  0.00  0.00    +0.305 C 
ATOM     22  O   LIG    1       27.628 -21.199   6.973  0.00  0.00    -0.251 OA
BRANCH  21  23
ATOM     23  O   LIG    1       27.512 -19.969   5.104  0.00  0.00    -0.481 OA
ATOM     24  H   LIG    1       27.076 -19.123   4.897  0.00  0.00    +0.295 HD
ENDBRANCH  21  23
ENDBRANCH  20  21
ENDBRANCH  19  20
ENDBRANCH  18  19
ENDBRANCH  10  18
TORSDOF 10
ENDMDL
MODEL 3
REMARK VINA RESULT:      -3.6      3.707      6.807
REMARK  Name = *****
REMARK                            x       y       z     vdW  Elec       q    Type
REMARK                         _______ _______ _______ _____ _____    ______ ____
ROOT
ATOM      1  C   LIG    1       23.849 -13.269   4.015  0.00  0.00    +0.150 C 
ATOM      2  N   LIG    1       24.577 -14.475   3.700  0.00  0.00    -0.331 N 
ATOM      3  C   LIG    1       24.092 -15.747   3.930  0.00  0.00    +0.069 A 
ATOM      4  C   LIG    1       25.082 -16.589   3.451  0.00  0.00    +0.091 A 
ATOM      5  C   LIG    1       24.895 -17.985   3.516  0.00  0.00    +0.053 A 
ATOM      6  C   LIG    1       23.723 -18.547   4.061  0.00  0.00    +0.032 A 
ATOM      7  C   LIG    1       22.757 -17.636   4.536  0.00  0.00    +0.025 A 
ATOM      8  N   LIG    1       26.134 -15.865   2.945  0.00  0.00    -0.232 NA
ATOM      9  C   LIG    1       22.909 -16.236   4.484  0.00  0.00    +0.030 A 
ATOM     10  C   LIG    1       25.810 -14.593   3.092  0.00  0.00    +0.111 A 
ENDROOT
BRANCH   6  11
ATOM     11  N   LIG    1       23.528 -19.927   4.128  0.00  0.00    -0.328 N 
BRANCH  11  12
ATOM     12  C   LIG    1       22.216 -20.498   4.503  0.00  0.00    +0.121 C 
BRANCH  12  13
ATOM     13  C   LIG    1       22.303 -21.338   5.781  0.00  0.00    +0.127 C 
ATOM     14 CL   LIG    1       23.175 -20.459   7.062  0.00  0.00    -0.124 Cl
ENDBRANCH  12  13
ENDBRANCH  11  12
BRANCH  11  15
ATOM     15  C   LIG    1       24.613 -20.873   3.777  0.00  0.00    +0.121 C 
BRANCH  15  16
ATOM     16  C   LIG    1       25.231 -21.511   5.026  0.00  0.00    +0.127 C 
ATOM     17 CL   LIG    1       26.520 -20.479   5.694  0.00  0.00    -0.124 Cl
ENDBRANCH  15  16
ENDBRANCH  11  15
ENDBRANCH   6  11
BRANCH  10  18
ATOM     18  C   LIG    1       26.657 -13.450   2.633  0.00  0.00    +0.075 C 
BRANCH  18  19
ATOM     19  C   LIG    1       28.145 -13.641   2.959  0.00  0.00    +0.019 C 
BRANCH  19  20
ATOM     20  C   LIG    1       28.784 -12.549   3.824  0.00  0.00    +0.121 C 
BRANCH  20  21
ATOM     21  C   LIG    1       28.341 -12.577   5.274  0.00  0.00    +0.305 C 
ATOM     22  O   LIG    1       27.378 -13.172   5.711  0.00  0.00    -0.251 OA
BRANCH  21  23
ATOM     23  O   LIG    1       29.113 -11.803   6.072  0.00  0.00    -0.481 OA
ATOM     24  H   LIG    1       28.733 -10.929   6.275  0.00  0.00    +0.295 HD
ENDBRANCH  21  23
ENDBRANCH  20  21
ENDBRANCH  19  20
ENDBRANCH  18  19
ENDBRANCH  10  18
TORSDOF 10
ENDMDL
MODEL 4
REMARK VINA RESULT:      -3.4      3.697      7.385
REMARK  Name = *****
REMARK                            x       y       z     vdW  Elec       q    Type
REMARK                         _______ _______ _______ _____ _____    ______ ____
ROOT
ATOM      1  C   LIG    1       28.541 -13.633   3.774  0.00  0.00    +0.150 C 
ATOM      2  N   LIG    1       27.384 -14.401   3.379  0.00  0.00    -0.331 N 
ATOM      3  C   LIG    1       27.206 -15.735   3.686  0.00  0.00    +0.069 A 
ATOM      4  C   LIG    1       25.966 -16.052   3.156  0.00  0.00    +0.091 A 
ATOM      5  C   LIG    1       25.460 -17.359   3.312  0.00  0.00    +0.053 A 
ATOM      6  C   LIG    1       26.189 -18.355   3.992  0.00  0.00    +0.032 A 
ATOM      7  C   LIG    1       27.445 -17.970   4.503  0.00  0.00    +0.025 A 
ATOM      8  N   LIG    1       25.402 -14.957   2.549  0.00  0.00    -0.232 NA
ATOM      9  C   LIG    1       27.981 -16.673   4.369  0.00  0.00    +0.030 A 
ATOM     10  C   LIG    1       26.263 -13.967   2.701  0.00  0.00    +0.111 A 
ENDROOT
BRANCH   6  11
ATOM     11  N   LIG    1       25.696 -19.650   4.153  0.00  0.00    -0.328 N 
BRANCH  11  12
ATOM     12  C   LIG    1       26.466 -20.678   4.888  0.00  0.00    +0.121 C 
BRANCH  12  13
ATOM     13  C   LIG    1       26.428 -20.443   6.402  0.00  0.00    +0.127 C 
ATOM     14 CL   LIG    1       28.074 -20.279   7.062  0.00  0.00    -0.124 Cl
ENDBRANCH  12  13
ENDBRANCH  11  12
BRANCH  11  15
ATOM     15  C   LIG    1       24.360 -20.032   3.639  0.00  0.00    +0.121 C 
BRANCH  15  16
ATOM     16  C   LIG    1       23.308 -20.045   4.753  0.00  0.00    +0.127 C 
ATOM     17 CL   LIG    1       22.306 -18.573   4.697  0.00  0.00    -0.124 Cl
ENDBRANCH  15  16
ENDBRANCH  11  15
ENDBRANCH   6  11
BRANCH  10  18
ATOM     18  C   LIG    1       26.032 -12.569   2.225  0.00  0.00    +0.075 C 
BRANCH  18  19
ATOM     19  C   LIG    1       24.546 -12.253   2.002  0.00  0.00    +0.019 C 
BRANCH  19  20
ATOM     20  C   LIG    1       23.862 -11.447   3.113  0.00  0.00    +0.121 C 
BRANCH  20  21
ATOM     21  C   LIG    1       23.881 -12.128   4.467  0.00  0.00    +0.305 C 
ATOM     22  O   LIG    1       24.163 -11.601   5.523  0.00  0.00    -0.251 OA
BRANCH  21  23
ATOM     23  O   LIG    1       23.596 -13.450   4.392  0.00  0.00    -0.481 OA
ATOM     24  H   LIG    1       23.448 -13.878   5.254  0.00  0.00    +0.295 HD
ENDBRANCH  21  23
ENDBRANCH  20  21
ENDBRANCH  19  20
ENDBRANCH  18  19
ENDBRANCH  10  18
TORSDOF 10
ENDMDL
MODEL 5
REMARK VINA RESULT:      -3.4      3.683      6.918
REMARK  Name = *****
REMARK                            x       y       z     vdW  Elec       q    Type
REMARK                         _______ _______ _______ _____ _____    ______ ____
ROOT
ATOM      1  C   LIG    1       23.511 -13.669   3.956  0.00  0.00    +0.150 C 
ATOM      2  N   LIG    1       24.351 -14.823   3.736  0.00  0.00    -0.331 N 
ATOM      3  C   LIG    1       23.947 -16.123   3.967  0.00  0.00    +0.069 A 
ATOM      4  C   LIG    1       25.033 -16.897   3.593  0.00  0.00    +0.091 A 
ATOM      5  C   LIG    1       24.947 -18.301   3.686  0.00  0.00    +0.053 A 
ATOM      6  C   LIG    1       23.781 -18.939   4.155  0.00  0.00    +0.032 A 
ATOM      7  C   LIG    1       22.714 -18.095   4.524  0.00  0.00    +0.025 A 
ATOM      8  N   LIG    1       26.064 -16.106   3.149  0.00  0.00    -0.232 NA
ATOM      9  C   LIG    1       22.763 -16.688   4.442  0.00  0.00    +0.030 A 
ATOM     10  C   LIG    1       25.635 -14.860   3.230  0.00  0.00    +0.111 A 
ENDROOT
BRANCH   6  11
ATOM     11  N   LIG    1       23.686 -20.328   4.249  0.00  0.00    -0.328 N 
BRANCH  11  12
ATOM     12  C   LIG    1       24.889 -21.185   4.168  0.00  0.00    +0.121 C 
BRANCH  12  13
ATOM     13  C   LIG    1       25.641 -21.240   5.501  0.00  0.00    +0.127 C 
ATOM     14 CL   LIG    1       27.021 -20.115   5.501  0.00  0.00    -0.124 Cl
ENDBRANCH  12  13
ENDBRANCH  11  12
BRANCH  11  15
ATOM     15  C   LIG    1       22.384 -20.993   4.486  0.00  0.00    +0.121 C 
BRANCH  15  16
ATOM     16  C   LIG    1       22.286 -21.553   5.909  0.00  0.00    +0.127 C 
ATOM     17 CL   LIG    1       23.159 -20.513   7.062  0.00  0.00    -0.124 Cl
ENDBRANCH  15  16
ENDBRANCH  11  15
ENDBRANCH   6  11
BRANCH  10  18
ATOM     18  C   LIG    1       26.427 -13.666   2.804  0.00  0.00    +0.075 C 
BRANCH  18  19
ATOM     19  C   LIG    1       27.942 -13.889   2.904  0.00  0.00    +0.019 C 
BRANCH  19  20
ATOM     20  C   LIG    1       28.725 -12.818   3.672  0.00  0.00    +0.121 C 
BRANCH  20  21
ATOM     21  C   LIG    1       28.345 -12.712   5.136  0.00  0.00    +0.305 C 
ATOM     22  O   LIG    1       27.416 -13.280   5.672  0.00  0.00    -0.251 OA
BRANCH  21  23
ATOM     23  O   LIG    1       29.133 -11.849   5.820  0.00  0.00    -0.481 OA
ATOM     24  H   LIG    1       30.064 -12.124   5.890  0.00  0.00    +0.295 HD
ENDBRANCH  21  23
ENDBRANCH  20  21
ENDBRANCH  19  20
ENDBRANCH  18  19
ENDBRANCH  10  18
TORSDOF 10
ENDMDL
MODEL 6
REMARK VINA RESULT:      -3.3      3.896      7.201
REMARK  Name = *****
REMARK                            x       y       z     vdW  Elec       q    Type
REMARK                         _______ _______ _______ _____ _____    ______ ____
ROOT
ATOM      1  C   LIG    1       28.557 -13.701   3.794  0.00  0.00    +0.150 C 
ATOM      2  N   LIG    1       27.399 -14.471   3.406  0.00  0.00    -0.331 N 
ATOM      3  C   LIG    1       27.224 -15.805   3.717  0.00  0.00    +0.069 A 
ATOM      4  C   LIG    1       25.983 -16.125   3.193  0.00  0.00    +0.091 A 
ATOM      5  C   LIG    1       25.478 -17.432   3.355  0.00  0.00    +0.053 A 
ATOM      6  C   LIG    1       26.211 -18.425   4.035  0.00  0.00    +0.032 A 
ATOM      7  C   LIG    1       27.469 -18.037   4.540  0.00  0.00    +0.025 A 
ATOM      8  N   LIG    1       25.415 -15.032   2.586  0.00  0.00    -0.232 NA
ATOM      9  C   LIG    1       28.003 -16.740   4.400  0.00  0.00    +0.030 A 
ATOM     10  C   LIG    1       26.275 -14.041   2.731  0.00  0.00    +0.111 A 
ENDROOT
BRANCH   6  11
ATOM     11  N   LIG    1       25.720 -19.721   4.202  0.00  0.00    -0.328 N 
BRANCH  11  12
ATOM     12  C   LIG    1       24.560 -20.206   3.423  0.00  0.00    +0.121 C 
BRANCH  12  13
ATOM     13  C   LIG    1       23.297 -20.307   4.285  0.00  0.00    +0.127 C 
ATOM     14 CL   LIG    1       22.599 -18.696   4.582  0.00  0.00    -0.124 Cl
ENDBRANCH  12  13
ENDBRANCH  11  12
BRANCH  11  15
ATOM     15  C   LIG    1       26.373 -20.676   5.127  0.00  0.00    +0.121 C 
BRANCH  15  16
ATOM     16  C   LIG    1       25.962 -20.425   6.581  0.00  0.00    +0.127 C 
ATOM     17 CL   LIG    1       24.635 -21.512   7.062  0.00  0.00    -0.124 Cl
ENDBRANCH  15  16
ENDBRANCH  11  15
ENDBRANCH   6  11
BRANCH  10  18
ATOM     18  C   LIG    1       26.040 -12.644   2.253  0.00  0.00    +0.075 C 
BRANCH  18  19
ATOM     19  C   LIG    1       24.557 -12.344   1.995  0.00  0.00    +0.019 C 
BRANCH  19  20
ATOM     20  C   LIG    1       23.861 -11.469   3.045  0.00  0.00    +0.121 C 
BRANCH  20  21
ATOM     21  C   LIG    1       23.856 -12.068   4.437  0.00  0.00    +0.305 C 
ATOM     22  O   LIG    1       23.917 -11.447   5.478  0.00  0.00    -0.251 OA
BRANCH  21  23
ATOM     23  O   LIG    1       23.828 -13.422   4.425  0.00  0.00    -0.481 OA
ATOM     24  H   LIG    1       24.592 -13.835   3.984  0.00  0.00    +0.295 HD
ENDBRANCH  21  23
ENDBRANCH  20  21
ENDBRANCH  19  20
ENDBRANCH  18  19
ENDBRANCH  10  18
TORSDOF 10
ENDMDL
MODEL 7
REMARK VINA RESULT:      -3.2      2.478      3.790
REMARK  Name = *****
REMARK                            x       y       z     vdW  Elec       q    Type
REMARK                         _______ _______ _______ _____ _____    ______ ____
ROOT
ATOM      1  C   LIG    1       27.667 -20.491   5.559  0.00  0.00    +0.150 C 
ATOM      2  N   LIG    1       26.782 -19.626   4.816  0.00  0.00    -0.331 N 
ATOM      3  C   LIG    1       27.074 -18.312   4.506  0.00  0.00    +0.069 A 
ATOM      4  C   LIG    1       25.986 -17.879   3.766  0.00  0.00    +0.091 A 
ATOM      5  C   LIG    1       25.969 -16.561   3.265  0.00  0.00    +0.053 A 
ATOM      6  C   LIG    1       27.034 -15.669   3.504  0.00  0.00    +0.032 A 
ATOM      7  C   LIG    1       28.107 -16.169   4.268  0.00  0.00    +0.025 A 
ATOM      8  N   LIG    1       25.063 -18.886   3.623  0.00  0.00    -0.232 NA
ATOM      9  C   LIG    1       28.159 -17.481   4.782  0.00  0.00    +0.030 A 
ATOM     10  C   LIG    1       25.561 -19.935   4.252  0.00  0.00    +0.111 A 
ENDROOT
BRANCH   6  11
ATOM     11  N   LIG    1       27.027 -14.364   3.011  0.00  0.00    -0.328 N 
BRANCH  11  12
ATOM     12  C   LIG    1       28.169 -13.452   3.242  0.00  0.00    +0.121 C 
BRANCH  12  13
ATOM     13  C   LIG    1       28.066 -12.742   4.596  0.00  0.00    +0.127 C 
ATOM     14 CL   LIG    1       26.844 -13.519   5.632  0.00  0.00    -0.124 Cl
ENDBRANCH  12  13
ENDBRANCH  11  12
BRANCH  11  15
ATOM     15  C   LIG    1       25.900 -13.857   2.195  0.00  0.00    +0.121 C 
BRANCH  15  16
ATOM     16  C   LIG    1       24.958 -12.973   3.019  0.00  0.00    +0.127 C 
ATOM     17 CL   LIG    1       23.788 -13.965   3.926  0.00  0.00    -0.124 Cl
ENDBRANCH  15  16
ENDBRANCH  11  15
ENDBRANCH   6  11
BRANCH  10  18
ATOM     18  C   LIG    1       24.899 -21.274   4.313  0.00  0.00    +0.075 C 
BRANCH  18  19
ATOM     19  C   LIG    1       24.256 -21.561   5.676  0.00  0.00    +0.019 C 
BRANCH  19  20
ATOM     20  C   LIG    1       23.145 -20.595   6.106  0.00  0.00    +0.121 C 
BRANCH  20  21
ATOM     21  C   LIG    1       22.105 -20.339   5.033  0.00  0.00    +0.305 C 
ATOM     22  O   LIG    1       21.873 -19.269   4.510  0.00  0.00    -0.251 OA
BRANCH  21  23
ATOM     23  O   LIG    1       21.386 -21.445   4.727  0.00  0.00    -0.481 OA
ATOM     24  H   LIG    1       21.207 -22.031   5.484  0.00  0.00    +0.295 HD
ENDBRANCH  21  23
ENDBRANCH  20  21
ENDBRANCH  19  20
ENDBRANCH  18  19
ENDBRANCH  10  18
TORSDOF 10
ENDMDL
MODEL 8
REMARK VINA RESULT:      -3.1      3.621      7.028
REMARK  Name = *****
REMARK                            x       y       z     vdW  Elec       q    Type
REMARK                         _______ _______ _______ _____ _____    ______ ____
ROOT
ATOM      1  C   LIG    1       23.948 -13.116   3.986  0.00  0.00    +0.150 C 
ATOM      2  N   LIG    1       24.600 -14.379   3.734  0.00  0.00    -0.331 N 
ATOM      3  C   LIG    1       24.027 -15.606   3.998  0.00  0.00    +0.069 A 
ATOM      4  C   LIG    1       24.969 -16.529   3.575  0.00  0.00    +0.091 A 
ATOM      5  C   LIG    1       24.688 -17.906   3.685  0.00  0.00    +0.053 A 
ATOM      6  C   LIG    1       23.469 -18.369   4.221  0.00  0.00    +0.032 A 
ATOM      7  C   LIG    1       22.555 -17.379   4.638  0.00  0.00    +0.025 A 
ATOM      8  N   LIG    1       26.077 -15.896   3.069  0.00  0.00    -0.232 NA
ATOM      9  C   LIG    1       22.801 -15.995   4.539  0.00  0.00    +0.030 A 
ATOM     10  C   LIG    1       25.836 -14.600   3.161  0.00  0.00    +0.111 A 
ENDROOT
BRANCH   6  11
ATOM     11  N   LIG    1       23.181 -19.730   4.333  0.00  0.00    -0.328 N 
BRANCH  11  12
ATOM     12  C   LIG    1       24.101 -20.754   3.793  0.00  0.00    +0.121 C 
BRANCH  12  13
ATOM     13  C   LIG    1       24.761 -21.572   4.909  0.00  0.00    +0.127 C 
ATOM     14 CL   LIG    1       25.991 -20.608   5.762  0.00  0.00    -0.124 Cl
ENDBRANCH  12  13
ENDBRANCH  11  12
BRANCH  11  15
ATOM     15  C   LIG    1       21.969 -20.201   5.042  0.00  0.00    +0.121 C 
BRANCH  15  16
ATOM     16  C   LIG    1       20.871 -20.626   4.061  0.00  0.00    +0.127 C 
ATOM     17 CL   LIG    1       19.946 -19.213   3.492  0.00  0.00    -0.124 Cl
ENDBRANCH  15  16
ENDBRANCH  11  15
ENDBRANCH   6  11
BRANCH  10  18
ATOM     18  C   LIG    1       26.768 -13.534   2.683  0.00  0.00    +0.075 C 
BRANCH  18  19
ATOM     19  C   LIG    1       28.228 -13.795   3.079  0.00  0.00    +0.019 C 
BRANCH  19  20
ATOM     20  C   LIG    1       28.919 -12.670   3.858  0.00  0.00    +0.121 C 
BRANCH  20  21
ATOM     21  C   LIG    1       28.453 -12.543   5.295  0.00  0.00    +0.305 C 
ATOM     22  O   LIG    1       27.452 -13.044   5.764  0.00  0.00    -0.251 OA
BRANCH  21  23
ATOM     23  O   LIG    1       29.256 -11.744   6.037  0.00  0.00    -0.481 OA
ATOM     24  H   LIG    1       28.790 -11.022   6.496  0.00  0.00    +0.295 HD
ENDBRANCH  21  23
ENDBRANCH  20  21
ENDBRANCH  19  20
ENDBRANCH  18  19
ENDBRANCH  10  18
TORSDOF 10
ENDMDL
