MODEL 1
REMARK VINA RESULT:       4.8      0.000      0.000
REMARK  Name = *****
REMARK                            x       y       z     vdW  Elec       q    Type
REMARK                         _______ _______ _______ _____ _____    ______ ____
ROOT
ATOM      1  C   LIG    1       24.445 -17.928   3.624  0.00  0.00    +0.064 C 
ATOM      2  C   LIG    1       22.928 -18.217   3.908  0.00  0.00    +0.117 C 
ATOM      3  C   LIG    1       22.011 -16.980   3.756  0.00  0.00    +0.062 C 
ATOM      4  C   LIG    1       22.594 -15.780   4.520  0.00  0.00    +0.151 C 
ATOM      5  C   LIG    1       23.994 -15.442   4.096  0.00  0.00    -0.011 A 
ATOM      6  C   LIG    1       24.439 -14.110   4.191  0.00  0.00    +0.056 A 
ATOM      7  C   LIG    1       25.745 -13.832   3.857  0.00  0.00    +0.167 A 
ATOM      8  O   LIG    1       26.341 -12.612   3.929  0.00  0.00    -0.453 OA
ATOM      9  C   LIG    1       27.681 -12.942   3.508  0.00  0.00    +0.466 C 
ATOM     10  O   LIG    1       27.844 -14.332   3.155  0.00  0.00    -0.453 OA
ATOM     11  C   LIG    1       26.600 -14.810   3.420  0.00  0.00    +0.167 A 
ATOM     12  C   LIG    1       26.197 -16.124   3.307  0.00  0.00    +0.054 A 
ATOM     13  C   LIG    1       24.879 -16.463   3.678  0.00  0.00    -0.030 A 
ENDROOT
BRANCH   1  18
ATOM     14  C   LIG    1       27.499 -19.494   5.386  0.00  0.00    +0.165 A 
ATOM     15  C   LIG    1       26.886 -20.469   6.203  0.00  0.00    +0.203 A 
ATOM     16  C   LIG    1       25.478 -20.611   6.170  0.00  0.00    +0.165 A 
ATOM     17  C   LIG    1       24.706 -19.785   5.349  0.00  0.00    +0.053 A 
ATOM     18  C   LIG    1       25.301 -18.808   4.545  0.00  0.00    -0.032 A 
ATOM     19  C   LIG    1       26.695 -18.665   4.583  0.00  0.00    +0.053 A 
BRANCH  14  21
ATOM     20  C   LIG    1       29.473 -18.156   5.715  0.00  0.00    +0.277 C 
ATOM     21  O   LIG    1       28.867 -19.402   5.400  0.00  0.00    -0.491 OA
ENDBRANCH  14  21
BRANCH  15  22
ATOM     22  O   LIG    1       27.508 -21.348   7.061  0.00  0.00    -0.488 OA
ATOM     23  C   LIG    1       28.908 -21.552   6.971  0.00  0.00    +0.277 C 
ENDBRANCH  15  22
BRANCH  16  24
ATOM     24  O   LIG    1       24.918 -21.561   6.995  0.00  0.00    -0.491 OA
ATOM     25  C   LIG    1       23.496 -21.572   7.061  0.00  0.00    +0.277 C 
ENDBRANCH  16  24
ENDBRANCH   1  18
BRANCH   2  26
ATOM     26  C   LIG    1       22.511 -19.345   2.969  0.00  0.00    +0.309 C 
ATOM     27  O   LIG    1       23.081 -19.612   1.915  0.00  0.00    -0.251 OA
BRANCH  26  28
ATOM     28  O   LIG    1       21.445 -20.058   3.379  0.00  0.00    -0.480 OA
ATOM     29  H   LIG    1       20.638 -19.872   2.851  0.00  0.00    +0.295 HD
ENDBRANCH  26  28
ENDBRANCH   2  26
BRANCH   4  30
ATOM     30  O   LIG    1       22.613 -16.057   5.920  0.00  0.00    -0.387 OA
ATOM     31  H   LIG    1       21.714 -16.329   6.181  0.00  0.00    +0.210 HD
ENDBRANCH   4  30
BRANCH   3  32
ATOM     32  C   LIG    1       20.588 -17.226   4.295  0.00  0.00    +0.163 C 
BRANCH  32  33
ATOM     33  O   LIG    1       19.776 -17.918   3.362  0.00  0.00    -0.395 OA
ATOM     34  H   LIG    1       19.109 -18.431   3.857  0.00  0.00    +0.209 HD
ENDBRANCH  32  33
ENDBRANCH   3  32
TORSDOF 9
ENDMDL
MODEL 2
REMARK VINA RESULT:       6.1      0.181      2.345
REMARK  Name = *****
REMARK                            x       y       z     vdW  Elec       q    Type
REMARK                         _______ _______ _______ _____ _____    ______ ____
ROOT
ATOM      1  C   LIG    1       24.452 -17.889   3.581  0.00  0.00    +0.064 C 
ATOM      2  C   LIG    1       22.927 -18.155   3.840  0.00  0.00    +0.117 C 
ATOM      3  C   LIG    1       22.031 -16.903   3.682  0.00  0.00    +0.062 C 
ATOM      4  C   LIG    1       22.622 -15.717   4.462  0.00  0.00    +0.151 C 
ATOM      5  C   LIG    1       24.034 -15.399   4.060  0.00  0.00    -0.011 A 
ATOM      6  C   LIG    1       24.498 -14.075   4.170  0.00  0.00    +0.056 A 
ATOM      7  C   LIG    1       25.813 -13.815   3.857  0.00  0.00    +0.167 A 
ATOM      8  O   LIG    1       26.426 -12.605   3.945  0.00  0.00    -0.453 OA
ATOM      9  C   LIG    1       27.768 -12.954   3.542  0.00  0.00    +0.466 C 
ATOM     10  O   LIG    1       27.914 -14.344   3.184  0.00  0.00    -0.453 OA
ATOM     11  C   LIG    1       26.659 -14.804   3.427  0.00  0.00    +0.167 A 
ATOM     12  C   LIG    1       26.237 -16.110   3.300  0.00  0.00    +0.054 A 
ATOM     13  C   LIG    1       24.909 -16.431   3.649  0.00  0.00    -0.030 A 
ENDROOT
BRANCH   1  18
ATOM     14  C   LIG    1       25.401 -20.579   6.178  0.00  0.00    +0.165 A 
ATOM     15  C   LIG    1       26.801 -20.409   6.264  0.00  0.00    +0.203 A 
ATOM     16  C   LIG    1       27.424 -19.413   5.475  0.00  0.00    +0.165 A 
ATOM     17  C   LIG    1       26.664 -18.620   4.612  0.00  0.00    +0.053 A 
ATOM     18  C   LIG    1       25.280 -18.788   4.509  0.00  0.00    -0.032 A 
ATOM     19  C   LIG    1       24.664 -19.778   5.287  0.00  0.00    +0.053 A 
BRANCH  14  21
ATOM     20  C   LIG    1       23.392 -21.572   7.060  0.00  0.00    +0.277 C 
ATOM     21  O   LIG    1       24.811 -21.519   6.982  0.00  0.00    -0.491 OA
ENDBRANCH  14  21
BRANCH  15  22
ATOM     22  O   LIG    1       27.678 -21.111   7.060  0.00  0.00    -0.488 OA
ATOM     23  C   LIG    1       29.011 -21.325   6.624  0.00  0.00    +0.277 C 
ENDBRANCH  15  22
BRANCH  16  24
ATOM     24  O   LIG    1       28.793 -19.292   5.575  0.00  0.00    -0.491 OA
ATOM     25  C   LIG    1       29.352 -18.085   5.068  0.00  0.00    +0.277 C 
ENDBRANCH  16  24
ENDBRANCH   1  18
BRANCH   2  26
ATOM     26  C   LIG    1       22.507 -19.272   2.889  0.00  0.00    +0.309 C 
ATOM     27  O   LIG    1       23.051 -19.502   1.812  0.00  0.00    -0.251 OA
BRANCH  26  28
ATOM     28  O   LIG    1       21.469 -20.017   3.314  0.00  0.00    -0.480 OA
ATOM     29  H   LIG    1       21.110 -20.603   2.612  0.00  0.00    +0.295 HD
ENDBRANCH  26  28
ENDBRANCH   2  26
BRANCH   4  30
ATOM     30  O   LIG    1       22.616 -16.003   5.860  0.00  0.00    -0.387 OA
ATOM     31  H   LIG    1       23.411 -16.532   6.058  0.00  0.00    +0.210 HD
ENDBRANCH   4  30
BRANCH   3  32
ATOM     32  C   LIG    1       20.597 -17.130   4.198  0.00  0.00    +0.163 C 
BRANCH  32  33
ATOM     33  O   LIG    1       19.778 -17.772   3.236  0.00  0.00    -0.395 OA
ATOM     34  H   LIG    1       19.959 -17.372   2.364  0.00  0.00    +0.209 HD
ENDBRANCH  32  33
ENDBRANCH   3  32
TORSDOF 9
ENDMDL
