MODEL 1
REMARK VINA RESULT:      23.3      0.000      0.000
REMARK  Name = *****
REMARK                            x       y       z     vdW  Elec       q    Type
REMARK                         _______ _______ _______ _____ _____    ______ ____
ROOT
ATOM      1  C   LIG    1       27.358 -13.116   4.261  0.00  0.00    +0.011 C 
ATOM      2  C   LIG    1       26.182 -13.683   5.055  0.00  0.00    +0.026 C 
ATOM      3  C   LIG    1       24.808 -13.455   4.392  0.00  0.00    +0.134 C 
ATOM      4  C   LIG    1       23.954 -14.683   4.848  0.00  0.00    +0.009 C 
ATOM      5  C   LIG    1       23.463 -14.531   6.312  0.00  0.00    +0.015 C 
ATOM      6  C   LIG    1       24.983 -15.858   4.803  0.00  0.00    +0.003 C 
ATOM      7  C   LIG    1       25.132 -16.581   3.432  0.00  0.00    +0.017 C 
ATOM      8  C   LIG    1       23.763 -17.025   2.862  0.00  0.00    +0.036 C 
ATOM      9  C   LIG    1       22.888 -15.756   2.707  0.00  0.00    +0.120 C 
ATOM     10  C   LIG    1       23.128 -18.342   3.500  0.00  0.00    +0.013 C 
ATOM     11  C   LIG    1       22.292 -19.055   2.397  0.00  0.00    +0.020 C 
ATOM     12  C   LIG    1       24.188 -19.369   3.995  0.00  0.00    -0.055 C 
ATOM     13  C   LIG    1       23.766 -20.435   4.720  0.00  0.00    +0.051 C 
ATOM     14  C   LIG    1       23.110 -19.935   5.985  0.00  0.00    +0.179 C 
ATOM     15  O   LIG    1       23.251 -20.507   7.061  0.00  0.00    -0.288 OA
ATOM     16  C   LIG    1       22.198 -18.773   5.825  0.00  0.00    +0.047 C 
ATOM     17  C   LIG    1       25.590 -18.907   4.327  0.00  0.00    +0.051 C 
ATOM     18  C   LIG    1       22.181 -18.084   4.670  0.00  0.00    -0.012 C 
ATOM     19  C   LIG    1       26.116 -17.768   3.471  0.00  0.00    +0.088 C 
ATOM     20 CL   LIG    1       26.491 -18.362   1.813  0.00  0.00    -0.121 Cl
ATOM     21  C   LIG    1       22.704 -14.920   3.975  0.00  0.00    +0.042 C 
ATOM     22  C   LIG    1       26.307 -15.204   5.260  0.00  0.00    +0.011 C 
ENDROOT
BRANCH   3  23
ATOM     23  C   LIG    1       24.174 -12.072   4.695  0.00  0.00    +0.190 C 
ATOM     24  O   LIG    1       24.401 -11.508   5.775  0.00  0.00    -0.292 OA
BRANCH  23  25
ATOM     25  C   LIG    1       23.187 -11.449   3.711  0.00  0.00    +0.233 C 
BRANCH  25  26
ATOM     26  O   LIG    1       23.693 -11.448   2.385  0.00  0.00    -0.387 OA
ATOM     27  H   LIG    1       23.106 -12.031   1.861  0.00  0.00    +0.210 HD
ENDBRANCH  25  26
ENDBRANCH  23  25
ENDBRANCH   3  23
BRANCH   3  28
ATOM     28  O   LIG    1       24.975 -13.532   2.967  0.00  0.00    -0.380 OA
ATOM     29  H   LIG    1       25.930 -13.632   2.781  0.00  0.00    +0.211 HD
ENDBRANCH   3  28
BRANCH   9  30
ATOM     30  O   LIG    1       21.601 -16.072   2.186  0.00  0.00    -0.391 OA
ATOM     31  H   LIG    1       20.945 -15.598   2.727  0.00  0.00    +0.210 HD
ENDBRANCH   9  30
TORSDOF 5
ENDMDL
