MODEL 1
REMARK VINA RESULT:      -5.5      0.000      0.000
REMARK  Name = *****
REMARK                            x       y       z     vdW  Elec       q    Type
REMARK                         _______ _______ _______ _____ _____    ______ ____
ROOT
ATOM      1  C   LIG    1       24.140 -18.830   3.771  0.00  0.00    +0.339 C 
ATOM      2  O   LIG    1       22.960 -19.100   3.757  0.00  0.00    -0.245 OA
ENDROOT
BRANCH   1   3
ATOM      3  C   LIG    1       24.704 -17.454   3.708  0.00  0.00    +0.059 A 
ATOM      4  C   LIG    1       23.918 -16.340   4.005  0.00  0.00    +0.017 A 
ATOM      5  C   LIG    1       24.456 -15.055   3.945  0.00  0.00    +0.024 A 
ATOM      6  C   LIG    1       25.790 -14.838   3.580  0.00  0.00    +0.029 A 
ATOM      7  C   LIG    1       26.572 -15.967   3.279  0.00  0.00    +0.024 A 
ATOM      8  C   LIG    1       26.044 -17.266   3.349  0.00  0.00    +0.017 A 
BRANCH   6   9
ATOM      9  N   LIG    1       26.360 -13.555   3.512  0.00  0.00    -0.336 N 
ATOM     10  C   LIG    1       27.818 -13.565   3.651  0.00  0.00    +0.129 C 
ATOM     11  C   LIG    1       25.842 -12.660   2.476  0.00  0.00    +0.129 C 
ENDBRANCH   6   9
ENDBRANCH   1   3
BRANCH   1  12
ATOM     12  O   LIG    1       25.176 -19.708   3.848  0.00  0.00    -0.461 OA
BRANCH  12  13
ATOM     13  C   LIG    1       24.923 -20.951   4.507  0.00  0.00    +0.236 C 
BRANCH  13  14
ATOM     14  C   LIG    1       25.665 -21.042   5.854  0.00  0.00    +0.026 C 
BRANCH  14  15
ATOM     15  C   LIG    1       24.720 -20.816   7.061  0.00  0.00    +0.003 C 
ATOM     16  C   LIG    1       23.226 -20.862   6.771  0.00  0.00    +0.004 C 
ENDBRANCH  14  15
BRANCH  14  17
ATOM     17  C   LIG    1       26.900 -20.114   5.789  0.00  0.00    +0.007 C 
BRANCH  17  18
ATOM     18  C   LIG    1       27.969 -20.387   6.853  0.00  0.00    +0.000 C 
BRANCH  18  20
ATOM     19  C   LIG    1       29.188 -18.567   5.595  0.00  0.00    +0.004 C 
ATOM     20  C   LIG    1       29.338 -19.811   6.461  0.00  0.00    -0.003 C 
ENDBRANCH  18  20
ENDBRANCH  17  18
ENDBRANCH  14  17
ENDBRANCH  13  14
ENDBRANCH  12  13
ENDBRANCH   1  12
TORSDOF 9
ENDMDL
MODEL 2
REMARK VINA RESULT:      -5.3      1.782      3.870
REMARK  Name = *****
REMARK                            x       y       z     vdW  Elec       q    Type
REMARK                         _______ _______ _______ _____ _____    ______ ____
ROOT
ATOM      1  C   LIG    1       26.529 -17.165   3.590  0.00  0.00    +0.339 C 
ATOM      2  O   LIG    1       27.674 -17.460   3.851  0.00  0.00    -0.245 OA
ENDROOT
BRANCH   1   3
ATOM      3  C   LIG    1       26.006 -15.775   3.484  0.00  0.00    +0.059 A 
ATOM      4  C   LIG    1       26.842 -14.716   3.132  0.00  0.00    +0.017 A 
ATOM      5  C   LIG    1       26.342 -13.418   3.034  0.00  0.00    +0.024 A 
ATOM      6  C   LIG    1       24.996 -13.133   3.292  0.00  0.00    +0.029 A 
ATOM      7  C   LIG    1       24.163 -14.207   3.650  0.00  0.00    +0.024 A 
ATOM      8  C   LIG    1       24.653 -15.520   3.739  0.00  0.00    +0.017 A 
BRANCH   6   9
ATOM      9  N   LIG    1       24.463 -11.836   3.200  0.00  0.00    -0.336 N 
ATOM     10  C   LIG    1       24.094 -11.461   1.834  0.00  0.00    +0.129 C 
ATOM     11  C   LIG    1       23.500 -11.447   4.231  0.00  0.00    +0.129 C 
ENDBRANCH   6   9
ENDBRANCH   1   3
BRANCH   1  12
ATOM     12  O   LIG    1       25.504 -18.023   3.341  0.00  0.00    -0.461 OA
BRANCH  12  13
ATOM     13  C   LIG    1       25.785 -19.419   3.461  0.00  0.00    +0.236 C 
BRANCH  13  14
ATOM     14  C   LIG    1       25.088 -20.037   4.689  0.00  0.00    +0.026 C 
BRANCH  14  15
ATOM     15  C   LIG    1       26.075 -20.821   5.591  0.00  0.00    +0.003 C 
ATOM     16  C   LIG    1       27.282 -20.049   6.106  0.00  0.00    +0.004 C 
ENDBRANCH  14  15
BRANCH  14  17
ATOM     17  C   LIG    1       23.857 -20.833   4.196  0.00  0.00    +0.007 C 
BRANCH  17  18
ATOM     18  C   LIG    1       22.532 -20.451   4.865  0.00  0.00    +0.000 C 
BRANCH  18  20
ATOM     19  C   LIG    1       21.673 -18.218   4.058  0.00  0.00    +0.004 C 
ATOM     20  C   LIG    1       22.440 -18.945   5.154  0.00  0.00    -0.003 C 
ENDBRANCH  18  20
ENDBRANCH  17  18
ENDBRANCH  14  17
ENDBRANCH  13  14
ENDBRANCH  12  13
ENDBRANCH   1  12
TORSDOF 9
ENDMDL
MODEL 3
REMARK VINA RESULT:      -4.7      1.145      3.099
REMARK  Name = *****
REMARK                            x       y       z     vdW  Elec       q    Type
REMARK                         _______ _______ _______ _____ _____    ______ ____
ROOT
ATOM      1  C   LIG    1       24.986 -18.778   3.601  0.00  0.00    +0.339 C 
ATOM      2  O   LIG    1       24.080 -19.462   3.180  0.00  0.00    -0.245 OA
ENDROOT
BRANCH   1   3
ATOM      3  C   LIG    1       24.992 -17.289   3.633  0.00  0.00    +0.059 A 
ATOM      4  C   LIG    1       23.863 -16.574   4.034  0.00  0.00    +0.017 A 
ATOM      5  C   LIG    1       23.878 -15.180   4.063  0.00  0.00    +0.024 A 
ATOM      6  C   LIG    1       25.014 -14.455   3.685  0.00  0.00    +0.029 A 
ATOM      7  C   LIG    1       26.145 -15.186   3.279  0.00  0.00    +0.024 A 
ATOM      8  C   LIG    1       26.144 -16.590   3.259  0.00  0.00    +0.017 A 
BRANCH   6   9
ATOM      9  N   LIG    1       25.060 -13.050   3.705  0.00  0.00    -0.336 N 
ATOM     10  C   LIG    1       25.273 -12.463   2.380  0.00  0.00    +0.129 C 
ATOM     11  C   LIG    1       24.060 -12.372   4.530  0.00  0.00    +0.129 C 
ENDBRANCH   6   9
ENDBRANCH   1   3
BRANCH   1  12
ATOM     12  O   LIG    1       26.163 -19.216   4.124  0.00  0.00    -0.461 OA
BRANCH  12  13
ATOM     13  C   LIG    1       26.163 -20.517   4.716  0.00  0.00    +0.236 C 
BRANCH  13  14
ATOM     14  C   LIG    1       25.899 -20.453   6.233  0.00  0.00    +0.026 C 
BRANCH  14  15
ATOM     15  C   LIG    1       27.202 -20.582   7.061  0.00  0.00    +0.003 C 
ATOM     16  C   LIG    1       28.510 -20.461   6.291  0.00  0.00    +0.004 C 
ENDBRANCH  14  15
BRANCH  14  17
ATOM     17  C   LIG    1       24.787 -21.473   6.573  0.00  0.00    +0.007 C 
BRANCH  17  18
ATOM     18  C   LIG    1       23.471 -20.854   7.057  0.00  0.00    +0.000 C 
BRANCH  18  20
ATOM     19  C   LIG    1       21.902 -20.970   5.081  0.00  0.00    +0.004 C 
ATOM     20  C   LIG    1       22.761 -20.061   5.950  0.00  0.00    -0.003 C 
ENDBRANCH  18  20
ENDBRANCH  17  18
ENDBRANCH  14  17
ENDBRANCH  13  14
ENDBRANCH  12  13
ENDBRANCH   1  12
TORSDOF 9
ENDMDL
MODEL 4
REMARK VINA RESULT:      -4.3      2.794      6.579
REMARK  Name = *****
REMARK                            x       y       z     vdW  Elec       q    Type
REMARK                         _______ _______ _______ _____ _____    ______ ____
ROOT
ATOM      1  C   LIG    1       26.734 -17.334   3.629  0.00  0.00    +0.339 C 
ATOM      2  O   LIG    1       27.908 -17.299   3.922  0.00  0.00    -0.245 OA
ENDROOT
BRANCH   1   3
ATOM      3  C   LIG    1       25.771 -18.378   4.073  0.00  0.00    +0.059 A 
ATOM      4  C   LIG    1       26.193 -19.473   4.827  0.00  0.00    +0.017 A 
ATOM      5  C   LIG    1       25.283 -20.445   5.240  0.00  0.00    +0.024 A 
ATOM      6  C   LIG    1       23.926 -20.362   4.907  0.00  0.00    +0.029 A 
ATOM      7  C   LIG    1       23.511 -19.257   4.143  0.00  0.00    +0.024 A 
ATOM      8  C   LIG    1       24.418 -18.266   3.733  0.00  0.00    +0.017 A 
BRANCH   6   9
ATOM      9  N   LIG    1       22.985 -21.326   5.309  0.00  0.00    -0.336 N 
ATOM     10  C   LIG    1       22.994 -21.572   6.753  0.00  0.00    +0.129 C 
ATOM     11  C   LIG    1       21.656 -21.239   4.704  0.00  0.00    +0.129 C 
ENDBRANCH   6   9
ENDBRANCH   1   3
BRANCH   1  12
ATOM     12  O   LIG    1       26.063 -16.443   2.850  0.00  0.00    -0.461 OA
BRANCH  12  13
ATOM     13  C   LIG    1       26.357 -15.059   3.050  0.00  0.00    +0.236 C 
BRANCH  13  14
ATOM     14  C   LIG    1       25.235 -14.346   3.830  0.00  0.00    +0.026 C 
BRANCH  14  15
ATOM     15  C   LIG    1       24.251 -13.601   2.893  0.00  0.00    +0.003 C 
ATOM     16  C   LIG    1       24.689 -12.227   2.403  0.00  0.00    +0.004 C 
ENDBRANCH  14  15
BRANCH  14  17
ATOM     17  C   LIG    1       25.888 -13.482   4.934  0.00  0.00    +0.007 C 
BRANCH  17  18
ATOM     18  C   LIG    1       27.357 -13.810   5.225  0.00  0.00    +0.000 C 
BRANCH  18  20
ATOM     19  C   LIG    1       29.040 -12.695   3.708  0.00  0.00    +0.004 C 
ATOM     20  C   LIG    1       28.275 -12.596   5.021  0.00  0.00    -0.003 C 
ENDBRANCH  18  20
ENDBRANCH  17  18
ENDBRANCH  14  17
ENDBRANCH  13  14
ENDBRANCH  12  13
ENDBRANCH   1  12
TORSDOF 9
ENDMDL
MODEL 5
REMARK VINA RESULT:      -4.1      1.518      2.658
REMARK  Name = *****
REMARK                            x       y       z     vdW  Elec       q    Type
REMARK                         _______ _______ _______ _____ _____    ______ ____
ROOT
ATOM      1  C   LIG    1       22.536 -16.446   4.804  0.00  0.00    +0.339 C 
ATOM      2  O   LIG    1       21.661 -16.009   5.517  0.00  0.00    -0.245 OA
ENDROOT
BRANCH   1   3
ATOM      3  C   LIG    1       23.713 -15.673   4.321  0.00  0.00    +0.059 A 
ATOM      4  C   LIG    1       23.734 -14.280   4.384  0.00  0.00    +0.017 A 
ATOM      5  C   LIG    1       24.842 -13.565   3.931  0.00  0.00    +0.024 A 
ATOM      6  C   LIG    1       25.959 -14.214   3.393  0.00  0.00    +0.029 A 
ATOM      7  C   LIG    1       25.926 -15.618   3.330  0.00  0.00    +0.024 A 
ATOM      8  C   LIG    1       24.821 -16.349   3.796  0.00  0.00    +0.017 A 
BRANCH   6   9
ATOM      9  N   LIG    1       27.091 -13.521   2.929  0.00  0.00    -0.336 N 
ATOM     10  C   LIG    1       26.785 -12.166   2.464  0.00  0.00    +0.129 C 
ATOM     11  C   LIG    1       28.309 -13.641   3.730  0.00  0.00    +0.129 C 
ENDBRANCH   6   9
ENDBRANCH   1   3
BRANCH   1  12
ATOM     12  O   LIG    1       22.627 -17.710   4.307  0.00  0.00    -0.461 OA
BRANCH  12  13
ATOM     13  C   LIG    1       22.402 -18.783   5.224  0.00  0.00    +0.236 C 
BRANCH  13  14
ATOM     14  C   LIG    1       22.747 -20.148   4.598  0.00  0.00    +0.026 C 
BRANCH  14  15
ATOM     15  C   LIG    1       22.886 -21.264   5.664  0.00  0.00    +0.003 C 
ATOM     16  C   LIG    1       23.294 -20.820   7.062  0.00  0.00    +0.004 C 
ENDBRANCH  14  15
BRANCH  14  17
ATOM     17  C   LIG    1       23.967 -19.958   3.667  0.00  0.00    +0.007 C 
BRANCH  17  18
ATOM     18  C   LIG    1       25.232 -20.707   4.101  0.00  0.00    +0.000 C 
BRANCH  18  20
ATOM     19  C   LIG    1       26.738 -20.359   6.099  0.00  0.00    +0.004 C 
ATOM     20  C   LIG    1       26.252 -19.778   4.778  0.00  0.00    -0.003 C 
ENDBRANCH  18  20
ENDBRANCH  17  18
ENDBRANCH  14  17
ENDBRANCH  13  14
ENDBRANCH  12  13
ENDBRANCH   1  12
TORSDOF 9
ENDMDL
MODEL 6
REMARK VINA RESULT:      -4.1      0.932      1.560
REMARK  Name = *****
REMARK                            x       y       z     vdW  Elec       q    Type
REMARK                         _______ _______ _______ _____ _____    ______ ____
ROOT
ATOM      1  C   LIG    1       23.366 -17.843   4.115  0.00  0.00    +0.339 C 
ATOM      2  O   LIG    1       22.247 -17.891   4.574  0.00  0.00    -0.245 OA
ENDROOT
BRANCH   1   3
ATOM      3  C   LIG    1       24.158 -16.597   3.918  0.00  0.00    +0.059 A 
ATOM      4  C   LIG    1       25.512 -16.651   3.587  0.00  0.00    +0.017 A 
ATOM      5  C   LIG    1       26.245 -15.479   3.403  0.00  0.00    +0.024 A 
ATOM      6  C   LIG    1       25.655 -14.219   3.551  0.00  0.00    +0.029 A 
ATOM      7  C   LIG    1       24.291 -14.176   3.889  0.00  0.00    +0.024 A 
ATOM      8  C   LIG    1       23.540 -15.350   4.063  0.00  0.00    +0.017 A 
BRANCH   6   9
ATOM      9  N   LIG    1       26.368 -13.020   3.371  0.00  0.00    -0.336 N 
ATOM     10  C   LIG    1       27.807 -13.228   3.197  0.00  0.00    +0.129 C 
ATOM     11  C   LIG    1       25.771 -12.030   2.474  0.00  0.00    +0.129 C 
ENDBRANCH   6   9
ENDBRANCH   1   3
BRANCH   1  12
ATOM     12  O   LIG    1       24.120 -18.894   3.693  0.00  0.00    -0.461 OA
BRANCH  12  13
ATOM     13  C   LIG    1       23.720 -20.194   4.131  0.00  0.00    +0.236 C 
BRANCH  13  14
ATOM     14  C   LIG    1       24.866 -20.931   4.850  0.00  0.00    +0.026 C 
BRANCH  14  15
ATOM     15  C   LIG    1       24.407 -21.572   6.184  0.00  0.00    +0.003 C 
ATOM     16  C   LIG    1       23.438 -20.756   7.030  0.00  0.00    +0.004 C 
ENDBRANCH  14  15
BRANCH  14  17
ATOM     17  C   LIG    1       26.071 -19.967   4.952  0.00  0.00    +0.007 C 
BRANCH  17  18
ATOM     18  C   LIG    1       27.340 -20.582   5.554  0.00  0.00    +0.000 C 
BRANCH  18  20
ATOM     19  C   LIG    1       29.473 -20.141   6.831  0.00  0.00    +0.004 C 
ATOM     20  C   LIG    1       28.314 -19.512   6.070  0.00  0.00    -0.003 C 
ENDBRANCH  18  20
ENDBRANCH  17  18
ENDBRANCH  14  17
ENDBRANCH  13  14
ENDBRANCH  12  13
ENDBRANCH   1  12
TORSDOF 9
ENDMDL
MODEL 7
REMARK VINA RESULT:      -3.9      2.705      6.959
REMARK  Name = *****
REMARK                            x       y       z     vdW  Elec       q    Type
REMARK                         _______ _______ _______ _____ _____    ______ ____
ROOT
ATOM      1  C   LIG    1       27.631 -17.833   4.093  0.00  0.00    +0.339 C 
ATOM      2  O   LIG    1       28.782 -18.000   4.431  0.00  0.00    -0.245 OA
ENDROOT
BRANCH   1   3
ATOM      3  C   LIG    1       26.499 -18.737   4.435  0.00  0.00    +0.059 A 
ATOM      4  C   LIG    1       26.625 -19.702   5.435  0.00  0.00    +0.017 A 
ATOM      5  C   LIG    1       25.558 -20.543   5.749  0.00  0.00    +0.024 A 
ATOM      6  C   LIG    1       24.337 -20.456   5.071  0.00  0.00    +0.029 A 
ATOM      7  C   LIG    1       24.221 -19.483   4.063  0.00  0.00    +0.024 A 
ATOM      8  C   LIG    1       25.285 -18.622   3.748  0.00  0.00    +0.017 A 
BRANCH   6   9
ATOM      9  N   LIG    1       23.243 -21.289   5.366  0.00  0.00    -0.336 N 
ATOM     10  C   LIG    1       23.098 -21.563   6.798  0.00  0.00    +0.129 C 
ATOM     11  C   LIG    1       21.994 -21.008   4.659  0.00  0.00    +0.129 C 
ENDBRANCH   6   9
ENDBRANCH   1   3
BRANCH   1  12
ATOM     12  O   LIG    1       27.141 -16.805   3.349  0.00  0.00    -0.461 OA
BRANCH  12  13
ATOM     13  C   LIG    1       27.081 -15.523   3.977  0.00  0.00    +0.236 C 
BRANCH  13  14
ATOM     14  C   LIG    1       27.254 -14.380   2.958  0.00  0.00    +0.026 C 
BRANCH  14  15
ATOM     15  C   LIG    1       27.987 -13.157   3.565  0.00  0.00    +0.003 C 
ATOM     16  C   LIG    1       27.832 -12.951   5.066  0.00  0.00    +0.004 C 
ENDBRANCH  14  15
BRANCH  14  17
ATOM     17  C   LIG    1       25.874 -14.085   2.326  0.00  0.00    +0.007 C 
BRANCH  17  18
ATOM     18  C   LIG    1       25.360 -12.656   2.538  0.00  0.00    +0.000 C 
BRANCH  18  20
ATOM     19  C   LIG    1       23.834 -13.989   4.045  0.00  0.00    +0.004 C 
ATOM     20  C   LIG    1       24.214 -12.597   3.559  0.00  0.00    -0.003 C 
ENDBRANCH  18  20
ENDBRANCH  17  18
ENDBRANCH  14  17
ENDBRANCH  13  14
ENDBRANCH  12  13
ENDBRANCH   1  12
TORSDOF 9
ENDMDL
MODEL 8
REMARK VINA RESULT:      -3.9      2.810      6.497
REMARK  Name = *****
REMARK                            x       y       z     vdW  Elec       q    Type
REMARK                         _______ _______ _______ _____ _____    ______ ____
ROOT
ATOM      1  C   LIG    1       26.901 -14.729   2.969  0.00  0.00    +0.339 C 
ATOM      2  O   LIG    1       26.781 -14.396   1.812  0.00  0.00    -0.245 OA
ENDROOT
BRANCH   1   3
ATOM      3  C   LIG    1       26.846 -16.131   3.468  0.00  0.00    +0.059 A 
ATOM      4  C   LIG    1       25.767 -16.961   3.161  0.00  0.00    +0.017 A 
ATOM      5  C   LIG    1       25.725 -18.273   3.631  0.00  0.00    +0.024 A 
ATOM      6  C   LIG    1       26.750 -18.796   4.428  0.00  0.00    +0.029 A 
ATOM      7  C   LIG    1       27.830 -17.950   4.734  0.00  0.00    +0.024 A 
ATOM      8  C   LIG    1       27.889 -16.631   4.255  0.00  0.00    +0.017 A 
BRANCH   6   9
ATOM      9  N   LIG    1       26.736 -20.115   4.915  0.00  0.00    -0.336 N 
ATOM     10  C   LIG    1       27.620 -20.312   6.065  0.00  0.00    +0.129 C 
ATOM     11  C   LIG    1       25.428 -20.762   5.020  0.00  0.00    +0.129 C 
ENDBRANCH   6   9
ENDBRANCH   1   3
BRANCH   1  12
ATOM     12  O   LIG    1       27.111 -13.910   4.035  0.00  0.00    -0.461 OA
BRANCH  12  13
ATOM     13  C   LIG    1       25.978 -13.609   4.853  0.00  0.00    +0.236 C 
BRANCH  13  14
ATOM     14  C   LIG    1       24.672 -13.600   4.035  0.00  0.00    +0.026 C 
BRANCH  14  15
ATOM     15  C   LIG    1       24.265 -12.171   3.594  0.00  0.00    +0.003 C 
ATOM     16  C   LIG    1       24.323 -11.880   2.101  0.00  0.00    +0.004 C 
ENDBRANCH  14  15
BRANCH  14  17
ATOM     17  C   LIG    1       23.600 -14.384   4.828  0.00  0.00    +0.007 C 
BRANCH  17  18
ATOM     18  C   LIG    1       22.986 -15.573   4.079  0.00  0.00    +0.000 C 
BRANCH  18  20
ATOM     19  C   LIG    1       22.224 -17.940   4.519  0.00  0.00    +0.004 C 
ATOM     20  C   LIG    1       22.194 -16.500   5.013  0.00  0.00    -0.003 C 
ENDBRANCH  18  20
ENDBRANCH  17  18
ENDBRANCH  14  17
ENDBRANCH  13  14
ENDBRANCH  12  13
ENDBRANCH   1  12
TORSDOF 9
ENDMDL
MODEL 9
REMARK VINA RESULT:      -3.8      1.465      3.326
REMARK  Name = *****
REMARK                            x       y       z     vdW  Elec       q    Type
REMARK                         _______ _______ _______ _____ _____    ______ ____
ROOT
ATOM      1  C   LIG    1       25.704 -18.745   3.474  0.00  0.00    +0.339 C 
ATOM      2  O   LIG    1       24.930 -19.111   2.619  0.00  0.00    -0.245 OA
ENDROOT
BRANCH   1   3
ATOM      3  C   LIG    1       26.190 -17.348   3.648  0.00  0.00    +0.059 A 
ATOM      4  C   LIG    1       27.474 -17.088   4.128  0.00  0.00    +0.017 A 
ATOM      5  C   LIG    1       27.920 -15.776   4.286  0.00  0.00    +0.024 A 
ATOM      6  C   LIG    1       27.099 -14.684   3.981  0.00  0.00    +0.029 A 
ATOM      7  C   LIG    1       25.806 -14.958   3.503  0.00  0.00    +0.024 A 
ATOM      8  C   LIG    1       25.351 -16.275   3.327  0.00  0.00    +0.017 A 
BRANCH   6   9
ATOM      9  N   LIG    1       27.522 -13.352   4.130  0.00  0.00    -0.336 N 
ATOM     10  C   LIG    1       27.465 -12.881   5.515  0.00  0.00    +0.129 C 
ATOM     11  C   LIG    1       28.720 -12.956   3.389  0.00  0.00    +0.129 C 
ENDBRANCH   6   9
ENDBRANCH   1   3
BRANCH   1  12
ATOM     12  O   LIG    1       26.279 -19.515   4.437  0.00  0.00    -0.461 OA
BRANCH  12  13
ATOM     13  C   LIG    1       25.543 -20.660   4.874  0.00  0.00    +0.236 C 
BRANCH  13  14
ATOM     14  C   LIG    1       25.430 -20.712   6.410  0.00  0.00    +0.026 C 
BRANCH  14  15
ATOM     15  C   LIG    1       26.621 -21.459   7.062  0.00  0.00    +0.003 C 
ATOM     16  C   LIG    1       28.004 -20.865   6.828  0.00  0.00    +0.004 C 
ENDBRANCH  14  15
BRANCH  14  17
ATOM     17  C   LIG    1       24.026 -21.249   6.773  0.00  0.00    +0.007 C 
BRANCH  17  18
ATOM     18  C   LIG    1       22.929 -20.929   5.751  0.00  0.00    +0.000 C 
BRANCH  18  20
ATOM     19  C   LIG    1       22.082 -19.024   4.326  0.00  0.00    +0.004 C 
ATOM     20  C   LIG    1       22.605 -19.429   5.697  0.00  0.00    -0.003 C 
ENDBRANCH  18  20
ENDBRANCH  17  18
ENDBRANCH  14  17
ENDBRANCH  13  14
ENDBRANCH  12  13
ENDBRANCH   1  12
TORSDOF 9
ENDMDL
