MODEL 1
REMARK VINA RESULT:      -4.0      0.000      0.000
REMARK  Name = *****
REMARK                            x       y       z     vdW  Elec       q    Type
REMARK                         _______ _______ _______ _____ _____    ______ ____
ROOT
ATOM      1  C   LIG    1       25.884 -18.659   4.341  0.00  0.00    +0.170 C 
ENDROOT
BRANCH   1   2
ATOM      2  C   LIG    1       24.570 -19.418   4.503  0.00  0.00    +0.001 A 
ATOM      3  C   LIG    1       24.306 -20.278   5.584  0.00  0.00    +0.048 A 
ATOM      4 CL   LIG    1       25.450 -20.533   6.852  0.00  0.00    -0.083 Cl
ATOM      5  C   LIG    1       23.083 -20.952   5.680  0.00  0.00    +0.040 A 
ATOM      6  C   LIG    1       22.108 -20.764   4.705  0.00  0.00    +0.042 A 
ATOM      7 CL   LIG    1       20.595 -21.572   4.833  0.00  0.00    -0.084 Cl
ATOM      8  C   LIG    1       22.344 -19.917   3.630  0.00  0.00    +0.020 A 
ATOM      9  C   LIG    1       23.567 -19.257   3.528  0.00  0.00    +0.009 A 
ENDBRANCH   1   2
BRANCH   1  10
ATOM     10  O   LIG    1       25.847 -17.759   3.199  0.00  0.00    -0.365 OA
BRANCH  10  11
ATOM     11  C   LIG    1       26.678 -16.601   3.423  0.00  0.00    +0.197 C 
BRANCH  11  17
ATOM     12 CL   LIG    1       23.673 -11.583   4.934  0.00  0.00    -0.084 Cl
ATOM     13  C   LIG    1       24.524 -12.979   4.396  0.00  0.00    +0.042 A 
ATOM     14  C   LIG    1       25.905 -12.931   4.244  0.00  0.00    +0.040 A 
ATOM     15  C   LIG    1       26.597 -14.088   3.864  0.00  0.00    +0.048 A 
ATOM     16 CL   LIG    1       28.318 -13.960   3.735  0.00  0.00    -0.083 Cl
ATOM     17  C   LIG    1       25.919 -15.304   3.628  0.00  0.00    -0.004 A 
ATOM     18  C   LIG    1       24.523 -15.313   3.761  0.00  0.00    +0.009 A 
ATOM     19  C   LIG    1       23.830 -14.159   4.142  0.00  0.00    +0.020 A 
ENDBRANCH  11  17
ENDBRANCH  10  11
ENDBRANCH   1  10
BRANCH   1  20
ATOM     20  C   LIG    1       27.104 -19.609   4.268  0.00  0.00    +0.159 C 
BRANCH  20  21
ATOM     21  N   LIG    1       28.080 -19.487   5.336  0.00  0.00    -0.334 N 
ATOM     22  C   LIG    1       28.636 -18.325   5.788  0.00  0.00    +0.199 A 
ATOM     23  N   LIG    1       29.475 -18.553   6.783  0.00  0.00    -0.244 NA
ATOM     24  C   LIG    1       29.436 -19.905   6.985  0.00  0.00    +0.130 A 
ATOM     25  C   LIG    1       28.577 -20.511   6.093  0.00  0.00    +0.107 A 
ENDBRANCH  20  21
ENDBRANCH   1  20
TORSDOF 6
ENDMDL
MODEL 2
REMARK VINA RESULT:      -2.8      1.419      1.587
REMARK  Name = *****
REMARK                            x       y       z     vdW  Elec       q    Type
REMARK                         _______ _______ _______ _____ _____    ______ ____
ROOT
ATOM      1  C   LIG    1       26.149 -17.925   4.003  0.00  0.00    +0.170 C 
ENDROOT
BRANCH   1   2
ATOM      2  C   LIG    1       24.905 -18.793   4.166  0.00  0.00    +0.001 A 
ATOM      3  C   LIG    1       23.620 -18.264   4.382  0.00  0.00    +0.048 A 
ATOM      4 CL   LIG    1       23.331 -16.563   4.457  0.00  0.00    -0.083 Cl
ATOM      5  C   LIG    1       22.513 -19.108   4.526  0.00  0.00    +0.040 A 
ATOM      6  C   LIG    1       22.676 -20.488   4.443  0.00  0.00    +0.042 A 
ATOM      7 CL   LIG    1       21.315 -21.528   4.597  0.00  0.00    -0.084 Cl
ATOM      8  C   LIG    1       23.935 -21.034   4.227  0.00  0.00    +0.020 A 
ATOM      9  C   LIG    1       25.038 -20.193   4.097  0.00  0.00    +0.009 A 
ENDBRANCH   1   2
BRANCH   1  10
ATOM     10  O   LIG    1       26.023 -17.010   2.879  0.00  0.00    -0.365 OA
BRANCH  10  11
ATOM     11  C   LIG    1       26.787 -15.807   3.101  0.00  0.00    +0.197 C 
BRANCH  11  17
ATOM     12 CL   LIG    1       23.117 -11.447   5.105  0.00  0.00    -0.084 Cl
ATOM     13  C   LIG    1       24.221 -12.610   4.480  0.00  0.00    +0.042 A 
ATOM     14  C   LIG    1       25.398 -12.884   5.167  0.00  0.00    +0.040 A 
ATOM     15  C   LIG    1       26.263 -13.874   4.685  0.00  0.00    +0.048 A 
ATOM     16 CL   LIG    1       27.688 -14.187   5.616  0.00  0.00    -0.083 Cl
ATOM     17  C   LIG    1       25.965 -14.599   3.510  0.00  0.00    -0.004 A 
ATOM     18  C   LIG    1       24.785 -14.278   2.822  0.00  0.00    +0.009 A 
ATOM     19  C   LIG    1       23.919 -13.291   3.304  0.00  0.00    +0.020 A 
ENDBRANCH  11  17
ENDBRANCH  10  11
ENDBRANCH   1  10
BRANCH   1  20
ATOM     20  C   LIG    1       27.442 -18.770   3.897  0.00  0.00    +0.159 C 
BRANCH  20  21
ATOM     21  N   LIG    1       28.053 -19.173   5.152  0.00  0.00    -0.334 N 
ATOM     22  C   LIG    1       29.182 -18.640   5.703  0.00  0.00    +0.199 A 
ATOM     23  N   LIG    1       29.464 -19.214   6.859  0.00  0.00    -0.244 NA
ATOM     24  C   LIG    1       28.468 -20.129   7.061  0.00  0.00    +0.130 A 
ATOM     25  C   LIG    1       27.577 -20.126   6.009  0.00  0.00    +0.107 A 
ENDBRANCH  20  21
ENDBRANCH   1  20
TORSDOF 6
ENDMDL
MODEL 3
REMARK VINA RESULT:      -1.4      1.686      2.544
REMARK  Name = *****
REMARK                            x       y       z     vdW  Elec       q    Type
REMARK                         _______ _______ _______ _____ _____    ______ ____
ROOT
ATOM      1  C   LIG    1       25.656 -17.837   3.790  0.00  0.00    +0.170 C 
ENDROOT
BRANCH   1   2
ATOM      2  C   LIG    1       24.447 -18.740   4.011  0.00  0.00    +0.001 A 
ATOM      3  C   LIG    1       23.190 -18.258   4.420  0.00  0.00    +0.048 A 
ATOM      4 CL   LIG    1       22.896 -16.577   4.684  0.00  0.00    -0.083 Cl
ATOM      5  C   LIG    1       22.114 -19.133   4.610  0.00  0.00    +0.040 A 
ATOM      6  C   LIG    1       22.280 -20.496   4.382  0.00  0.00    +0.042 A 
ATOM      7 CL   LIG    1       20.955 -21.572   4.592  0.00  0.00    -0.084 Cl
ATOM      8  C   LIG    1       23.510 -20.996   3.975  0.00  0.00    +0.020 A 
ATOM      9  C   LIG    1       24.584 -20.125   3.799  0.00  0.00    +0.009 A 
ENDBRANCH   1   2
BRANCH   1  10
ATOM     10  O   LIG    1       25.487 -16.988   2.620  0.00  0.00    -0.365 OA
BRANCH  10  11
ATOM     11  C   LIG    1       25.023 -15.674   2.995  0.00  0.00    +0.197 C 
BRANCH  11  17
ATOM     12 CL   LIG    1       29.071 -11.802   5.255  0.00  0.00    -0.084 Cl
ATOM     13  C   LIG    1       27.932 -12.968   4.704  0.00  0.00    +0.042 A 
ATOM     14  C   LIG    1       26.601 -12.871   5.091  0.00  0.00    +0.040 A 
ATOM     15  C   LIG    1       25.669 -13.788   4.590  0.00  0.00    +0.048 A 
ATOM     16 CL   LIG    1       24.024 -13.579   5.085  0.00  0.00    -0.083 Cl
ATOM     17  C   LIG    1       26.055 -14.814   3.700  0.00  0.00    -0.004 A 
ATOM     18  C   LIG    1       27.411 -14.904   3.351  0.00  0.00    +0.009 A 
ATOM     19  C   LIG    1       28.343 -13.988   3.850  0.00  0.00    +0.020 A 
ENDBRANCH  11  17
ENDBRANCH  10  11
ENDBRANCH   1  10
BRANCH   1  20
ATOM     20  C   LIG    1       26.979 -18.639   3.714  0.00  0.00    +0.159 C 
BRANCH  20  21
ATOM     21  N   LIG    1       27.518 -19.111   4.977  0.00  0.00    -0.334 N 
ATOM     22  C   LIG    1       26.930 -20.016   5.813  0.00  0.00    +0.199 A 
ATOM     23  N   LIG    1       27.687 -20.248   6.872  0.00  0.00    -0.244 NA
ATOM     24  C   LIG    1       28.804 -19.480   6.693  0.00  0.00    +0.130 A 
ATOM     25  C   LIG    1       28.722 -18.758   5.521  0.00  0.00    +0.107 A 
ENDBRANCH  20  21
ENDBRANCH   1  20
TORSDOF 6
ENDMDL
