MODEL 1
REMARK VINA RESULT:      -5.6      0.000      0.000
REMARK  Name = *****
REMARK                            x       y       z     vdW  Elec       q    Type
REMARK                         _______ _______ _______ _____ _____    ______ ____
ROOT
ATOM      1  O   LIG    1       30.828 -17.812   8.110  0.00  0.00    -0.284 OA
ENDROOT
BRANCH   1   3
ATOM      2  O   LIG    1       30.484 -16.375  10.276  0.00  0.00    -0.228 OA
ATOM      3  P   LIG    1       31.451 -17.078   9.388  0.00  0.00    +0.472 P 
BRANCH   3   4
ATOM      4  O   LIG    1       32.318 -18.177  10.150  0.00  0.00    -0.303 OA
ATOM      5  H   LIG    1       31.757 -18.915  10.449  0.00  0.00    +0.222 HD
ENDBRANCH   3   4
BRANCH   3   6
ATOM      6  O   LIG    1       32.562 -16.098   8.802  0.00  0.00    -0.303 OA
ATOM      7  H   LIG    1       32.421 -15.950   7.848  0.00  0.00    +0.222 HD
ENDBRANCH   3   6
ENDBRANCH   1   3
BRANCH   1   8
ATOM      8  C   LIG    1       29.948 -18.911   8.332  0.00  0.00    +0.205 C 
BRANCH   8   9
ATOM      9  C   LIG    1       30.577 -20.181   7.762  0.00  0.00    +0.166 C 
BRANCH   9  10
ATOM     10  O   LIG    1       31.794 -19.855   7.068  0.00  0.00    -0.387 OA
ATOM     11  H   LIG    1       32.444 -19.617   7.757  0.00  0.00    +0.210 HD
ENDBRANCH   9  10
BRANCH   9  12
ATOM     12  C   LIG    1       30.920 -21.209   8.846  0.00  0.00    +0.189 C 
BRANCH  12  13
ATOM     13  O   LIG    1       32.242 -20.965   9.327  0.00  0.00    -0.392 OA
ATOM     14  H   LIG    1       32.132 -20.644  10.244  0.00  0.00    +0.209 HD
ENDBRANCH  12  13
ENDBRANCH   9  12
ENDBRANCH   8   9
ENDBRANCH   1   8
TORSDOF 8
ENDMDL
MODEL 2
REMARK VINA RESULT:      -5.6      2.088      4.068
REMARK  Name = *****
REMARK                            x       y       z     vdW  Elec       q    Type
REMARK                         _______ _______ _______ _____ _____    ______ ____
ROOT
ATOM      1  O   LIG    1       30.848 -19.285   9.698  0.00  0.00    -0.284 OA
ENDROOT
BRANCH   1   3
ATOM      2  O   LIG    1       32.198 -21.518   9.436  0.00  0.00    -0.228 OA
ATOM      3  P   LIG    1       31.182 -20.600   8.850  0.00  0.00    +0.472 P 
BRANCH   3   4
ATOM      4  O   LIG    1       29.784 -21.310   8.567  0.00  0.00    -0.303 OA
ATOM      5  H   LIG    1       29.108 -21.010   9.199  0.00  0.00    +0.222 HD
ENDBRANCH   3   4
BRANCH   3   6
ATOM      6  O   LIG    1       31.605 -20.067   7.409  0.00  0.00    -0.303 OA
ATOM      7  H   LIG    1       32.511 -20.353   7.190  0.00  0.00    +0.222 HD
ENDBRANCH   3   6
ENDBRANCH   1   3
BRANCH   1   8
ATOM      8  C   LIG    1       30.049 -18.278   9.085  0.00  0.00    +0.205 C 
BRANCH   8   9
ATOM      9  C   LIG    1       30.443 -16.912   9.645  0.00  0.00    +0.166 C 
BRANCH   9  10
ATOM     10  O   LIG    1       30.143 -16.856  11.051  0.00  0.00    -0.387 OA
ATOM     11  H   LIG    1       29.532 -16.103  11.168  0.00  0.00    +0.210 HD
ENDBRANCH   9  10
BRANCH   9  12
ATOM     12  C   LIG    1       31.936 -16.612   9.475  0.00  0.00    +0.189 C 
BRANCH  12  13
ATOM     13  O   LIG    1       32.403 -17.212   8.266  0.00  0.00    -0.392 OA
ATOM     14  H   LIG    1       31.601 -17.376   7.729  0.00  0.00    +0.209 HD
ENDBRANCH  12  13
ENDBRANCH   9  12
ENDBRANCH   8   9
ENDBRANCH   1   8
TORSDOF 8
ENDMDL
MODEL 3
REMARK VINA RESULT:      -5.6      2.259      4.163
REMARK  Name = *****
REMARK                            x       y       z     vdW  Elec       q    Type
REMARK                         _______ _______ _______ _____ _____    ______ ____
ROOT
ATOM      1  O   LIG    1       30.849 -19.174   9.606  0.00  0.00    -0.284 OA
ENDROOT
BRANCH   1   3
ATOM      2  O   LIG    1       29.840 -21.379   8.606  0.00  0.00    -0.228 OA
ATOM      3  P   LIG    1       31.033 -20.495   8.722  0.00  0.00    +0.472 P 
BRANCH   3   4
ATOM      4  O   LIG    1       31.592 -20.009   7.310  0.00  0.00    -0.303 OA
ATOM      5  H   LIG    1       32.088 -20.722   6.869  0.00  0.00    +0.222 HD
ENDBRANCH   3   4
BRANCH   3   6
ATOM      6  O   LIG    1       32.287 -21.247   9.356  0.00  0.00    -0.303 OA
ATOM      7  H   LIG    1       31.993 -21.948   9.967  0.00  0.00    +0.222 HD
ENDBRANCH   3   6
ENDBRANCH   1   3
BRANCH   1   8
ATOM      8  C   LIG    1       31.010 -17.913   8.964  0.00  0.00    +0.205 C 
BRANCH   8   9
ATOM      9  C   LIG    1       32.128 -17.136   9.659  0.00  0.00    +0.166 C 
BRANCH   9  10
ATOM     10  O   LIG    1       32.630 -16.113   8.782  0.00  0.00    -0.387 OA
ATOM     11  H   LIG    1       33.266 -15.591   9.308  0.00  0.00    +0.210 HD
ENDBRANCH   9  10
BRANCH   9  12
ATOM     12  C   LIG    1       31.661 -16.455  10.950  0.00  0.00    +0.189 C 
BRANCH  12  13
ATOM     13  O   LIG    1       30.235 -16.502  11.018  0.00  0.00    -0.392 OA
ATOM     14  H   LIG    1       29.955 -17.048  10.257  0.00  0.00    +0.209 HD
ENDBRANCH  12  13
ENDBRANCH   9  12
ENDBRANCH   8   9
ENDBRANCH   1   8
TORSDOF 8
ENDMDL
MODEL 4
REMARK VINA RESULT:      -5.6      2.371      4.423
REMARK  Name = *****
REMARK                            x       y       z     vdW  Elec       q    Type
REMARK                         _______ _______ _______ _____ _____    ______ ____
ROOT
ATOM      1  O   LIG    1       31.990 -20.179   9.246  0.00  0.00    -0.284 OA
ENDROOT
BRANCH   1   3
ATOM      2  O   LIG    1       30.653 -22.148  10.348  0.00  0.00    -0.228 OA
ATOM      3  P   LIG    1       31.248 -21.590   9.102  0.00  0.00    +0.472 P 
BRANCH   3   4
ATOM      4  O   LIG    1       30.188 -21.414   7.925  0.00  0.00    -0.303 OA
ATOM      5  H   LIG    1       30.637 -21.299   7.068  0.00  0.00    +0.222 HD
ENDBRANCH   3   4
BRANCH   3   6
ATOM      6  O   LIG    1       32.332 -22.564   8.457  0.00  0.00    -0.303 OA
ATOM      7  H   LIG    1       33.044 -22.050   8.032  0.00  0.00    +0.222 HD
ENDBRANCH   3   6
ENDBRANCH   1   3
BRANCH   1   8
ATOM      8  C   LIG    1       31.416 -19.052   8.590  0.00  0.00    +0.205 C 
BRANCH   8   9
ATOM      9  C   LIG    1       31.156 -17.951   9.617  0.00  0.00    +0.166 C 
BRANCH   9  10
ATOM     10  O   LIG    1       30.770 -18.536  10.873  0.00  0.00    -0.387 OA
ATOM     11  H   LIG    1       31.596 -18.837  11.299  0.00  0.00    +0.210 HD
ENDBRANCH   9  10
BRANCH   9  12
ATOM     12  C   LIG    1       32.388 -17.076   9.870  0.00  0.00    +0.189 C 
BRANCH  12  13
ATOM     13  O   LIG    1       32.590 -16.212   8.751  0.00  0.00    -0.392 OA
ATOM     14  H   LIG    1       31.891 -16.449   8.109  0.00  0.00    +0.209 HD
ENDBRANCH  12  13
ENDBRANCH   9  12
ENDBRANCH   8   9
ENDBRANCH   1   8
TORSDOF 8
ENDMDL
MODEL 5
REMARK VINA RESULT:      -5.6      0.893      1.675
REMARK  Name = *****
REMARK                            x       y       z     vdW  Elec       q    Type
REMARK                         _______ _______ _______ _____ _____    ______ ____
ROOT
ATOM      1  O   LIG    1       31.033 -17.992   7.823  0.00  0.00    -0.284 OA
ENDROOT
BRANCH   1   3
ATOM      2  O   LIG    1       32.174 -18.290  10.166  0.00  0.00    -0.228 OA
ATOM      3  P   LIG    1       31.559 -17.348   9.190  0.00  0.00    +0.472 P 
BRANCH   3   4
ATOM      4  O   LIG    1       32.530 -16.155   8.771  0.00  0.00    -0.303 OA
ATOM      5  H   LIG    1       32.476 -15.983   7.815  0.00  0.00    +0.222 HD
ENDBRANCH   3   4
BRANCH   3   6
ATOM      6  O   LIG    1       30.301 -16.579   9.797  0.00  0.00    -0.303 OA
ATOM      7  H   LIG    1       29.470 -16.969   9.467  0.00  0.00    +0.222 HD
ENDBRANCH   3   6
ENDBRANCH   1   3
BRANCH   1   8
ATOM      8  C   LIG    1       31.433 -19.324   7.514  0.00  0.00    +0.205 C 
BRANCH   8   9
ATOM      9  C   LIG    1       30.379 -20.300   8.035  0.00  0.00    +0.166 C 
BRANCH   9  10
ATOM     10  O   LIG    1       29.657 -20.872   6.931  0.00  0.00    -0.387 OA
ATOM     11  H   LIG    1       29.769 -21.840   7.006  0.00  0.00    +0.210 HD
ENDBRANCH   9  10
BRANCH   9  12
ATOM     12  C   LIG    1       30.987 -21.451   8.843  0.00  0.00    +0.189 C 
BRANCH  12  13
ATOM     13  O   LIG    1       32.260 -21.050   9.351  0.00  0.00    -0.392 OA
ATOM     14  H   LIG    1       32.862 -21.799   9.166  0.00  0.00    +0.209 HD
ENDBRANCH  12  13
ENDBRANCH   9  12
ENDBRANCH   8   9
ENDBRANCH   1   8
TORSDOF 8
ENDMDL
MODEL 6
REMARK VINA RESULT:      -5.3      0.846      1.605
REMARK  Name = *****
REMARK                            x       y       z     vdW  Elec       q    Type
REMARK                         _______ _______ _______ _____ _____    ______ ____
ROOT
ATOM      1  O   LIG    1       31.815 -18.536   9.716  0.00  0.00    -0.284 OA
ENDROOT
BRANCH   1   3
ATOM      2  O   LIG    1       33.025 -16.771  11.232  0.00  0.00    -0.228 OA
ATOM      3  P   LIG    1       32.091 -17.006  10.096  0.00  0.00    +0.472 P 
BRANCH   3   4
ATOM      4  O   LIG    1       32.551 -16.292   8.747  0.00  0.00    -0.303 OA
ATOM      5  H   LIG    1       32.413 -15.329   8.800  0.00  0.00    +0.222 HD
ENDBRANCH   3   4
BRANCH   3   6
ATOM      6  O   LIG    1       30.650 -16.376  10.353  0.00  0.00    -0.303 OA
ATOM      7  H   LIG    1       29.982 -17.080  10.457  0.00  0.00    +0.222 HD
ENDBRANCH   3   6
ENDBRANCH   1   3
BRANCH   1   8
ATOM      8  C   LIG    1       30.558 -18.864   9.133  0.00  0.00    +0.205 C 
BRANCH   8   9
ATOM      9  C   LIG    1       30.757 -19.973   8.100  0.00  0.00    +0.166 C 
BRANCH   9  10
ATOM     10  O   LIG    1       31.904 -19.679   7.284  0.00  0.00    -0.387 OA
ATOM     11  H   LIG    1       32.670 -19.654   7.890  0.00  0.00    +0.210 HD
ENDBRANCH   9  10
BRANCH   9  12
ATOM     12  C   LIG    1       30.980 -21.346   8.742  0.00  0.00    +0.189 C 
BRANCH  12  13
ATOM     13  O   LIG    1       32.287 -21.391   9.317  0.00  0.00    -0.392 OA
ATOM     14  H   LIG    1       32.819 -20.749   8.806  0.00  0.00    +0.209 HD
ENDBRANCH  12  13
ENDBRANCH   9  12
ENDBRANCH   8   9
ENDBRANCH   1   8
TORSDOF 8
ENDMDL
MODEL 7
REMARK VINA RESULT:      -5.2      2.767      4.459
REMARK  Name = *****
REMARK                            x       y       z     vdW  Elec       q    Type
REMARK                         _______ _______ _______ _____ _____    ______ ____
ROOT
ATOM      1  O   LIG    1       32.144 -18.312  10.057  0.00  0.00    -0.284 OA
ENDROOT
BRANCH   1   3
ATOM      2  O   LIG    1       29.899 -19.152   8.994  0.00  0.00    -0.228 OA
ATOM      3  P   LIG    1       31.387 -19.181   8.946  0.00  0.00    +0.472 P 
BRANCH   3   4
ATOM      4  O   LIG    1       31.979 -18.716   7.541  0.00  0.00    -0.303 OA
ATOM      5  H   LIG    1       32.409 -17.845   7.617  0.00  0.00    +0.222 HD
ENDBRANCH   3   4
BRANCH   3   6
ATOM      6  O   LIG    1       31.972 -20.655   9.103  0.00  0.00    -0.303 OA
ATOM      7  H   LIG    1       31.792 -21.182   8.303  0.00  0.00    +0.222 HD
ENDBRANCH   3   6
ENDBRANCH   1   3
BRANCH   1   8
ATOM      8  C   LIG    1       32.210 -16.902   9.872  0.00  0.00    +0.205 C 
BRANCH   8   9
ATOM      9  C   LIG    1       31.413 -16.212  10.979  0.00  0.00    +0.166 C 
BRANCH   9  10
ATOM     10  O   LIG    1       30.078 -16.746  11.024  0.00  0.00    -0.387 OA
ATOM     11  H   LIG    1       30.051 -17.347  11.793  0.00  0.00    +0.210 HD
ENDBRANCH   9  10
BRANCH   9  12
ATOM     12  C   LIG    1       32.038 -16.404  12.364  0.00  0.00    +0.189 C 
BRANCH  12  13
ATOM     13  O   LIG    1       31.567 -15.379  13.241  0.00  0.00    -0.392 OA
ATOM     14  H   LIG    1       31.324 -14.630  12.660  0.00  0.00    +0.209 HD
ENDBRANCH  12  13
ENDBRANCH   9  12
ENDBRANCH   8   9
ENDBRANCH   1   8
TORSDOF 8
ENDMDL
MODEL 8
REMARK VINA RESULT:      -5.1      2.467      3.773
REMARK  Name = *****
REMARK                            x       y       z     vdW  Elec       q    Type
REMARK                         _______ _______ _______ _____ _____    ______ ____
ROOT
ATOM      1  O   LIG    1       31.631 -17.657   8.217  0.00  0.00    -0.284 OA
ENDROOT
BRANCH   1   3
ATOM      2  O   LIG    1       32.164 -19.986   9.298  0.00  0.00    -0.228 OA
ATOM      3  P   LIG    1       31.326 -19.223   8.332  0.00  0.00    +0.472 P 
BRANCH   3   4
ATOM      4  O   LIG    1       29.763 -19.350   8.622  0.00  0.00    -0.303 OA
ATOM      5  H   LIG    1       29.286 -19.650   7.827  0.00  0.00    +0.222 HD
ENDBRANCH   3   4
BRANCH   3   6
ATOM      6  O   LIG    1       31.453 -19.780   6.844  0.00  0.00    -0.303 OA
ATOM      7  H   LIG    1       32.244 -20.344   6.756  0.00  0.00    +0.222 HD
ENDBRANCH   3   6
ENDBRANCH   1   3
BRANCH   1   8
ATOM      8  C   LIG    1       32.339 -17.034   9.284  0.00  0.00    +0.205 C 
BRANCH   8   9
ATOM      9  C   LIG    1       31.337 -16.430  10.268  0.00  0.00    +0.166 C 
BRANCH   9  10
ATOM     10  O   LIG    1       30.009 -16.511   9.723  0.00  0.00    -0.387 OA
ATOM     11  H   LIG    1       29.442 -16.858  10.439  0.00  0.00    +0.210 HD
ENDBRANCH   9  10
BRANCH   9  12
ATOM     12  C   LIG    1       31.331 -17.149  11.621  0.00  0.00    +0.189 C 
BRANCH  12  13
ATOM     13  O   LIG    1       30.709 -18.426  11.474  0.00  0.00    -0.392 OA
ATOM     14  H   LIG    1       30.211 -18.570  12.304  0.00  0.00    +0.209 HD
ENDBRANCH  12  13
ENDBRANCH   9  12
ENDBRANCH   8   9
ENDBRANCH   1   8
TORSDOF 8
ENDMDL
MODEL 9
REMARK VINA RESULT:      -5.1      1.619      2.759
REMARK  Name = *****
REMARK                            x       y       z     vdW  Elec       q    Type
REMARK                         _______ _______ _______ _____ _____    ______ ____
ROOT
ATOM      1  O   LIG    1       30.845 -17.833   7.886  0.00  0.00    -0.284 OA
ENDROOT
BRANCH   1   3
ATOM      2  O   LIG    1       32.160 -18.374  10.089  0.00  0.00    -0.228 OA
ATOM      3  P   LIG    1       31.544 -17.324   9.232  0.00  0.00    +0.472 P 
BRANCH   3   4
ATOM      4  O   LIG    1       32.573 -16.188   8.794  0.00  0.00    -0.303 OA
ATOM      5  H   LIG    1       32.277 -15.314   9.105  0.00  0.00    +0.222 HD
ENDBRANCH   3   4
BRANCH   3   6
ATOM      6  O   LIG    1       30.416 -16.499   9.998  0.00  0.00    -0.303 OA
ATOM      7  H   LIG    1       30.478 -15.550   9.781  0.00  0.00    +0.222 HD
ENDBRANCH   3   6
ENDBRANCH   1   3
BRANCH   1   8
ATOM      8  C   LIG    1       31.210 -19.117   7.387  0.00  0.00    +0.205 C 
BRANCH   8   9
ATOM      9  C   LIG    1       29.945 -19.892   7.022  0.00  0.00    +0.166 C 
BRANCH   9  10
ATOM     10  O   LIG    1       29.159 -20.130   8.203  0.00  0.00    -0.387 OA
ATOM     11  H   LIG    1       28.685 -19.296   8.386  0.00  0.00    +0.210 HD
ENDBRANCH   9  10
BRANCH   9  12
ATOM     12  C   LIG    1       29.062 -19.143   6.018  0.00  0.00    +0.189 C 
BRANCH  12  13
ATOM     13  O   LIG    1       29.852 -18.174   5.326  0.00  0.00    -0.392 OA
ATOM     14  H   LIG    1       29.294 -17.864   4.585  0.00  0.00    +0.209 HD
ENDBRANCH  12  13
ENDBRANCH   9  12
ENDBRANCH   8   9
ENDBRANCH   1   8
TORSDOF 8
ENDMDL
