MODEL 1
REMARK VINA RESULT:     -10.9      0.000      0.000
REMARK  Name = *****
REMARK                            x       y       z     vdW  Elec       q    Type
REMARK                         _______ _______ _______ _____ _____    ______ ____
ROOT
ATOM      1  C   LIG    1       28.791 -20.110   7.709  0.00  0.00    +0.183 C 
ATOM      2  C   LIG    1       27.442 -20.870   7.679  0.00  0.00    +0.008 C 
ATOM      3  C   LIG    1       27.637 -22.328   8.143  0.00  0.00    +0.015 C 
ATOM      4  C   LIG    1       27.017 -20.839   6.176  0.00  0.00    +0.002 C 
ATOM      5  C   LIG    1       25.678 -20.104   5.951  0.00  0.00    -0.003 C 
ATOM      6  C   LIG    1       24.546 -20.678   6.851  0.00  0.00    +0.002 C 
ATOM      7  C   LIG    1       24.970 -20.661   8.347  0.00  0.00    +0.005 C 
ATOM      8  C   LIG    1       23.843 -22.009   6.292  0.00  0.00    -0.007 C 
ATOM      9  C   LIG    1       22.329 -21.713   6.137  0.00  0.00    +0.016 C 
ATOM     10  C   LIG    1       24.398 -22.376   4.914  0.00  0.00    -0.062 C 
ATOM     11  C   LIG    1       24.730 -23.623   4.540  0.00  0.00    +0.024 C 
ATOM     12  C   LIG    1       24.428 -24.803   5.381  0.00  0.00    +0.059 C 
ATOM     13  N   LIG    1       24.870 -25.949   4.958  0.00  0.00    -0.185 NA
ATOM     14  C   LIG    1       23.604 -24.583   6.622  0.00  0.00    +0.058 C 
ATOM     15  C   LIG    1       24.576 -21.258   3.922  0.00  0.00    +0.031 C 
ATOM     16  C   LIG    1       23.956 -23.235   7.243  0.00  0.00    +0.017 C 
ATOM     17  C   LIG    1       25.245 -20.013   4.484  0.00  0.00    +0.008 C 
ATOM     18  C   LIG    1       28.197 -20.188   5.424  0.00  0.00    +0.008 C 
ATOM     19  C   LIG    1       26.406 -20.173   8.588  0.00  0.00    +0.011 C 
ATOM     20  C   LIG    1       29.394 -20.375   6.335  0.00  0.00    +0.045 C 
ENDROOT
BRANCH  13  21
ATOM     21  N   LIG    1       24.566 -27.085   5.634  0.00  0.00    -0.204 N 
ATOM     22  H   LIG    1       23.722 -27.178   6.191  0.00  0.00    +0.177 HD
ATOM     23  C   LIG    1       25.473 -28.139   5.587  0.00  0.00    +0.273 C 
ATOM     24  O   LIG    1       26.555 -28.029   5.007  0.00  0.00    -0.270 OA
BRANCH  23  25
ATOM     25  C   LIG    1       25.011 -29.410   6.413  0.00  0.00    +0.194 C 
BRANCH  25  26
ATOM     26  C   LIG    1       25.273 -29.218   7.917  0.00  0.00    -0.003 A 
ATOM     27  C   LIG    1       24.489 -29.869   8.887  0.00  0.00    +0.007 A 
ATOM     28  C   LIG    1       24.763 -29.736  10.252  0.00  0.00    +0.000 A 
ATOM     29  C   LIG    1       25.816 -28.932  10.680  0.00  0.00    +0.000 A 
ATOM     30  C   LIG    1       26.591 -28.255   9.744  0.00  0.00    +0.000 A 
ATOM     31  C   LIG    1       26.320 -28.393   8.377  0.00  0.00    +0.007 A 
ENDBRANCH  25  26
BRANCH  25  32
ATOM     32  C   LIG    1       25.581 -30.734   5.857  0.00  0.00    -0.003 A 
ATOM     33  C   LIG    1       25.333 -31.146   4.531  0.00  0.00    +0.007 A 
ATOM     34  C   LIG    1       25.920 -32.309   4.010  0.00  0.00    +0.000 A 
ATOM     35  C   LIG    1       26.762 -33.090   4.798  0.00  0.00    +0.000 A 
ATOM     36  C   LIG    1       26.982 -32.732   6.119  0.00  0.00    +0.000 A 
ATOM     37  C   LIG    1       26.376 -31.590   6.643  0.00  0.00    +0.007 A 
ENDBRANCH  25  32
BRANCH  25  38
ATOM     38  O   LIG    1       23.564 -29.426   6.238  0.00  0.00    -0.371 OA
ATOM     39  H   LIG    1       23.252 -30.200   6.742  0.00  0.00    +0.212 HD
ENDBRANCH  25  38
ENDBRANCH  23  25
ENDBRANCH  13  21
BRANCH   1  40
ATOM     40  O   LIG    1       29.641 -20.576   8.762  0.00  0.00    -0.461 OA
BRANCH  40  41
ATOM     41  C   LIG    1       30.786 -19.857   8.934  0.00  0.00    +0.307 C 
ATOM     42  O   LIG    1       31.895 -20.353   9.125  0.00  0.00    -0.251 OA
BRANCH  41  43
ATOM     43  C   LIG    1       30.497 -18.391   8.852  0.00  0.00    +0.120 C 
BRANCH  43  44
ATOM     44  C   LIG    1       31.787 -17.617   8.585  0.00  0.00    +0.011 C 
BRANCH  44  45
ATOM     45  C   LIG    1       32.046 -16.564   9.654  0.00  0.00    +0.000 C 
BRANCH  45  46
ATOM     46  C   LIG    1       30.983 -16.627  10.751  0.00  0.00    -0.000 C 
BRANCH  46  48
ATOM     47  C   LIG    1       33.022 -16.502  12.261  0.00  0.00    +0.004 C 
ATOM     48  C   LIG    1       31.531 -16.233  12.121  0.00  0.00    -0.003 C 
ENDBRANCH  46  48
ENDBRANCH  45  46
ENDBRANCH  44  45
ENDBRANCH  43  44
ENDBRANCH  41  43
ENDBRANCH  40  41
ENDBRANCH   1  40
TORSDOF 12
ENDMDL
MODEL 2
REMARK VINA RESULT:      -8.8      1.222      3.066
REMARK  Name = *****
REMARK                            x       y       z     vdW  Elec       q    Type
REMARK                         _______ _______ _______ _____ _____    ______ ____
ROOT
ATOM      1  C   LIG    1       28.483 -19.714   7.365  0.00  0.00    +0.183 C 
ATOM      2  C   LIG    1       27.423 -20.834   7.523  0.00  0.00    +0.008 C 
ATOM      3  C   LIG    1       28.102 -22.167   7.897  0.00  0.00    +0.015 C 
ATOM      4  C   LIG    1       26.768 -20.944   6.109  0.00  0.00    +0.002 C 
ATOM      5  C   LIG    1       25.257 -20.631   6.127  0.00  0.00    -0.003 C 
ATOM      6  C   LIG    1       24.500 -21.498   7.175  0.00  0.00    +0.002 C 
ATOM      7  C   LIG    1       25.139 -21.341   8.584  0.00  0.00    +0.005 C 
ATOM      8  C   LIG    1       24.128 -22.982   6.687  0.00  0.00    -0.007 C 
ATOM      9  C   LIG    1       22.589 -23.139   6.786  0.00  0.00    +0.016 C 
ATOM     10  C   LIG    1       24.533 -23.188   5.226  0.00  0.00    -0.062 C 
ATOM     11  C   LIG    1       25.144 -24.290   4.759  0.00  0.00    +0.024 C 
ATOM     12  C   LIG    1       25.335 -25.497   5.594  0.00  0.00    +0.059 C 
ATOM     13  N   LIG    1       26.013 -26.471   5.066  0.00  0.00    -0.185 NA
ATOM     14  C   LIG    1       24.696 -25.511   6.958  0.00  0.00    +0.058 C 
ATOM     15  C   LIG    1       24.218 -22.079   4.260  0.00  0.00    +0.031 C 
ATOM     16  C   LIG    1       24.742 -24.111   7.563  0.00  0.00    +0.017 C 
ATOM     17  C   LIG    1       24.583 -20.687   4.752  0.00  0.00    +0.008 C 
ATOM     18  C   LIG    1       27.573 -19.988   5.203  0.00  0.00    +0.008 C 
ATOM     19  C   LIG    1       26.393 -20.455   8.610  0.00  0.00    +0.011 C 
ATOM     20  C   LIG    1       28.905 -19.810   5.905  0.00  0.00    +0.045 C 
ENDROOT
BRANCH  13  21
ATOM     21  N   LIG    1       26.163 -27.639   5.740  0.00  0.00    -0.204 N 
ATOM     22  H   LIG    1       27.001 -27.858   6.270  0.00  0.00    +0.177 HD
ATOM     23  C   LIG    1       25.142 -28.579   5.656  0.00  0.00    +0.273 C 
ATOM     24  O   LIG    1       24.156 -28.395   4.940  0.00  0.00    -0.270 OA
BRANCH  23  25
ATOM     25  C   LIG    1       25.428 -29.901   6.481  0.00  0.00    +0.194 C 
BRANCH  25  26
ATOM     26  C   LIG    1       24.884 -31.140   5.748  0.00  0.00    -0.003 A 
ATOM     27  C   LIG    1       25.576 -31.713   4.665  0.00  0.00    +0.007 A 
ATOM     28  C   LIG    1       25.107 -32.871   4.035  0.00  0.00    +0.000 A 
ATOM     29  C   LIG    1       23.925 -33.471   4.461  0.00  0.00    +0.000 A 
ATOM     30  C   LIG    1       23.207 -32.909   5.511  0.00  0.00    +0.000 A 
ATOM     31  C   LIG    1       23.679 -31.754   6.146  0.00  0.00    +0.007 A 
ENDBRANCH  25  26
BRANCH  25  32
ATOM     32  C   LIG    1       24.966 -29.810   7.953  0.00  0.00    -0.003 A 
ATOM     33  C   LIG    1       23.661 -30.178   8.342  0.00  0.00    +0.007 A 
ATOM     34  C   LIG    1       23.276 -30.169   9.690  0.00  0.00    +0.000 A 
ATOM     35  C   LIG    1       24.178 -29.789  10.681  0.00  0.00    +0.000 A 
ATOM     36  C   LIG    1       25.451 -29.377  10.320  0.00  0.00    +0.000 A 
ATOM     37  C   LIG    1       25.824 -29.361   8.975  0.00  0.00    +0.007 A 
ENDBRANCH  25  32
BRANCH  25  38
ATOM     38  O   LIG    1       26.881 -30.008   6.465  0.00  0.00    -0.371 OA
ATOM     39  H   LIG    1       27.079 -30.762   5.878  0.00  0.00    +0.212 HD
ENDBRANCH  25  38
ENDBRANCH  23  25
ENDBRANCH  13  21
BRANCH   1  40
ATOM     40  O   LIG    1       29.590 -19.903   8.252  0.00  0.00    -0.461 OA
BRANCH  40  41
ATOM     41  C   LIG    1       30.655 -19.084   8.018  0.00  0.00    +0.307 C 
ATOM     42  O   LIG    1       31.638 -19.398   7.349  0.00  0.00    -0.251 OA
BRANCH  41  43
ATOM     43  C   LIG    1       30.451 -17.761   8.686  0.00  0.00    +0.120 C 
BRANCH  43  44
ATOM     44  C   LIG    1       31.320 -17.667   9.939  0.00  0.00    +0.011 C 
BRANCH  44  45
ATOM     45  C   LIG    1       32.463 -16.676   9.761  0.00  0.00    +0.000 C 
BRANCH  45  46
ATOM     46  C   LIG    1       32.816 -16.006  11.088  0.00  0.00    -0.000 C 
BRANCH  46  48
ATOM     47  C   LIG    1       32.269 -15.861  13.565  0.00  0.00    +0.004 C 
ATOM     48  C   LIG    1       31.807 -16.321  12.191  0.00  0.00    -0.003 C 
ENDBRANCH  46  48
ENDBRANCH  45  46
ENDBRANCH  44  45
ENDBRANCH  43  44
ENDBRANCH  41  43
ENDBRANCH  40  41
ENDBRANCH   1  40
TORSDOF 12
ENDMDL
