MODEL 1
REMARK VINA RESULT:      -7.3      0.000      0.000
REMARK  Name = *****
REMARK                            x       y       z     vdW  Elec       q    Type
REMARK                         _______ _______ _______ _____ _____    ______ ____
ROOT
ATOM      1  C   LIG    1       27.501 -20.895   7.301  0.00  0.00    +0.155 C 
ATOM      2  N   LIG    1       27.862 -20.001   8.465  0.00  0.00    -0.254 NA
ATOM      3  C   LIG    1       29.075 -19.654   8.165  0.00  0.00    +0.153 C 
ATOM      4  N   LIG    1       29.649 -20.094   7.008  0.00  0.00    -0.307 N 
ATOM      5  C   LIG    1       30.643 -19.177   6.487  0.00  0.00    +0.118 C 
ATOM      6  C   LIG    1       31.352 -18.602   7.723  0.00  0.00    +0.096 C 
ATOM      7  S   LIG    1       30.059 -18.516   9.021  0.00  0.00    -0.089 S 
ATOM      8  C   LIG    1       28.566 -20.609   6.199  0.00  0.00    +0.138 C 
ENDROOT
BRANCH   1  12
ATOM      9  C   LIG    1       23.455 -20.414   5.856  0.00  0.00    +0.000 A 
ATOM     10  C   LIG    1       24.525 -20.273   4.975  0.00  0.00    +0.000 A 
ATOM     11  C   LIG    1       25.836 -20.418   5.436  0.00  0.00    +0.006 A 
ATOM     12  C   LIG    1       26.092 -20.702   6.784  0.00  0.00    -0.022 A 
ATOM     13  C   LIG    1       25.004 -20.843   7.661  0.00  0.00    +0.006 A 
ATOM     14  C   LIG    1       23.695 -20.698   7.199  0.00  0.00    +0.000 A 
ENDBRANCH   1  12
TORSDOF 1
ENDMDL
MODEL 2
REMARK VINA RESULT:      -7.0      2.776      4.367
REMARK  Name = *****
REMARK                            x       y       z     vdW  Elec       q    Type
REMARK                         _______ _______ _______ _____ _____    ______ ____
ROOT
ATOM      1  C   LIG    1       31.113 -19.287   8.576  0.00  0.00    +0.155 C 
ATOM      2  N   LIG    1       30.645 -18.966   9.977  0.00  0.00    -0.254 NA
ATOM      3  C   LIG    1       31.425 -17.981  10.296  0.00  0.00    +0.153 C 
ATOM      4  N   LIG    1       32.339 -17.509   9.399  0.00  0.00    -0.307 N 
ATOM      5  C   LIG    1       32.641 -16.104   9.587  0.00  0.00    +0.118 C 
ATOM      6  C   LIG    1       32.624 -15.884  11.107  0.00  0.00    +0.096 C 
ATOM      7  S   LIG    1       31.345 -17.034  11.744  0.00  0.00    -0.089 S 
ATOM      8  C   LIG    1       31.955 -18.058   8.116  0.00  0.00    +0.138 C 
ENDROOT
BRANCH   1  12
ATOM      9  C   LIG    1       27.894 -20.098   5.807  0.00  0.00    +0.000 A 
ATOM     10  C   LIG    1       28.100 -20.944   6.894  0.00  0.00    +0.000 A 
ATOM     11  C   LIG    1       29.143 -20.694   7.789  0.00  0.00    +0.006 A 
ATOM     12  C   LIG    1       29.995 -19.596   7.604  0.00  0.00    -0.022 A 
ATOM     13  C   LIG    1       29.775 -18.751   6.505  0.00  0.00    +0.006 A 
ATOM     14  C   LIG    1       28.732 -19.002   5.611  0.00  0.00    +0.000 A 
ENDBRANCH   1  12
TORSDOF 1
ENDMDL
MODEL 3
REMARK VINA RESULT:      -7.0      2.420      2.949
REMARK  Name = *****
REMARK                            x       y       z     vdW  Elec       q    Type
REMARK                         _______ _______ _______ _____ _____    ______ ____
ROOT
ATOM      1  C   LIG    1       25.997 -21.183   7.507  0.00  0.00    +0.155 C 
ATOM      2  N   LIG    1       26.451 -20.393   6.301  0.00  0.00    -0.254 NA
ATOM      3  C   LIG    1       27.671 -20.097   6.623  0.00  0.00    +0.153 C 
ATOM      4  N   LIG    1       28.196 -20.537   7.803  0.00  0.00    -0.307 N 
ATOM      5  C   LIG    1       29.633 -20.722   7.747  0.00  0.00    +0.118 C 
ATOM      6  C   LIG    1       30.155 -19.584   6.859  0.00  0.00    +0.096 C 
ATOM      7  S   LIG    1       28.833 -19.297   5.620  0.00  0.00    -0.089 S 
ATOM      8  C   LIG    1       27.297 -21.566   8.279  0.00  0.00    +0.138 C 
ENDROOT
BRANCH   1  12
ATOM      9  C   LIG    1       23.656 -24.673   6.493  0.00  0.00    +0.000 A 
ATOM     10  C   LIG    1       23.016 -23.463   6.756  0.00  0.00    +0.000 A 
ATOM     11  C   LIG    1       23.764 -22.333   7.092  0.00  0.00    +0.006 A 
ATOM     12  C   LIG    1       25.162 -22.400   7.174  0.00  0.00    -0.022 A 
ATOM     13  C   LIG    1       25.794 -23.625   6.905  0.00  0.00    +0.006 A 
ATOM     14  C   LIG    1       25.045 -24.754   6.568  0.00  0.00    +0.000 A 
ENDBRANCH   1  12
TORSDOF 1
ENDMDL
MODEL 4
REMARK VINA RESULT:      -6.8      2.981      5.616
REMARK  Name = *****
REMARK                            x       y       z     vdW  Elec       q    Type
REMARK                         _______ _______ _______ _____ _____    ______ ____
ROOT
ATOM      1  C   LIG    1       26.918 -21.575   7.908  0.00  0.00    +0.155 C 
ATOM      2  N   LIG    1       26.668 -22.874   7.178  0.00  0.00    -0.254 NA
ATOM      3  C   LIG    1       25.374 -22.940   7.193  0.00  0.00    +0.153 C 
ATOM      4  N   LIG    1       24.640 -21.940   7.761  0.00  0.00    -0.307 N 
ATOM      5  C   LIG    1       23.328 -21.792   7.164  0.00  0.00    +0.118 C 
ATOM      6  C   LIG    1       22.866 -23.221   6.840  0.00  0.00    +0.096 C 
ATOM      7  S   LIG    1       24.396 -24.133   6.404  0.00  0.00    -0.089 S 
ATOM      8  C   LIG    1       25.550 -20.826   7.926  0.00  0.00    +0.138 C 
ENDROOT
BRANCH   1  12
ATOM      9  C   LIG    1       30.067 -19.114   6.260  0.00  0.00    +0.000 A 
ATOM     10  C   LIG    1       28.810 -19.124   5.658  0.00  0.00    +0.000 A 
ATOM     11  C   LIG    1       27.790 -19.922   6.179  0.00  0.00    +0.006 A 
ATOM     12  C   LIG    1       28.015 -20.725   7.307  0.00  0.00    -0.022 A 
ATOM     13  C   LIG    1       29.286 -20.704   7.903  0.00  0.00    +0.006 A 
ATOM     14  C   LIG    1       30.305 -19.905   7.382  0.00  0.00    +0.000 A 
ENDBRANCH   1  12
TORSDOF 1
ENDMDL
MODEL 5
REMARK VINA RESULT:      -6.8      4.445      5.684
REMARK  Name = *****
REMARK                            x       y       z     vdW  Elec       q    Type
REMARK                         _______ _______ _______ _____ _____    ______ ____
ROOT
ATOM      1  C   LIG    1       24.273 -22.076   6.566  0.00  0.00    +0.155 C 
ATOM      2  N   LIG    1       25.598 -22.758   6.315  0.00  0.00    -0.254 NA
ATOM      3  C   LIG    1       25.282 -24.007   6.453  0.00  0.00    +0.153 C 
ATOM      4  N   LIG    1       23.993 -24.365   6.725  0.00  0.00    -0.307 N 
ATOM      5  C   LIG    1       23.653 -25.679   6.218  0.00  0.00    +0.118 C 
ATOM      6  C   LIG    1       24.919 -26.529   6.409  0.00  0.00    +0.096 C 
ATOM      7  S   LIG    1       26.317 -25.367   6.170  0.00  0.00    -0.089 S 
ATOM      8  C   LIG    1       23.190 -23.193   6.450  0.00  0.00    +0.138 C 
ENDROOT
BRANCH   1  12
ATOM      9  C   LIG    1       23.380 -18.796   3.895  0.00  0.00    +0.000 A 
ATOM     10  C   LIG    1       24.586 -19.482   3.769  0.00  0.00    +0.000 A 
ATOM     11  C   LIG    1       24.886 -20.537   4.633  0.00  0.00    +0.006 A 
ATOM     12  C   LIG    1       23.985 -20.917   5.637  0.00  0.00    -0.022 A 
ATOM     13  C   LIG    1       22.772 -20.218   5.752  0.00  0.00    +0.006 A 
ATOM     14  C   LIG    1       22.474 -19.163   4.887  0.00  0.00    +0.000 A 
ENDBRANCH   1  12
TORSDOF 1
ENDMDL
MODEL 6
REMARK VINA RESULT:      -6.7      4.479      5.798
REMARK  Name = *****
REMARK                            x       y       z     vdW  Elec       q    Type
REMARK                         _______ _______ _______ _____ _____    ______ ____
ROOT
ATOM      1  C   LIG    1       24.219 -22.129   6.561  0.00  0.00    +0.155 C 
ATOM      2  N   LIG    1       25.564 -22.777   6.328  0.00  0.00    -0.254 NA
ATOM      3  C   LIG    1       25.278 -24.034   6.464  0.00  0.00    +0.153 C 
ATOM      4  N   LIG    1       23.996 -24.424   6.720  0.00  0.00    -0.307 N 
ATOM      5  C   LIG    1       23.696 -25.747   6.210  0.00  0.00    +0.118 C 
ATOM      6  C   LIG    1       24.980 -26.564   6.419  0.00  0.00    +0.096 C 
ATOM      7  S   LIG    1       26.352 -25.366   6.196  0.00  0.00    -0.089 S 
ATOM      8  C   LIG    1       23.167 -23.273   6.433  0.00  0.00    +0.138 C 
ENDROOT
BRANCH   1  12
ATOM      9  C   LIG    1       23.416 -18.811   3.908  0.00  0.00    +0.000 A 
ATOM     10  C   LIG    1       22.492 -19.146   4.896  0.00  0.00    +0.000 A 
ATOM     11  C   LIG    1       22.740 -20.222   5.751  0.00  0.00    +0.006 A 
ATOM     12  C   LIG    1       23.913 -20.979   5.627  0.00  0.00    -0.022 A 
ATOM     13  C   LIG    1       24.836 -20.629   4.628  0.00  0.00    +0.006 A 
ATOM     14  C   LIG    1       24.588 -19.553   3.774  0.00  0.00    +0.000 A 
ENDBRANCH   1  12
TORSDOF 1
ENDMDL
MODEL 7
REMARK VINA RESULT:      -6.5      5.587      6.807
REMARK  Name = *****
REMARK                            x       y       z     vdW  Elec       q    Type
REMARK                         _______ _______ _______ _____ _____    ______ ____
ROOT
ATOM      1  C   LIG    1       24.105 -24.307   5.899  0.00  0.00    +0.155 C 
ATOM      2  N   LIG    1       23.732 -25.516   6.725  0.00  0.00    -0.254 NA
ATOM      3  C   LIG    1       24.291 -26.475   6.056  0.00  0.00    +0.153 C 
ATOM      4  N   LIG    1       25.014 -26.199   4.931  0.00  0.00    -0.307 N 
ATOM      5  C   LIG    1       26.065 -27.166   4.685  0.00  0.00    +0.118 C 
ATOM      6  C   LIG    1       25.481 -28.521   5.110  0.00  0.00    +0.096 C 
ATOM      7  S   LIG    1       24.369 -28.142   6.519  0.00  0.00    -0.089 S 
ATOM      8  C   LIG    1       25.257 -24.773   4.957  0.00  0.00    +0.138 C 
ENDROOT
BRANCH   1  12
ATOM      9  C   LIG    1       25.225 -20.800   8.164  0.00  0.00    +0.000 A 
ATOM     10  C   LIG    1       26.056 -21.919   8.166  0.00  0.00    +0.000 A 
ATOM     11  C   LIG    1       25.697 -23.059   7.444  0.00  0.00    +0.006 A 
ATOM     12  C   LIG    1       24.501 -23.096   6.714  0.00  0.00    -0.022 A 
ATOM     13  C   LIG    1       23.674 -21.960   6.720  0.00  0.00    +0.006 A 
ATOM     14  C   LIG    1       24.034 -20.821   7.442  0.00  0.00    +0.000 A 
ENDBRANCH   1  12
TORSDOF 1
ENDMDL
MODEL 8
REMARK VINA RESULT:      -6.5      2.911      5.812
REMARK  Name = *****
REMARK                            x       y       z     vdW  Elec       q    Type
REMARK                         _______ _______ _______ _____ _____    ______ ____
ROOT
ATOM      1  C   LIG    1       26.699 -20.633   5.745  0.00  0.00    +0.155 C 
ATOM      2  N   LIG    1       26.103 -19.887   4.573  0.00  0.00    -0.254 NA
ATOM      3  C   LIG    1       24.833 -20.039   4.783  0.00  0.00    +0.153 C 
ATOM      4  N   LIG    1       24.394 -20.718   5.882  0.00  0.00    -0.307 N 
ATOM      5  C   LIG    1       23.093 -20.271   6.340  0.00  0.00    +0.118 C 
ATOM      6  C   LIG    1       22.302 -19.947   5.064  0.00  0.00    +0.096 C 
ATOM      7  S   LIG    1       23.548 -19.316   3.874  0.00  0.00    -0.089 S 
ATOM      8  C   LIG    1       25.536 -20.825   6.765  0.00  0.00    +0.138 C 
ENDROOT
BRANCH   1  12
ATOM      9  C   LIG    1       30.152 -18.702   7.488  0.00  0.00    +0.000 A 
ATOM     10  C   LIG    1       29.369 -19.552   8.266  0.00  0.00    +0.000 A 
ATOM     11  C   LIG    1       28.247 -20.173   7.713  0.00  0.00    +0.006 A 
ATOM     12  C   LIG    1       27.892 -19.948   6.375  0.00  0.00    -0.022 A 
ATOM     13  C   LIG    1       28.691 -19.090   5.603  0.00  0.00    +0.006 A 
ATOM     14  C   LIG    1       29.812 -18.470   6.157  0.00  0.00    +0.000 A 
ENDBRANCH   1  12
TORSDOF 1
ENDMDL
MODEL 9
REMARK VINA RESULT:      -6.4      4.378      5.785
REMARK  Name = *****
REMARK                            x       y       z     vdW  Elec       q    Type
REMARK                         _______ _______ _______ _____ _____    ______ ____
ROOT
ATOM      1  C   LIG    1       24.535 -22.259   6.666  0.00  0.00    +0.155 C 
ATOM      2  N   LIG    1       23.144 -21.790   6.304  0.00  0.00    -0.254 NA
ATOM      3  C   LIG    1       23.398 -20.737   5.592  0.00  0.00    +0.153 C 
ATOM      4  N   LIG    1       24.689 -20.368   5.346  0.00  0.00    -0.307 N 
ATOM      5  C   LIG    1       24.843 -19.657   4.093  0.00  0.00    +0.118 C 
ATOM      6  C   LIG    1       23.582 -18.790   3.959  0.00  0.00    +0.096 C 
ATOM      7  S   LIG    1       22.242 -19.770   4.739  0.00  0.00    -0.089 S 
ATOM      8  C   LIG    1       25.502 -21.512   5.698  0.00  0.00    +0.138 C 
ENDROOT
BRANCH   1  12
ATOM      9  C   LIG    1       25.132 -26.534   6.432  0.00  0.00    +0.000 A 
ATOM     10  C   LIG    1       23.879 -25.994   6.149  0.00  0.00    +0.000 A 
ATOM     11  C   LIG    1       23.675 -24.615   6.231  0.00  0.00    +0.006 A 
ATOM     12  C   LIG    1       24.722 -23.759   6.600  0.00  0.00    -0.022 A 
ATOM     13  C   LIG    1       25.980 -24.316   6.881  0.00  0.00    +0.006 A 
ATOM     14  C   LIG    1       26.182 -25.695   6.799  0.00  0.00    +0.000 A 
ENDBRANCH   1  12
TORSDOF 1
ENDMDL
