MODEL 1
REMARK VINA RESULT:      -5.1      0.000      0.000
REMARK  Name = *****
REMARK                            x       y       z     vdW  Elec       q    Type
REMARK                         _______ _______ _______ _____ _____    ______ ____
ROOT
ATOM      1  C   UNK    1       24.489 -20.211   4.212  0.00  0.00    +0.172 C 
ENDROOT
BRANCH   1   2
ATOM      2  C   UNK    1       25.797 -20.133   4.989  0.00  0.00    -0.013 A 
ATOM      3  C   UNK    1       26.833 -19.273   4.586  0.00  0.00    +0.055 A 
ATOM      4  C   UNK    1       28.040 -19.271   5.277  0.00  0.00    +0.159 A 
ATOM      5  C   UNK    1       28.230 -20.080   6.394  0.00  0.00    +0.158 A 
ATOM      6  C   UNK    1       27.207 -20.907   6.835  0.00  0.00    +0.049 A 
ATOM      7  C   UNK    1       25.996 -20.936   6.129  0.00  0.00    +0.010 A 
BRANCH   4   8
ATOM      8  O   UNK    1       29.057 -18.472   4.838  0.00  0.00    -0.503 OA
ATOM      9  H   UNK    1       28.905 -17.614   5.285  0.00  0.00    +0.292 HD
ENDBRANCH   4   8
BRANCH   5  10
ATOM     10  O   UNK    1       29.445 -20.026   7.020  0.00  0.00    -0.503 OA
ATOM     11  H   UNK    1       29.298 -19.823   7.960  0.00  0.00    +0.292 HD
ENDBRANCH   5  10
ENDBRANCH   1   2
BRANCH   1  12
ATOM     12  O   UNK    1       24.307 -21.570   3.763  0.00  0.00    -0.385 OA
ATOM     13  H   UNK    1       24.494 -21.570   2.803  0.00  0.00    +0.210 HD
ENDBRANCH   1  12
BRANCH   1  14
ATOM     14  C   UNK    1       23.230 -19.769   5.012  0.00  0.00    +0.194 C 
BRANCH  14  15
ATOM     15  N   UNK    1       22.294 -18.938   4.205  0.00  0.00    -0.316 NA
ATOM     16  H   UNK    1       21.900 -19.528   3.468  0.00  0.00    +0.119 HD
ATOM     17  H   UNK    1       21.481 -18.748   4.802  0.00  0.00    +0.119 HD
ENDBRANCH  14  15
BRANCH  14  18
ATOM     18  C   UNK    1       22.446 -20.986   5.560  0.00  0.00    +0.325 C 
ATOM     19  O   UNK    1       22.756 -21.572   6.593  0.00  0.00    -0.249 OA
BRANCH  18  20
ATOM     20  O   UNK    1       21.428 -21.410   4.786  0.00  0.00    -0.479 OA
ATOM     21  H   UNK    1       21.455 -22.383   4.636  0.00  0.00    +0.295 HD
ENDBRANCH  18  20
ENDBRANCH  14  18
ENDBRANCH   1  14
TORSDOF 8
ENDMDL
MODEL 2
REMARK VINA RESULT:      -4.0      1.587      1.738
REMARK  Name = *****
REMARK                            x       y       z     vdW  Elec       q    Type
REMARK                         _______ _______ _______ _____ _____    ______ ____
ROOT
ATOM      1  C   UNK    1       23.963 -20.342   4.015  0.00  0.00    +0.172 C 
ENDROOT
BRANCH   1   2
ATOM      2  C   UNK    1       25.229 -20.423   4.858  0.00  0.00    -0.013 A 
ATOM      3  C   UNK    1       26.323 -19.575   4.614  0.00  0.00    +0.055 A 
ATOM      4  C   UNK    1       27.490 -19.716   5.358  0.00  0.00    +0.159 A 
ATOM      5  C   UNK    1       27.583 -20.660   6.376  0.00  0.00    +0.158 A 
ATOM      6  C   UNK    1       26.501 -21.481   6.663  0.00  0.00    +0.049 A 
ATOM      7  C   UNK    1       25.331 -21.365   5.901  0.00  0.00    +0.010 A 
BRANCH   4   8
ATOM      8  O   UNK    1       28.563 -18.922   5.069  0.00  0.00    -0.503 OA
ATOM      9  H   UNK    1       29.120 -18.961   5.874  0.00  0.00    +0.292 HD
ENDBRANCH   4   8
BRANCH   5  10
ATOM     10  O   UNK    1       28.763 -20.743   7.062  0.00  0.00    -0.503 OA
ATOM     11  H   UNK    1       29.027 -21.678   7.107  0.00  0.00    +0.292 HD
ENDBRANCH   5  10
ENDBRANCH   1   2
BRANCH   1  12
ATOM     12  O   UNK    1       23.832 -21.572   3.273  0.00  0.00    -0.385 OA
ATOM     13  H   UNK    1       23.762 -21.319   2.330  0.00  0.00    +0.210 HD
ENDBRANCH   1  12
BRANCH   1  14
ATOM     14  C   UNK    1       22.657 -20.096   4.824  0.00  0.00    +0.194 C 
BRANCH  14  15
ATOM     15  N   UNK    1       22.883 -20.082   6.296  0.00  0.00    -0.316 NA
ATOM     16  H   UNK    1       22.774 -21.037   6.643  0.00  0.00    +0.119 HD
ATOM     17  H   UNK    1       23.885 -19.903   6.436  0.00  0.00    +0.119 HD
ENDBRANCH  14  15
BRANCH  14  18
ATOM     18  C   UNK    1       21.982 -18.761   4.426  0.00  0.00    +0.325 C 
ATOM     19  O   UNK    1       22.381 -17.668   4.812  0.00  0.00    -0.249 OA
BRANCH  18  20
ATOM     20  O   UNK    1       20.872 -18.881   3.671  0.00  0.00    -0.479 OA
ATOM     21  H   UNK    1       20.618 -19.822   3.532  0.00  0.00    +0.295 HD
ENDBRANCH  18  20
ENDBRANCH  14  18
ENDBRANCH   1  14
TORSDOF 8
ENDMDL
MODEL 3
REMARK VINA RESULT:      -3.7      4.998      7.618
REMARK  Name = *****
REMARK                            x       y       z     vdW  Elec       q    Type
REMARK                         _______ _______ _______ _____ _____    ______ ____
ROOT
ATOM      1  C   UNK    1       26.956 -14.526   3.253  0.00  0.00    +0.172 C 
ENDROOT
BRANCH   1   2
ATOM      2  C   UNK    1       25.716 -15.339   3.598  0.00  0.00    -0.013 A 
ATOM      3  C   UNK    1       25.707 -16.740   3.481  0.00  0.00    +0.055 A 
ATOM      4  C   UNK    1       24.540 -17.451   3.741  0.00  0.00    +0.159 A 
ATOM      5  C   UNK    1       23.382 -16.801   4.160  0.00  0.00    +0.158 A 
ATOM      6  C   UNK    1       23.378 -15.424   4.323  0.00  0.00    +0.049 A 
ATOM      7  C   UNK    1       24.541 -14.696   4.037  0.00  0.00    +0.010 A 
BRANCH   4   8
ATOM      8  O   UNK    1       24.532 -18.805   3.566  0.00  0.00    -0.503 OA
ATOM      9  H   UNK    1       24.595 -18.928   2.597  0.00  0.00    +0.292 HD
ENDBRANCH   4   8
BRANCH   5  10
ATOM     10  O   UNK    1       22.272 -17.566   4.394  0.00  0.00    -0.503 OA
ATOM     11  H   UNK    1       22.350 -17.957   5.282  0.00  0.00    +0.292 HD
ENDBRANCH   5  10
ENDBRANCH   1   2
BRANCH   1  12
ATOM     12  O   UNK    1       26.844 -14.086   1.883  0.00  0.00    -0.385 OA
ATOM     13  H   UNK    1       27.452 -13.326   1.787  0.00  0.00    +0.210 HD
ENDBRANCH   1  12
BRANCH   1  14
ATOM     14  C   UNK    1       27.197 -13.289   4.164  0.00  0.00    +0.194 C 
BRANCH  14  15
ATOM     15  N   UNK    1       26.854 -13.546   5.590  0.00  0.00    -0.316 NA
ATOM     16  H   UNK    1       27.292 -14.427   5.869  0.00  0.00    +0.119 HD
ATOM     17  H   UNK    1       27.369 -12.852   6.145  0.00  0.00    +0.119 HD
ENDBRANCH  14  15
BRANCH  14  18
ATOM     18  C   UNK    1       28.668 -12.811   4.099  0.00  0.00    +0.325 C 
ATOM     19  O   UNK    1       29.473 -13.233   3.276  0.00  0.00    -0.249 OA
BRANCH  18  20
ATOM     20  O   UNK    1       29.032 -11.938   5.060  0.00  0.00    -0.479 OA
ATOM     21  H   UNK    1       29.842 -12.229   5.538  0.00  0.00    +0.295 HD
ENDBRANCH  18  20
ENDBRANCH  14  18
ENDBRANCH   1  14
TORSDOF 8
ENDMDL
MODEL 4
REMARK VINA RESULT:      -3.7      0.829      1.895
REMARK  Name = *****
REMARK                            x       y       z     vdW  Elec       q    Type
REMARK                         _______ _______ _______ _____ _____    ______ ____
ROOT
ATOM      1  C   UNK    1       24.212 -20.008   3.889  0.00  0.00    +0.172 C 
ENDROOT
BRANCH   1   2
ATOM      2  C   UNK    1       25.603 -19.790   4.468  0.00  0.00    -0.013 A 
ATOM      3  C   UNK    1       26.110 -20.620   5.483  0.00  0.00    +0.055 A 
ATOM      4  C   UNK    1       27.358 -20.356   6.037  0.00  0.00    +0.159 A 
ATOM      5  C   UNK    1       28.141 -19.303   5.575  0.00  0.00    +0.158 A 
ATOM      6  C   UNK    1       27.681 -18.494   4.545  0.00  0.00    +0.049 A 
ATOM      7  C   UNK    1       26.412 -18.735   3.999  0.00  0.00    +0.010 A 
BRANCH   4   8
ATOM      8  O   UNK    1       27.810 -21.138   7.062  0.00  0.00    -0.503 OA
ATOM      9  H   UNK    1       28.750 -21.307   6.845  0.00  0.00    +0.292 HD
ENDBRANCH   4   8
BRANCH   5  10
ATOM     10  O   UNK    1       29.356 -19.103   6.170  0.00  0.00    -0.503 OA
ATOM     11  H   UNK    1       29.370 -19.593   7.011  0.00  0.00    +0.292 HD
ENDBRANCH   5  10
ENDBRANCH   1   2
BRANCH   1  12
ATOM     12  O   UNK    1       24.103 -21.386   3.475  0.00  0.00    -0.385 OA
ATOM     13  H   UNK    1       24.611 -21.464   2.643  0.00  0.00    +0.210 HD
ENDBRANCH   1  12
BRANCH   1  14
ATOM     14  C   UNK    1       23.043 -19.677   4.861  0.00  0.00    +0.194 C 
BRANCH  14  15
ATOM     15  N   UNK    1       22.051 -18.736   4.272  0.00  0.00    -0.316 NA
ATOM     16  H   UNK    1       22.457 -18.335   3.424  0.00  0.00    +0.119 HD
ATOM     17  H   UNK    1       21.284 -19.312   3.905  0.00  0.00    +0.119 HD
ENDBRANCH  14  15
BRANCH  14  18
ATOM     18  C   UNK    1       22.293 -20.955   5.307  0.00  0.00    +0.325 C 
ATOM     19  O   UNK    1       21.279 -21.365   4.751  0.00  0.00    -0.249 OA
BRANCH  18  20
ATOM     20  O   UNK    1       22.792 -21.562   6.402  0.00  0.00    -0.479 OA
ATOM     21  H   UNK    1       22.127 -21.630   7.124  0.00  0.00    +0.295 HD
ENDBRANCH  18  20
ENDBRANCH  14  18
ENDBRANCH   1  14
TORSDOF 8
ENDMDL
MODEL 5
REMARK VINA RESULT:      -3.6      3.484      4.367
REMARK  Name = *****
REMARK                            x       y       z     vdW  Elec       q    Type
REMARK                         _______ _______ _______ _____ _____    ______ ____
ROOT
ATOM      1  C   UNK    1       23.905 -18.700   3.696  0.00  0.00    +0.172 C 
ENDROOT
BRANCH   1   2
ATOM      2  C   UNK    1       24.590 -17.340   3.703  0.00  0.00    -0.013 A 
ATOM      3  C   UNK    1       23.892 -16.173   4.058  0.00  0.00    +0.055 A 
ATOM      4  C   UNK    1       24.527 -14.937   3.993  0.00  0.00    +0.159 A 
ATOM      5  C   UNK    1       25.865 -14.836   3.620  0.00  0.00    +0.158 A 
ATOM      6  C   UNK    1       26.587 -15.978   3.305  0.00  0.00    +0.049 A 
ATOM      7  C   UNK    1       25.948 -17.225   3.342  0.00  0.00    +0.010 A 
BRANCH   4   8
ATOM      8  O   UNK    1       23.818 -13.808   4.285  0.00  0.00    -0.503 OA
ATOM      9  H   UNK    1       23.654 -13.863   5.249  0.00  0.00    +0.292 HD
ENDBRANCH   4   8
BRANCH   5  10
ATOM     10  O   UNK    1       26.420 -13.587   3.575  0.00  0.00    -0.503 OA
ATOM     11  H   UNK    1       27.200 -13.577   4.157  0.00  0.00    +0.292 HD
ENDBRANCH   5  10
ENDBRANCH   1   2
BRANCH   1  12
ATOM     12  O   UNK    1       24.878 -19.701   4.059  0.00  0.00    -0.385 OA
ATOM     13  H   UNK    1       24.673 -19.962   4.980  0.00  0.00    +0.210 HD
ENDBRANCH   1  12
BRANCH   1  14
ATOM     14  C   UNK    1       22.679 -18.815   4.647  0.00  0.00    +0.194 C 
BRANCH  14  15
ATOM     15  N   UNK    1       21.379 -18.680   3.933  0.00  0.00    -0.316 NA
ATOM     16  H   UNK    1       20.908 -19.588   3.954  0.00  0.00    +0.119 HD
ATOM     17  H   UNK    1       20.777 -18.099   4.528  0.00  0.00    +0.119 HD
ENDBRANCH  14  15
BRANCH  14  18
ATOM     18  C   UNK    1       22.674 -20.162   5.410  0.00  0.00    +0.325 C 
ATOM     19  O   UNK    1       23.110 -20.286   6.550  0.00  0.00    -0.249 OA
BRANCH  18  20
ATOM     20  O   UNK    1       22.217 -21.218   4.710  0.00  0.00    -0.479 OA
ATOM     21  H   UNK    1       21.256 -21.142   4.507  0.00  0.00    +0.295 HD
ENDBRANCH  18  20
ENDBRANCH  14  18
ENDBRANCH   1  14
TORSDOF 8
ENDMDL
MODEL 6
REMARK VINA RESULT:      -3.6      4.212      6.063
REMARK  Name = *****
REMARK                            x       y       z     vdW  Elec       q    Type
REMARK                         _______ _______ _______ _____ _____    ______ ____
ROOT
ATOM      1  C   UNK    1       24.068 -15.546   3.748  0.00  0.00    +0.172 C 
ENDROOT
BRANCH   1   2
ATOM      2  C   UNK    1       23.907 -17.050   3.929  0.00  0.00    -0.013 A 
ATOM      3  C   UNK    1       24.962 -17.935   3.651  0.00  0.00    +0.055 A 
ATOM      4  C   UNK    1       24.766 -19.307   3.765  0.00  0.00    +0.159 A 
ATOM      5  C   UNK    1       23.546 -19.825   4.191  0.00  0.00    +0.158 A 
ATOM      6  C   UNK    1       22.502 -18.970   4.511  0.00  0.00    +0.049 A 
ATOM      7  C   UNK    1       22.682 -17.586   4.374  0.00  0.00    +0.010 A 
BRANCH   4   8
ATOM      8  O   UNK    1       25.784 -20.156   3.435  0.00  0.00    -0.503 OA
ATOM      9  H   UNK    1       25.842 -20.102   2.459  0.00  0.00    +0.292 HD
ENDBRANCH   4   8
BRANCH   5  10
ATOM     10  O   UNK    1       23.426 -21.185   4.275  0.00  0.00    -0.503 OA
ATOM     11  H   UNK    1       24.054 -21.588   3.650  0.00  0.00    +0.292 HD
ENDBRANCH   5  10
ENDBRANCH   1   2
BRANCH   1  12
ATOM     12  O   UNK    1       23.219 -14.880   4.705  0.00  0.00    -0.385 OA
ATOM     13  H   UNK    1       23.810 -14.531   5.402  0.00  0.00    +0.210 HD
ENDBRANCH   1  12
BRANCH   1  14
ATOM     14  C   UNK    1       25.524 -15.024   3.911  0.00  0.00    +0.194 C 
BRANCH  14  15
ATOM     15  N   UNK    1       26.247 -14.913   2.614  0.00  0.00    -0.316 NA
ATOM     16  H   UNK    1       26.780 -15.773   2.472  0.00  0.00    +0.119 HD
ATOM     17  H   UNK    1       25.534 -14.963   1.876  0.00  0.00    +0.119 HD
ENDBRANCH  14  15
BRANCH  14  18
ATOM     18  C   UNK    1       25.559 -13.640   4.604  0.00  0.00    +0.325 C 
ATOM     19  O   UNK    1       24.806 -12.721   4.301  0.00  0.00    -0.249 OA
BRANCH  18  20
ATOM     20  O   UNK    1       26.527 -13.485   5.529  0.00  0.00    -0.479 OA
ATOM     21  H   UNK    1       26.675 -12.538   5.756  0.00  0.00    +0.295 HD
ENDBRANCH  18  20
ENDBRANCH  14  18
ENDBRANCH   1  14
TORSDOF 8
ENDMDL
MODEL 7
REMARK VINA RESULT:      -3.5      4.799      6.812
REMARK  Name = *****
REMARK                            x       y       z     vdW  Elec       q    Type
REMARK                         _______ _______ _______ _____ _____    ______ ____
ROOT
ATOM      1  C   UNK    1       24.335 -14.221   4.083  0.00  0.00    +0.172 C 
ENDROOT
BRANCH   1   2
ATOM      2  C   UNK    1       24.020 -15.711   4.101  0.00  0.00    -0.013 A 
ATOM      3  C   UNK    1       24.977 -16.664   3.712  0.00  0.00    +0.055 A 
ATOM      4  C   UNK    1       24.639 -18.013   3.678  0.00  0.00    +0.159 A 
ATOM      5  C   UNK    1       23.374 -18.447   4.064  0.00  0.00    +0.158 A 
ATOM      6  C   UNK    1       22.426 -17.529   4.492  0.00  0.00    +0.049 A 
ATOM      7  C   UNK    1       22.748 -16.165   4.504  0.00  0.00    +0.010 A 
BRANCH   4   8
ATOM      8  O   UNK    1       25.563 -18.919   3.242  0.00  0.00    -0.503 OA
ATOM      9  H   UNK    1       26.001 -19.235   4.058  0.00  0.00    +0.292 HD
ENDBRANCH   4   8
BRANCH   5  10
ATOM     10  O   UNK    1       23.114 -19.788   4.001  0.00  0.00    -0.503 OA
ATOM     11  H   UNK    1       22.674 -19.976   3.154  0.00  0.00    +0.292 HD
ENDBRANCH   5  10
ENDBRANCH   1   2
BRANCH   1  12
ATOM     12  O   UNK    1       25.541 -14.003   4.844  0.00  0.00    -0.385 OA
ATOM     13  H   UNK    1       25.285 -13.463   5.618  0.00  0.00    +0.210 HD
ENDBRANCH   1  12
BRANCH   1  14
ATOM     14  C   UNK    1       24.514 -13.611   2.663  0.00  0.00    +0.194 C 
BRANCH  14  15
ATOM     15  N   UNK    1       23.883 -12.270   2.527  0.00  0.00    -0.316 NA
ATOM     16  H   UNK    1       23.281 -12.283   1.701  0.00  0.00    +0.119 HD
ATOM     17  H   UNK    1       23.210 -12.183   3.297  0.00  0.00    +0.119 HD
ENDBRANCH  14  15
BRANCH  14  18
ATOM     18  C   UNK    1       26.008 -13.485   2.281  0.00  0.00    +0.325 C 
ATOM     19  O   UNK    1       26.672 -14.423   1.853  0.00  0.00    -0.249 OA
BRANCH  18  20
ATOM     20  O   UNK    1       26.561 -12.278   2.515  0.00  0.00    -0.479 OA
ATOM     21  H   UNK    1       27.190 -12.013   1.805  0.00  0.00    +0.295 HD
ENDBRANCH  18  20
ENDBRANCH  14  18
ENDBRANCH   1  14
TORSDOF 8
ENDMDL
MODEL 8
REMARK VINA RESULT:      -3.5      3.549      4.489
REMARK  Name = *****
REMARK                            x       y       z     vdW  Elec       q    Type
REMARK                         _______ _______ _______ _____ _____    ______ ____
ROOT
ATOM      1  C   UNK    1       24.438 -18.555   3.531  0.00  0.00    +0.172 C 
ENDROOT
BRANCH   1   2
ATOM      2  C   UNK    1       24.689 -17.058   3.651  0.00  0.00    -0.013 A 
ATOM      3  C   UNK    1       25.936 -16.498   3.321  0.00  0.00    +0.055 A 
ATOM      4  C   UNK    1       26.155 -15.137   3.503  0.00  0.00    +0.159 A 
ATOM      5  C   UNK    1       25.144 -14.302   3.969  0.00  0.00    +0.158 A 
ATOM      6  C   UNK    1       23.892 -14.824   4.262  0.00  0.00    +0.049 A 
ATOM      7  C   UNK    1       23.669 -16.199   4.108  0.00  0.00    +0.010 A 
BRANCH   4   8
ATOM      8  O   UNK    1       27.390 -14.620   3.232  0.00  0.00    -0.503 OA
ATOM      9  H   UNK    1       27.228 -13.667   3.076  0.00  0.00    +0.292 HD
ENDBRANCH   4   8
BRANCH   5  10
ATOM     10  O   UNK    1       25.435 -12.975   4.125  0.00  0.00    -0.503 OA
ATOM     11  H   UNK    1       25.023 -12.665   4.950  0.00  0.00    +0.292 HD
ENDBRANCH   5  10
ENDBRANCH   1   2
BRANCH   1  12
ATOM     12  O   UNK    1       25.713 -19.223   3.433  0.00  0.00    -0.385 OA
ATOM     13  H   UNK    1       26.319 -18.751   4.039  0.00  0.00    +0.210 HD
ENDBRANCH   1  12
BRANCH   1  14
ATOM     14  C   UNK    1       23.630 -19.176   4.706  0.00  0.00    +0.194 C 
BRANCH  14  15
ATOM     15  N   UNK    1       22.173 -19.273   4.417  0.00  0.00    -0.316 NA
ATOM     16  H   UNK    1       21.670 -18.754   5.140  0.00  0.00    +0.119 HD
ATOM     17  H   UNK    1       22.003 -18.711   3.575  0.00  0.00    +0.119 HD
ENDBRANCH  14  15
BRANCH  14  18
ATOM     18  C   UNK    1       24.147 -20.589   5.070  0.00  0.00    +0.325 C 
ATOM     19  O   UNK    1       24.892 -20.805   6.019  0.00  0.00    -0.249 OA
BRANCH  18  20
ATOM     20  O   UNK    1       23.775 -21.571   4.225  0.00  0.00    -0.479 OA
ATOM     21  H   UNK    1       24.473 -22.259   4.125  0.00  0.00    +0.295 HD
ENDBRANCH  18  20
ENDBRANCH  14  18
ENDBRANCH   1  14
TORSDOF 8
ENDMDL
MODEL 9
REMARK VINA RESULT:      -3.3      4.226      6.229
REMARK  Name = *****
REMARK                            x       y       z     vdW  Elec       q    Type
REMARK                         _______ _______ _______ _____ _____    ______ ____
ROOT
ATOM      1  C   UNK    1       24.468 -15.497   3.583  0.00  0.00    +0.172 C 
ENDROOT
BRANCH   1   2
ATOM      2  C   UNK    1       24.410 -17.015   3.699  0.00  0.00    -0.013 A 
ATOM      3  C   UNK    1       23.235 -17.671   4.103  0.00  0.00    +0.055 A 
ATOM      4  C   UNK    1       23.231 -19.052   4.262  0.00  0.00    +0.159 A 
ATOM      5  C   UNK    1       24.366 -19.810   3.988  0.00  0.00    +0.158 A 
ATOM      6  C   UNK    1       25.526 -19.190   3.548  0.00  0.00    +0.049 A 
ATOM      7  C   UNK    1       25.548 -17.794   3.410  0.00  0.00    +0.010 A 
BRANCH   4   8
ATOM      8  O   UNK    1       22.097 -19.668   4.710  0.00  0.00    -0.503 OA
ATOM      9  H   UNK    1       21.427 -18.954   4.743  0.00  0.00    +0.292 HD
ENDBRANCH   4   8
BRANCH   5  10
ATOM     10  O   UNK    1       24.287 -21.163   4.171  0.00  0.00    -0.503 OA
ATOM     11  H   UNK    1       25.029 -21.580   3.699  0.00  0.00    +0.292 HD
ENDBRANCH   5  10
ENDBRANCH   1   2
BRANCH   1  12
ATOM     12  O   UNK    1       23.553 -14.933   4.545  0.00  0.00    -0.385 OA
ATOM     13  H   UNK    1       22.722 -15.442   4.466  0.00  0.00    +0.210 HD
ENDBRANCH   1  12
BRANCH   1  14
ATOM     14  C   UNK    1       25.879 -14.881   3.803  0.00  0.00    +0.194 C 
BRANCH  14  15
ATOM     15  N   UNK    1       26.578 -14.567   2.527  0.00  0.00    -0.316 NA
ATOM     16  H   UNK    1       26.655 -13.551   2.446  0.00  0.00    +0.119 HD
ATOM     17  H   UNK    1       27.555 -14.859   2.649  0.00  0.00    +0.119 HD
ENDBRANCH  14  15
BRANCH  14  18
ATOM     18  C   UNK    1       25.810 -13.585   4.648  0.00  0.00    +0.325 C 
ATOM     19  O   UNK    1       25.026 -12.673   4.410  0.00  0.00    -0.249 OA
BRANCH  18  20
ATOM     20  O   UNK    1       26.725 -13.492   5.633  0.00  0.00    -0.479 OA
ATOM     21  H   UNK    1       27.442 -14.160   5.539  0.00  0.00    +0.295 HD
ENDBRANCH  18  20
ENDBRANCH  14  18
ENDBRANCH   1  14
TORSDOF 8
ENDMDL
