MODEL 1
REMARK VINA RESULT:      -4.7      0.000      0.000
REMARK  Name = *****
REMARK                            x       y       z     vdW  Elec       q    Type
REMARK                         _______ _______ _______ _____ _____    ______ ____
ROOT
ATOM      1  C   LIG    1       25.239 -20.238   5.446  0.00  0.00    -0.014 C 
ATOM      2  C   LIG    1       24.990 -21.572   4.686  0.00  0.00    +0.012 C 
ATOM      3  C   LIG    1       23.676 -21.513   3.884  0.00  0.00    -0.010 C 
ATOM      4  C   LIG    1       23.750 -20.367   2.864  0.00  0.00    +0.007 C 
ATOM      5  C   LIG    1       23.956 -19.031   3.593  0.00  0.00    -0.010 C 
ATOM      6  C   LIG    1       22.784 -18.786   4.552  0.00  0.00    +0.007 C 
ATOM      7  C   LIG    1       22.703 -19.926   5.577  0.00  0.00    -0.010 C 
ATOM      8  C   LIG    1       22.503 -21.260   4.843  0.00  0.00    +0.007 C 
ATOM      9  C   LIG    1       25.268 -19.090   4.393  0.00  0.00    +0.012 C 
ATOM     10  C   LIG    1       24.014 -19.984   6.378  0.00  0.00    +0.012 C 
ENDROOT
BRANCH   1  12
ATOM     11  C   LIG    1       27.789 -19.682   5.545  0.00  0.00    +0.024 C 
ATOM     12  C   LIG    1       26.568 -20.244   6.281  0.00  0.00    +0.054 C 
BRANCH  12  13
ATOM     13  N   LIG    1       26.949 -21.572   6.776  0.00  0.00    -0.327 NA
ATOM     14  H   LIG    1       26.620 -21.705   7.729  0.00  0.00    +0.118 HD
ATOM     15  H   LIG    1       26.512 -22.297   6.211  0.00  0.00    +0.118 HD
ENDBRANCH  12  13
ENDBRANCH   1  12
TORSDOF 2
ENDMDL
MODEL 2
REMARK VINA RESULT:      -4.7      0.124      2.119
REMARK  Name = *****
REMARK                            x       y       z     vdW  Elec       q    Type
REMARK                         _______ _______ _______ _____ _____    ______ ____
ROOT
ATOM      1  C   LIG    1       25.224 -20.214   5.472  0.00  0.00    -0.014 C 
ATOM      2  C   LIG    1       25.154 -19.053   4.440  0.00  0.00    +0.012 C 
ATOM      3  C   LIG    1       23.815 -19.071   3.678  0.00  0.00    -0.010 C 
ATOM      4  C   LIG    1       22.657 -18.919   4.675  0.00  0.00    +0.007 C 
ATOM      5  C   LIG    1       22.679 -20.077   5.684  0.00  0.00    -0.010 C 
ATOM      6  C   LIG    1       22.537 -21.409   4.936  0.00  0.00    +0.007 C 
ATOM      7  C   LIG    1       23.692 -21.572   3.938  0.00  0.00    -0.010 C 
ATOM      8  C   LIG    1       23.668 -20.408   2.935  0.00  0.00    +0.007 C 
ATOM      9  C   LIG    1       24.016 -20.058   6.444  0.00  0.00    +0.012 C 
ATOM     10  C   LIG    1       25.028 -21.554   4.698  0.00  0.00    +0.012 C 
ENDROOT
BRANCH   1  12
ATOM     11  C   LIG    1       27.792 -19.738   5.502  0.00  0.00    +0.024 C 
ATOM     12  C   LIG    1       26.570 -20.242   6.278  0.00  0.00    +0.054 C 
BRANCH  12  13
ATOM     13  N   LIG    1       26.920 -21.570   6.796  0.00  0.00    -0.327 NA
ATOM     14  H   LIG    1       26.297 -21.831   7.556  0.00  0.00    +0.118 HD
ATOM     15  H   LIG    1       26.807 -22.274   6.069  0.00  0.00    +0.118 HD
ENDBRANCH  12  13
ENDBRANCH   1  12
TORSDOF 2
ENDMDL
MODEL 3
REMARK VINA RESULT:      -4.5      5.174      6.576
REMARK  Name = *****
REMARK                            x       y       z     vdW  Elec       q    Type
REMARK                         _______ _______ _______ _____ _____    ______ ____
ROOT
ATOM      1  C   LIG    1       26.281 -15.394   3.485  0.00  0.00    -0.014 C 
ATOM      2  C   LIG    1       24.840 -15.086   3.980  0.00  0.00    +0.012 C 
ATOM      3  C   LIG    1       24.652 -13.577   4.229  0.00  0.00    -0.010 C 
ATOM      4  C   LIG    1       24.902 -12.808   2.923  0.00  0.00    +0.007 C 
ATOM      5  C   LIG    1       26.336 -13.063   2.433  0.00  0.00    -0.010 C 
ATOM      6  C   LIG    1       27.333 -12.595   3.501  0.00  0.00    +0.007 C 
ATOM      7  C   LIG    1       27.091 -13.360   4.809  0.00  0.00    -0.010 C 
ATOM      8  C   LIG    1       25.655 -13.105   5.293  0.00  0.00    +0.007 C 
ATOM      9  C   LIG    1       26.522 -14.570   2.185  0.00  0.00    +0.012 C 
ATOM     10  C   LIG    1       27.279 -14.866   4.561  0.00  0.00    +0.012 C 
ENDROOT
BRANCH   1  12
ATOM     11  C   LIG    1       25.306 -17.816   3.446  0.00  0.00    +0.024 C 
ATOM     12  C   LIG    1       26.528 -16.920   3.215  0.00  0.00    +0.054 C 
BRANCH  12  13
ATOM     13  N   LIG    1       27.623 -17.490   4.008  0.00  0.00    -0.327 NA
ATOM     14  H   LIG    1       28.282 -17.978   3.406  0.00  0.00    +0.118 HD
ATOM     15  H   LIG    1       28.144 -16.750   4.474  0.00  0.00    +0.118 HD
ENDBRANCH  12  13
ENDBRANCH   1  12
TORSDOF 2
ENDMDL
MODEL 4
REMARK VINA RESULT:      -4.4      5.157      6.574
REMARK  Name = *****
REMARK                            x       y       z     vdW  Elec       q    Type
REMARK                         _______ _______ _______ _____ _____    ______ ____
ROOT
ATOM      1  C   LIG    1       26.337 -15.410   3.450  0.00  0.00    -0.014 C 
ATOM      2  C   LIG    1       26.564 -14.562   2.167  0.00  0.00    +0.012 C 
ATOM      3  C   LIG    1       26.367 -13.061   2.454  0.00  0.00    -0.010 C 
ATOM      4  C   LIG    1       27.367 -12.611   3.530  0.00  0.00    +0.007 C 
ATOM      5  C   LIG    1       27.138 -13.407   4.823  0.00  0.00    -0.010 C 
ATOM      6  C   LIG    1       25.707 -13.168   5.325  0.00  0.00    +0.007 C 
ATOM      7  C   LIG    1       24.700 -13.618   4.257  0.00  0.00    -0.010 C 
ATOM      8  C   LIG    1       24.937 -12.822   2.964  0.00  0.00    +0.007 C 
ATOM      9  C   LIG    1       27.335 -14.905   4.535  0.00  0.00    +0.012 C 
ATOM     10  C   LIG    1       24.897 -15.115   3.969  0.00  0.00    +0.012 C 
ENDROOT
BRANCH   1  12
ATOM     11  C   LIG    1       25.271 -17.795   3.460  0.00  0.00    +0.024 C 
ATOM     12  C   LIG    1       26.526 -16.950   3.212  0.00  0.00    +0.054 C 
BRANCH  12  13
ATOM     13  N   LIG    1       27.599 -17.544   4.018  0.00  0.00    -0.327 NA
ATOM     14  H   LIG    1       27.565 -18.560   3.964  0.00  0.00    +0.118 HD
ATOM     15  H   LIG    1       28.508 -17.262   3.660  0.00  0.00    +0.118 HD
ENDBRANCH  12  13
ENDBRANCH   1  12
TORSDOF 2
ENDMDL
MODEL 5
REMARK VINA RESULT:      -4.4      5.168      6.747
REMARK  Name = *****
REMARK                            x       y       z     vdW  Elec       q    Type
REMARK                         _______ _______ _______ _____ _____    ______ ____
ROOT
ATOM      1  C   LIG    1       26.299 -15.391   3.489  0.00  0.00    -0.014 C 
ATOM      2  C   LIG    1       27.279 -14.841   4.563  0.00  0.00    +0.012 C 
ATOM      3  C   LIG    1       27.055 -13.335   4.797  0.00  0.00    -0.010 C 
ATOM      4  C   LIG    1       25.614 -13.101   5.274  0.00  0.00    +0.007 C 
ATOM      5  C   LIG    1       24.623 -13.599   4.211  0.00  0.00    -0.010 C 
ATOM      6  C   LIG    1       24.857 -12.840   2.898  0.00  0.00    +0.007 C 
ATOM      7  C   LIG    1       26.295 -13.070   2.412  0.00  0.00    -0.010 C 
ATOM      8  C   LIG    1       27.281 -12.575   3.481  0.00  0.00    +0.007 C 
ATOM      9  C   LIG    1       24.848 -15.103   3.978  0.00  0.00    +0.012 C 
ATOM     10  C   LIG    1       26.519 -14.573   2.179  0.00  0.00    +0.012 C 
ENDROOT
BRANCH   1  12
ATOM     11  C   LIG    1       25.237 -17.778   3.469  0.00  0.00    +0.024 C 
ATOM     12  C   LIG    1       26.485 -16.925   3.212  0.00  0.00    +0.054 C 
BRANCH  12  13
ATOM     13  N   LIG    1       27.576 -17.535   3.979  0.00  0.00    -0.327 NA
ATOM     14  H   LIG    1       28.103 -18.181   3.396  0.00  0.00    +0.118 HD
ATOM     15  H   LIG    1       28.232 -16.821   4.290  0.00  0.00    +0.118 HD
ENDBRANCH  12  13
ENDBRANCH   1  12
TORSDOF 2
ENDMDL
MODEL 6
REMARK VINA RESULT:      -4.3      6.352      7.255
REMARK  Name = *****
REMARK                            x       y       z     vdW  Elec       q    Type
REMARK                         _______ _______ _______ _____ _____    ______ ____
ROOT
ATOM      1  C   LIG    1       26.693 -13.434   3.896  0.00  0.00    -0.014 C 
ATOM      2  C   LIG    1       26.209 -14.833   3.423  0.00  0.00    +0.012 C 
ATOM      3  C   LIG    1       24.715 -14.804   3.048  0.00  0.00    -0.010 C 
ATOM      4  C   LIG    1       24.491 -13.792   1.915  0.00  0.00    +0.007 C 
ATOM      5  C   LIG    1       24.925 -12.391   2.371  0.00  0.00    -0.010 C 
ATOM      6  C   LIG    1       24.101 -11.974   3.596  0.00  0.00    +0.007 C 
ATOM      7  C   LIG    1       24.320 -12.979   4.736  0.00  0.00    -0.010 C 
ATOM      8  C   LIG    1       23.889 -14.379   4.273  0.00  0.00    +0.007 C 
ATOM      9  C   LIG    1       26.417 -12.422   2.744  0.00  0.00    +0.012 C 
ATOM     10  C   LIG    1       25.811 -13.009   5.110  0.00  0.00    +0.012 C 
ENDROOT
BRANCH   1  12
ATOM     11  C   LIG    1       28.615 -12.247   5.207  0.00  0.00    +0.024 C 
ATOM     12  C   LIG    1       28.212 -13.407   4.290  0.00  0.00    +0.054 C 
BRANCH  12  13
ATOM     13  N   LIG    1       29.120 -13.367   3.138  0.00  0.00    -0.327 NA
ATOM     14  H   LIG    1       28.841 -14.053   2.440  0.00  0.00    +0.118 HD
ATOM     15  H   LIG    1       29.077 -12.456   2.686  0.00  0.00    +0.118 HD
ENDBRANCH  12  13
ENDBRANCH   1  12
TORSDOF 2
ENDMDL
MODEL 7
REMARK VINA RESULT:      -4.3      6.348      7.558
REMARK  Name = *****
REMARK                            x       y       z     vdW  Elec       q    Type
REMARK                         _______ _______ _______ _____ _____    ______ ____
ROOT
ATOM      1  C   LIG    1       26.699 -13.388   3.950  0.00  0.00    -0.014 C 
ATOM      2  C   LIG    1       25.786 -12.972   5.138  0.00  0.00    +0.012 C 
ATOM      3  C   LIG    1       24.301 -13.000   4.730  0.00  0.00    -0.010 C 
ATOM      4  C   LIG    1       23.919 -14.419   4.285  0.00  0.00    +0.007 C 
ATOM      5  C   LIG    1       24.780 -14.840   3.084  0.00  0.00    -0.010 C 
ATOM      6  C   LIG    1       24.552 -13.862   1.924  0.00  0.00    +0.007 C 
ATOM      7  C   LIG    1       24.933 -12.440   2.359  0.00  0.00    -0.010 C 
ATOM      8  C   LIG    1       24.073 -12.026   3.563  0.00  0.00    +0.007 C 
ATOM      9  C   LIG    1       26.262 -14.812   3.492  0.00  0.00    +0.012 C 
ATOM     10  C   LIG    1       26.415 -12.412   2.766  0.00  0.00    +0.012 C 
ENDROOT
BRANCH   1  12
ATOM     11  C   LIG    1       28.664 -12.210   5.204  0.00  0.00    +0.024 C 
ATOM     12  C   LIG    1       28.226 -13.377   4.311  0.00  0.00    +0.054 C 
BRANCH  12  13
ATOM     13  N   LIG    1       29.109 -13.365   3.140  0.00  0.00    -0.327 NA
ATOM     14  H   LIG    1       29.446 -12.423   2.957  0.00  0.00    +0.118 HD
ATOM     15  H   LIG    1       29.931 -13.941   3.311  0.00  0.00    +0.118 HD
ENDBRANCH  12  13
ENDBRANCH   1  12
TORSDOF 2
ENDMDL
MODEL 8
REMARK VINA RESULT:      -4.3      6.376      7.551
REMARK  Name = *****
REMARK                            x       y       z     vdW  Elec       q    Type
REMARK                         _______ _______ _______ _____ _____    ______ ____
ROOT
ATOM      1  C   LIG    1       26.703 -13.359   3.863  0.00  0.00    -0.014 C 
ATOM      2  C   LIG    1       26.395 -12.328   2.740  0.00  0.00    +0.012 C 
ATOM      3  C   LIG    1       24.899 -12.343   2.372  0.00  0.00    -0.010 C 
ATOM      4  C   LIG    1       24.063 -11.991   3.612  0.00  0.00    +0.007 C 
ATOM      5  C   LIG    1       24.319 -13.019   4.725  0.00  0.00    -0.010 C 
ATOM      6  C   LIG    1       23.931 -14.418   4.228  0.00  0.00    +0.007 C 
ATOM      7  C   LIG    1       24.763 -14.780   2.990  0.00  0.00    -0.010 C 
ATOM      8  C   LIG    1       24.507 -13.746   1.882  0.00  0.00    +0.007 C 
ATOM      9  C   LIG    1       25.813 -13.003   5.091  0.00  0.00    +0.012 C 
ATOM     10  C   LIG    1       26.256 -14.765   3.356  0.00  0.00    +0.012 C 
ENDROOT
BRANCH   1  12
ATOM     11  C   LIG    1       28.645 -12.245   5.208  0.00  0.00    +0.024 C 
ATOM     12  C   LIG    1       28.217 -13.385   4.277  0.00  0.00    +0.054 C 
BRANCH  12  13
ATOM     13  N   LIG    1       29.141 -13.367   3.138  0.00  0.00    -0.327 NA
ATOM     14  H   LIG    1       29.353 -12.409   2.867  0.00  0.00    +0.118 HD
ATOM     15  H   LIG    1       30.025 -13.802   3.393  0.00  0.00    +0.118 HD
ENDBRANCH  12  13
ENDBRANCH   1  12
TORSDOF 2
ENDMDL
MODEL 9
REMARK VINA RESULT:      -3.9      1.081      2.292
REMARK  Name = *****
REMARK                            x       y       z     vdW  Elec       q    Type
REMARK                         _______ _______ _______ _____ _____    ______ ____
ROOT
ATOM      1  C   LIG    1       25.327 -20.255   5.096  0.00  0.00    -0.014 C 
ATOM      2  C   LIG    1       24.499 -20.180   6.410  0.00  0.00    +0.012 C 
ATOM      3  C   LIG    1       22.988 -20.189   6.112  0.00  0.00    -0.010 C 
ATOM      4  C   LIG    1       22.621 -21.481   5.368  0.00  0.00    +0.007 C 
ATOM      5  C   LIG    1       23.396 -21.561   4.044  0.00  0.00    -0.010 C 
ATOM      6  C   LIG    1       23.042 -20.351   3.170  0.00  0.00    +0.007 C 
ATOM      7  C   LIG    1       23.408 -19.054   3.905  0.00  0.00    -0.010 C 
ATOM      8  C   LIG    1       22.633 -18.981   5.230  0.00  0.00    +0.007 C 
ATOM      9  C   LIG    1       24.905 -21.552   4.343  0.00  0.00    +0.012 C 
ATOM     10  C   LIG    1       24.916 -19.044   4.202  0.00  0.00    +0.012 C 
ENDROOT
BRANCH   1  12
ATOM     11  C   LIG    1       27.306 -20.725   6.734  0.00  0.00    +0.024 C 
ATOM     12  C   LIG    1       26.877 -20.250   5.342  0.00  0.00    +0.054 C 
BRANCH  12  13
ATOM     13  N   LIG    1       27.503 -18.939   5.134  0.00  0.00    -0.327 NA
ATOM     14  H   LIG    1       27.297 -18.590   4.201  0.00  0.00    +0.118 HD
ATOM     15  H   LIG    1       27.125 -18.259   5.790  0.00  0.00    +0.118 HD
ENDBRANCH  12  13
ENDBRANCH   1  12
TORSDOF 2
ENDMDL
