MODEL 1
REMARK VINA RESULT:      -3.7      0.000      0.000
REMARK  Name = *****
REMARK                            x       y       z     vdW  Elec       q    Type
REMARK                         _______ _______ _______ _____ _____    ______ ____
ROOT
ATOM      1  C   LIG    1       21.260 -18.563   3.698  0.00  0.00    +0.029 C 
ATOM      2  C   LIG    1       22.433 -18.409   4.661  0.00  0.00    +0.137 C 
ENDROOT
BRANCH   2   3
ATOM      3  C   LIG    1       22.989 -19.768   5.110  0.00  0.00    +0.227 C 
ATOM      4  N   LIG    1       24.366 -19.865   5.025  0.00  0.00    -0.304 N 
ATOM      5  H   LIG    1       24.914 -19.034   4.830  0.00  0.00    +0.149 HD
ATOM      6  O   LIG    1       22.282 -20.700   5.478  0.00  0.00    -0.275 OA
BRANCH   4   7
ATOM      7  C   LIG    1       25.091 -21.086   5.364  0.00  0.00    +0.224 C 
BRANCH   7   8
ATOM      8  C   LIG    1       26.491 -20.847   5.936  0.00  0.00    +0.322 C 
ATOM      9  O   LIG    1       26.836 -21.226   7.037  0.00  0.00    -0.249 OA
BRANCH   8  10
ATOM     10  O   LIG    1       27.313 -20.148   5.118  0.00  0.00    -0.479 OA
ATOM     11  H   LIG    1       26.838 -19.680   4.394  0.00  0.00    +0.295 HD
ENDBRANCH   8  10
ENDBRANCH   7   8
ENDBRANCH   4   7
ENDBRANCH   2   3
BRANCH   2  12
ATOM     12  S   LIG    1       23.742 -17.421   3.866  0.00  0.00    -0.070 S 
BRANCH  12  13
ATOM     13  C   LIG    1       23.307 -15.803   4.429  0.00  0.00    +0.227 C 
ATOM     14  O   LIG    1       22.388 -15.634   5.229  0.00  0.00    -0.279 OA
BRANCH  13  15
ATOM     15  C   LIG    1       24.136 -14.764   3.850  0.00  0.00    +0.066 A 
ATOM     16  S   LIG    1       25.777 -15.111   3.483  0.00  0.00    -0.093 S 
ATOM     17  C   LIG    1       26.035 -13.554   2.822  0.00  0.00    +0.046 A 
ATOM     18  C   LIG    1       24.917 -12.759   2.926  0.00  0.00    +0.008 A 
ATOM     19  C   LIG    1       23.824 -13.451   3.523  0.00  0.00    +0.020 A 
ENDBRANCH  13  15
ENDBRANCH  12  13
ENDBRANCH   2  12
TORSDOF 7
ENDMDL
MODEL 2
REMARK VINA RESULT:      -3.6      2.169      2.674
REMARK  Name = *****
REMARK                            x       y       z     vdW  Elec       q    Type
REMARK                         _______ _______ _______ _____ _____    ______ ____
ROOT
ATOM      1  C   LIG    1       23.295 -19.086   3.808  0.00  0.00    +0.029 C 
ATOM      2  C   LIG    1       24.725 -18.822   4.268  0.00  0.00    +0.137 C 
ENDROOT
BRANCH   2   3
ATOM      3  C   LIG    1       25.374 -20.074   4.874  0.00  0.00    +0.227 C 
ATOM      4  N   LIG    1       26.466 -19.805   5.679  0.00  0.00    -0.304 N 
ATOM      5  H   LIG    1       26.673 -18.846   5.935  0.00  0.00    +0.149 HD
ATOM      6  O   LIG    1       24.988 -21.215   4.643  0.00  0.00    -0.275 OA
BRANCH   4   7
ATOM      7  C   LIG    1       27.251 -20.857   6.319  0.00  0.00    +0.224 C 
BRANCH   7   8
ATOM      8  C   LIG    1       28.725 -20.502   6.529  0.00  0.00    +0.322 C 
ATOM      9  O   LIG    1       29.198 -19.421   6.244  0.00  0.00    -0.249 OA
BRANCH   8  10
ATOM     10  O   LIG    1       29.472 -21.511   7.037  0.00  0.00    -0.479 OA
ATOM     11  H   LIG    1       29.225 -22.396   6.684  0.00  0.00    +0.295 HD
ENDBRANCH   8  10
ENDBRANCH   7   8
ENDBRANCH   4   7
ENDBRANCH   2   3
BRANCH   2  12
ATOM     12  S   LIG    1       25.710 -18.218   2.859  0.00  0.00    -0.070 S 
BRANCH  12  13
ATOM     13  C   LIG    1       26.612 -16.911   3.635  0.00  0.00    +0.227 C 
ATOM     14  O   LIG    1       27.656 -17.136   4.247  0.00  0.00    -0.279 OA
BRANCH  13  15
ATOM     15  C   LIG    1       25.989 -15.614   3.460  0.00  0.00    +0.066 A 
ATOM     16  S   LIG    1       26.857 -14.371   2.653  0.00  0.00    -0.093 S 
ATOM     17  C   LIG    1       25.543 -13.281   2.764  0.00  0.00    +0.046 A 
ATOM     18  C   LIG    1       24.480 -13.823   3.450  0.00  0.00    +0.008 A 
ATOM     19  C   LIG    1       24.737 -15.164   3.856  0.00  0.00    +0.020 A 
ENDBRANCH  13  15
ENDBRANCH  12  13
ENDBRANCH   2  12
TORSDOF 7
ENDMDL
MODEL 3
REMARK VINA RESULT:      -3.5      2.419      3.164
REMARK  Name = *****
REMARK                            x       y       z     vdW  Elec       q    Type
REMARK                         _______ _______ _______ _____ _____    ______ ____
ROOT
ATOM      1  C   LIG    1       27.145 -17.523   3.881  0.00  0.00    +0.029 C 
ATOM      2  C   LIG    1       25.739 -17.433   3.297  0.00  0.00    +0.137 C 
ENDROOT
BRANCH   2   3
ATOM      3  C   LIG    1       24.902 -18.678   3.625  0.00  0.00    +0.227 C 
ATOM      4  N   LIG    1       25.625 -19.700   4.213  0.00  0.00    -0.304 N 
ATOM      5  H   LIG    1       26.576 -19.527   4.519  0.00  0.00    +0.149 HD
ATOM      6  O   LIG    1       23.709 -18.779   3.361  0.00  0.00    -0.275 OA
BRANCH   4   7
ATOM      7  C   LIG    1       25.027 -20.985   4.566  0.00  0.00    +0.224 C 
BRANCH   7   8
ATOM      8  C   LIG    1       24.209 -20.963   5.859  0.00  0.00    +0.322 C 
ATOM      9  O   LIG    1       24.673 -21.236   6.948  0.00  0.00    -0.249 OA
BRANCH   8  10
ATOM     10  O   LIG    1       22.905 -20.639   5.686  0.00  0.00    -0.479 OA
ATOM     11  H   LIG    1       22.665 -20.477   4.745  0.00  0.00    +0.295 HD
ENDBRANCH   8  10
ENDBRANCH   7   8
ENDBRANCH   4   7
ENDBRANCH   2   3
BRANCH   2  12
ATOM     12  S   LIG    1       24.918 -15.934   3.928  0.00  0.00    -0.070 S 
BRANCH  12  13
ATOM     13  C   LIG    1       25.761 -14.691   2.996  0.00  0.00    +0.227 C 
ATOM     14  O   LIG    1       26.866 -14.910   2.499  0.00  0.00    -0.279 OA
BRANCH  13  15
ATOM     15  C   LIG    1       25.015 -13.451   2.905  0.00  0.00    +0.066 A 
ATOM     16  S   LIG    1       24.217 -12.851   4.301  0.00  0.00    -0.093 S 
ATOM     17  C   LIG    1       23.681 -11.448   3.481  0.00  0.00    +0.046 A 
ATOM     18  C   LIG    1       24.048 -11.455   2.155  0.00  0.00    +0.008 A 
ATOM     19  C   LIG    1       24.811 -12.610   1.819  0.00  0.00    +0.020 A 
ENDBRANCH  13  15
ENDBRANCH  12  13
ENDBRANCH   2  12
TORSDOF 7
ENDMDL
MODEL 4
REMARK VINA RESULT:      -3.4      3.650      6.544
REMARK  Name = *****
REMARK                            x       y       z     vdW  Elec       q    Type
REMARK                         _______ _______ _______ _____ _____    ______ ____
ROOT
ATOM      1  C   LIG    1       23.725 -13.221   3.139  0.00  0.00    +0.029 C 
ATOM      2  C   LIG    1       24.637 -14.422   3.364  0.00  0.00    +0.137 C 
ENDROOT
BRANCH   2   3
ATOM      3  C   LIG    1       25.902 -14.043   4.148  0.00  0.00    +0.227 C 
ATOM      4  N   LIG    1       27.080 -14.319   3.477  0.00  0.00    -0.304 N 
ATOM      5  H   LIG    1       27.046 -14.596   2.502  0.00  0.00    +0.149 HD
ATOM      6  O   LIG    1       25.881 -13.571   5.280  0.00  0.00    -0.275 OA
BRANCH   4   7
ATOM      7  C   LIG    1       28.395 -14.074   4.062  0.00  0.00    +0.224 C 
BRANCH   7   8
ATOM      8  C   LIG    1       28.725 -12.593   4.267  0.00  0.00    +0.322 C 
ATOM      9  O   LIG    1       28.997 -11.838   3.356  0.00  0.00    -0.249 OA
BRANCH   8  10
ATOM     10  O   LIG    1       28.717 -12.196   5.562  0.00  0.00    -0.479 OA
ATOM     11  H   LIG    1       28.604 -11.225   5.672  0.00  0.00    +0.295 HD
ENDBRANCH   8  10
ENDBRANCH   7   8
ENDBRANCH   4   7
ENDBRANCH   2   3
BRANCH   2  12
ATOM     12  S   LIG    1       23.715 -15.725   4.244  0.00  0.00    -0.070 S 
BRANCH  12  13
ATOM     13  C   LIG    1       24.581 -17.161   3.687  0.00  0.00    +0.227 C 
ATOM     14  O   LIG    1       25.638 -17.064   3.063  0.00  0.00    -0.279 OA
BRANCH  13  15
ATOM     15  C   LIG    1       23.914 -18.397   4.048  0.00  0.00    +0.066 A 
ATOM     16  S   LIG    1       24.792 -19.871   3.984  0.00  0.00    -0.093 S 
ATOM     17  C   LIG    1       23.464 -20.773   4.576  0.00  0.00    +0.046 A 
ATOM     18  C   LIG    1       22.352 -19.986   4.768  0.00  0.00    +0.008 A 
ATOM     19  C   LIG    1       22.607 -18.619   4.459  0.00  0.00    +0.020 A 
ENDBRANCH  13  15
ENDBRANCH  12  13
ENDBRANCH   2  12
TORSDOF 7
ENDMDL
MODEL 5
REMARK VINA RESULT:      -3.4      2.572      5.755
REMARK  Name = *****
REMARK                            x       y       z     vdW  Elec       q    Type
REMARK                         _______ _______ _______ _____ _____    ______ ____
ROOT
ATOM      1  C   LIG    1       21.016 -18.551   3.611  0.00  0.00    +0.029 C 
ATOM      2  C   LIG    1       22.419 -18.295   4.151  0.00  0.00    +0.137 C 
ENDROOT
BRANCH   2   3
ATOM      3  C   LIG    1       22.602 -16.840   4.607  0.00  0.00    +0.227 C 
ATOM      4  N   LIG    1       23.598 -16.162   3.927  0.00  0.00    -0.304 N 
ATOM      5  H   LIG    1       24.023 -16.586   3.110  0.00  0.00    +0.149 HD
ATOM      6  O   LIG    1       21.954 -16.329   5.514  0.00  0.00    -0.275 OA
BRANCH   4   7
ATOM      7  C   LIG    1       23.961 -14.782   4.235  0.00  0.00    +0.224 C 
BRANCH   7   8
ATOM      8  C   LIG    1       25.443 -14.459   4.024  0.00  0.00    +0.322 C 
ATOM      9  O   LIG    1       26.040 -13.618   4.663  0.00  0.00    -0.249 OA
BRANCH   8  10
ATOM     10  O   LIG    1       26.032 -15.176   3.037  0.00  0.00    -0.479 OA
ATOM     11  H   LIG    1       26.292 -14.631   2.260  0.00  0.00    +0.295 HD
ENDBRANCH   8  10
ENDBRANCH   7   8
ENDBRANCH   4   7
ENDBRANCH   2   3
BRANCH   2  12
ATOM     12  S   LIG    1       22.752 -19.437   5.532  0.00  0.00    -0.070 S 
BRANCH  12  13
ATOM     13  C   LIG    1       23.960 -20.492   4.790  0.00  0.00    +0.227 C 
ATOM     14  O   LIG    1       23.676 -21.206   3.828  0.00  0.00    -0.279 OA
BRANCH  13  15
ATOM     15  C   LIG    1       25.256 -20.405   5.434  0.00  0.00    +0.066 A 
ATOM     16  S   LIG    1       25.430 -20.968   7.046  0.00  0.00    -0.093 S 
ATOM     17  C   LIG    1       27.106 -20.629   7.062  0.00  0.00    +0.046 A 
ATOM     18  C   LIG    1       27.525 -20.046   5.888  0.00  0.00    +0.008 A 
ATOM     19  C   LIG    1       26.461 -19.910   4.951  0.00  0.00    +0.020 A 
ENDBRANCH  13  15
ENDBRANCH  12  13
ENDBRANCH   2  12
TORSDOF 7
ENDMDL
MODEL 6
REMARK VINA RESULT:      -3.3      2.387      3.186
REMARK  Name = *****
REMARK                            x       y       z     vdW  Elec       q    Type
REMARK                         _______ _______ _______ _____ _____    ______ ____
ROOT
ATOM      1  C   LIG    1       26.831 -16.815   3.680  0.00  0.00    +0.029 C 
ATOM      2  C   LIG    1       25.364 -16.814   3.265  0.00  0.00    +0.137 C 
ENDROOT
BRANCH   2   3
ATOM      3  C   LIG    1       24.657 -18.122   3.650  0.00  0.00    +0.227 C 
ATOM      4  N   LIG    1       25.498 -19.219   3.698  0.00  0.00    -0.304 N 
ATOM      5  H   LIG    1       26.501 -19.083   3.632  0.00  0.00    +0.149 HD
ATOM      6  O   LIG    1       23.452 -18.203   3.863  0.00  0.00    -0.275 OA
BRANCH   4   7
ATOM      7  C   LIG    1       25.020 -20.564   4.003  0.00  0.00    +0.224 C 
BRANCH   7   8
ATOM      8  C   LIG    1       25.030 -20.912   5.494  0.00  0.00    +0.322 C 
ATOM      9  O   LIG    1       24.137 -20.604   6.257  0.00  0.00    -0.249 OA
BRANCH   8  10
ATOM     10  O   LIG    1       26.140 -21.571   5.903  0.00  0.00    -0.479 OA
ATOM     11  H   LIG    1       26.197 -21.672   6.880  0.00  0.00    +0.295 HD
ENDBRANCH   8  10
ENDBRANCH   7   8
ENDBRANCH   4   7
ENDBRANCH   2   3
BRANCH   2  12
ATOM     12  S   LIG    1       24.521 -15.391   4.031  0.00  0.00    -0.070 S 
BRANCH  12  13
ATOM     13  C   LIG    1       25.206 -14.066   3.083  0.00  0.00    +0.227 C 
ATOM     14  O   LIG    1       24.626 -13.631   2.088  0.00  0.00    -0.279 OA
BRANCH  13  15
ATOM     15  C   LIG    1       26.470 -13.589   3.610  0.00  0.00    +0.066 A 
ATOM     16  S   LIG    1       26.618 -13.304   5.296  0.00  0.00    -0.093 S 
ATOM     17  C   LIG    1       28.269 -12.879   5.153  0.00  0.00    +0.046 A 
ATOM     18  C   LIG    1       28.694 -12.896   3.844  0.00  0.00    +0.008 A 
ATOM     19  C   LIG    1       27.658 -13.299   2.953  0.00  0.00    +0.020 A 
ENDBRANCH  13  15
ENDBRANCH  12  13
ENDBRANCH   2  12
TORSDOF 7
ENDMDL
MODEL 7
REMARK VINA RESULT:      -3.2      2.291      3.132
REMARK  Name = *****
REMARK                            x       y       z     vdW  Elec       q    Type
REMARK                         _______ _______ _______ _____ _____    ______ ____
ROOT
ATOM      1  C   LIG    1       22.342 -16.121   4.813  0.00  0.00    +0.029 C 
ATOM      2  C   LIG    1       23.731 -15.645   4.403  0.00  0.00    +0.137 C 
ENDROOT
BRANCH   2   3
ATOM      3  C   LIG    1       24.554 -16.767   3.752  0.00  0.00    +0.227 C 
ATOM      4  N   LIG    1       23.986 -18.022   3.878  0.00  0.00    -0.304 N 
ATOM      5  H   LIG    1       23.041 -18.109   4.236  0.00  0.00    +0.149 HD
ATOM      6  O   LIG    1       25.633 -16.582   3.201  0.00  0.00    -0.275 OA
BRANCH   4   7
ATOM      7  C   LIG    1       24.626 -19.230   3.367  0.00  0.00    +0.224 C 
BRANCH   7   8
ATOM      8  C   LIG    1       25.312 -20.081   4.440  0.00  0.00    +0.322 C 
ATOM      9  O   LIG    1       24.704 -20.740   5.258  0.00  0.00    -0.249 OA
BRANCH   8  10
ATOM     10  O   LIG    1       26.664 -20.014   4.420  0.00  0.00    -0.479 OA
ATOM     11  H   LIG    1       27.061 -20.380   3.597  0.00  0.00    +0.295 HD
ENDBRANCH   8  10
ENDBRANCH   7   8
ENDBRANCH   4   7
ENDBRANCH   2   3
BRANCH   2  12
ATOM     12  S   LIG    1       23.573 -14.234   3.261  0.00  0.00    -0.070 S 
BRANCH  12  13
ATOM     13  C   LIG    1       24.422 -12.983   4.177  0.00  0.00    +0.227 C 
ATOM     14  O   LIG    1       23.812 -12.040   4.681  0.00  0.00    -0.279 OA
BRANCH  13  15
ATOM     15  C   LIG    1       25.852 -13.211   4.250  0.00  0.00    +0.066 A 
ATOM     16  S   LIG    1       26.748 -13.374   2.794  0.00  0.00    -0.093 S 
ATOM     17  C   LIG    1       28.229 -13.523   3.637  0.00  0.00    +0.046 A 
ATOM     18  C   LIG    1       28.050 -13.508   5.001  0.00  0.00    +0.008 A 
ATOM     19  C   LIG    1       26.681 -13.334   5.356  0.00  0.00    +0.020 A 
ENDBRANCH  13  15
ENDBRANCH  12  13
ENDBRANCH   2  12
TORSDOF 7
ENDMDL
MODEL 8
REMARK VINA RESULT:      -3.1      3.009      6.869
REMARK  Name = *****
REMARK                            x       y       z     vdW  Elec       q    Type
REMARK                         _______ _______ _______ _____ _____    ______ ____
ROOT
ATOM      1  C   LIG    1       27.919 -16.718   4.082  0.00  0.00    +0.029 C 
ATOM      2  C   LIG    1       26.402 -16.633   3.947  0.00  0.00    +0.137 C 
ENDROOT
BRANCH   2   3
ATOM      3  C   LIG    1       25.956 -15.312   3.303  0.00  0.00    +0.227 C 
ATOM      4  N   LIG    1       24.769 -14.815   3.811  0.00  0.00    -0.304 N 
ATOM      5  H   LIG    1       24.362 -15.240   4.636  0.00  0.00    +0.149 HD
ATOM      6  O   LIG    1       26.570 -14.760   2.397  0.00  0.00    -0.275 OA
BRANCH   4   7
ATOM      7  C   LIG    1       24.149 -13.592   3.308  0.00  0.00    +0.224 C 
BRANCH   7   8
ATOM      8  C   LIG    1       24.226 -12.406   4.272  0.00  0.00    +0.322 C 
ATOM      9  O   LIG    1       23.484 -11.447   4.211  0.00  0.00    -0.249 OA
BRANCH   8  10
ATOM     10  O   LIG    1       25.217 -12.501   5.191  0.00  0.00    -0.479 OA
ATOM     11  H   LIG    1       25.779 -11.695   5.243  0.00  0.00    +0.295 HD
ENDBRANCH   8  10
ENDBRANCH   7   8
ENDBRANCH   4   7
ENDBRANCH   2   3
BRANCH   2  12
ATOM     12  S   LIG    1       25.803 -18.048   2.968  0.00  0.00    -0.070 S 
BRANCH  12  13
ATOM     13  C   LIG    1       25.681 -19.281   4.228  0.00  0.00    +0.227 C 
ATOM     14  O   LIG    1       26.684 -19.703   4.803  0.00  0.00    -0.279 OA
BRANCH  13  15
ATOM     15  C   LIG    1       24.315 -19.700   4.477  0.00  0.00    +0.066 A 
ATOM     16  S   LIG    1       24.027 -21.238   5.183  0.00  0.00    -0.093 S 
ATOM     17  C   LIG    1       22.336 -20.984   5.225  0.00  0.00    +0.046 A 
ATOM     18  C   LIG    1       21.982 -19.779   4.662  0.00  0.00    +0.008 A 
ATOM     19  C   LIG    1       23.119 -19.040   4.226  0.00  0.00    +0.020 A 
ENDBRANCH  13  15
ENDBRANCH  12  13
ENDBRANCH   2  12
TORSDOF 7
ENDMDL
MODEL 9
REMARK VINA RESULT:      -2.8      2.613      6.067
REMARK  Name = *****
REMARK                            x       y       z     vdW  Elec       q    Type
REMARK                         _______ _______ _______ _____ _____    ______ ____
ROOT
ATOM      1  C   LIG    1       23.004 -18.941   4.870  0.00  0.00    +0.029 C 
ATOM      2  C   LIG    1       23.827 -19.561   3.745  0.00  0.00    +0.137 C 
ENDROOT
BRANCH   2   3
ATOM      3  C   LIG    1       24.965 -18.637   3.289  0.00  0.00    +0.227 C 
ATOM      4  N   LIG    1       24.812 -17.321   3.689  0.00  0.00    -0.304 N 
ATOM      5  H   LIG    1       24.082 -17.083   4.352  0.00  0.00    +0.149 HD
ATOM      6  O   LIG    1       25.908 -19.014   2.603  0.00  0.00    -0.275 OA
BRANCH   4   7
ATOM      7  C   LIG    1       25.760 -16.273   3.325  0.00  0.00    +0.224 C 
BRANCH   7   8
ATOM      8  C   LIG    1       25.217 -14.851   3.486  0.00  0.00    +0.322 C 
ATOM      9  O   LIG    1       24.526 -14.502   4.421  0.00  0.00    -0.249 OA
BRANCH   8  10
ATOM     10  O   LIG    1       25.550 -14.012   2.476  0.00  0.00    -0.479 OA
ATOM     11  H   LIG    1       25.979 -14.467   1.716  0.00  0.00    +0.295 HD
ENDBRANCH   8  10
ENDBRANCH   7   8
ENDBRANCH   4   7
ENDBRANCH   2   3
BRANCH   2  12
ATOM     12  S   LIG    1       24.496 -21.163   4.299  0.00  0.00    -0.070 S 
BRANCH  12  13
ATOM     13  C   LIG    1       24.899 -20.779   5.977  0.00  0.00    +0.227 C 
ATOM     14  O   LIG    1       24.017 -20.553   6.806  0.00  0.00    -0.279 OA
BRANCH  13  15
ATOM     15  C   LIG    1       26.327 -20.770   6.226  0.00  0.00    +0.066 A 
ATOM     16  S   LIG    1       27.313 -19.632   5.400  0.00  0.00    -0.093 S 
ATOM     17  C   LIG    1       28.724 -20.153   6.215  0.00  0.00    +0.046 A 
ATOM     18  C   LIG    1       28.471 -21.211   7.058  0.00  0.00    +0.008 A 
ATOM     19  C   LIG    1       27.093 -21.571   7.062  0.00  0.00    +0.020 A 
ENDBRANCH  13  15
ENDBRANCH  12  13
ENDBRANCH   2  12
TORSDOF 7
ENDMDL
