MODEL 1
REMARK VINA RESULT:      -8.8      0.000      0.000
REMARK  Name = *****
REMARK                            x       y       z     vdW  Elec       q    Type
REMARK                         _______ _______ _______ _____ _____    ______ ____
ROOT
ATOM      1  C   LIG    1       28.056 -20.021   6.567  0.00  0.00    +0.164 A 
ATOM      2  C   LIG    1       28.101 -21.129   7.405  0.00  0.00    +0.163 A 
ATOM      3  C   LIG    1       27.093 -22.096   7.319  0.00  0.00    +0.062 A 
ATOM      4  C   LIG    1       25.956 -21.932   6.477  0.00  0.00    +0.044 A 
ATOM      5  C   LIG    1       25.870 -20.764   5.736  0.00  0.00    +0.080 A 
ATOM      6  N   LIG    1       24.845 -20.493   4.898  0.00  0.00    -0.235 NA
ATOM      7  C   LIG    1       23.939 -21.454   4.747  0.00  0.00    +0.224 A 
ATOM      8  N   LIG    1       23.954 -22.651   5.341  0.00  0.00    -0.220 NA
ATOM      9  C   LIG    1       24.947 -22.893   6.236  0.00  0.00    +0.134 A 
ATOM     10  C   LIG    1       26.911 -19.828   5.772  0.00  0.00    +0.077 A 
ENDROOT
BRANCH   1  12
ATOM     11  C   LIG    1       29.426 -18.358   5.474  0.00  0.00    +0.277 C 
ATOM     12  O   LIG    1       29.135 -19.194   6.580  0.00  0.00    -0.491 OA
ENDBRANCH   1  12
BRANCH   9  13
ATOM     13  N   LIG    1       24.875 -24.195   6.744  0.00  0.00    -0.299 N 
ATOM     14  H   LIG    1       25.166 -24.137   7.718  0.00  0.00    +0.154 HD
BRANCH  13  15
ATOM     15  C   LIG    1       24.950 -25.513   6.244  0.00  0.00    +0.034 A 
ATOM     16  C   LIG    1       24.425 -26.633   6.886  0.00  0.00    +0.046 A 
ATOM     17  C   LIG    1       24.760 -27.929   6.475  0.00  0.00    +0.078 A 
ATOM     18 CL   LIG    1       24.251 -29.273   7.427  0.00  0.00    -0.081 Cl
ATOM     19  C   LIG    1       25.526 -28.120   5.332  0.00  0.00    +0.142 A 
ATOM     20  F   LIG    1       25.846 -29.353   4.913  0.00  0.00    -0.204 F 
ATOM     21  C   LIG    1       25.947 -27.025   4.591  0.00  0.00    +0.041 A 
ATOM     22  C   LIG    1       25.681 -25.733   5.061  0.00  0.00    +0.026 A 
ENDBRANCH  13  15
ENDBRANCH   9  13
BRANCH   2  23
ATOM     23  O   LIG    1       29.037 -21.426   8.366  0.00  0.00    -0.488 OA
BRANCH  23  24
ATOM     24  C   LIG    1       30.388 -21.088   8.092  0.00  0.00    +0.230 C 
BRANCH  24  25
ATOM     25  C   LIG    1       30.944 -20.101   9.126  0.00  0.00    +0.056 C 
BRANCH  25  26
ATOM     26  C   LIG    1       31.859 -18.954   8.615  0.00  0.00    +0.088 C 
BRANCH  26  27
ATOM     27  N   LIG    1       31.348 -17.579   8.709  0.00  0.00    -0.298 NA
ATOM     28  C   LIG    1       30.170 -17.434   9.604  0.00  0.00    +0.112 C 
ATOM     29  C   LIG    1       30.479 -17.381  11.117  0.00  0.00    +0.175 C 
ATOM     30  O   LIG    1       31.468 -16.392  11.423  0.00  0.00    -0.377 OA
ATOM     31  C   LIG    1       32.656 -16.606  10.652  0.00  0.00    +0.175 C 
ATOM     32  C   LIG    1       32.354 -16.593   9.147  0.00  0.00    +0.112 C 
ENDBRANCH  26  27
ENDBRANCH  25  26
ENDBRANCH  24  25
ENDBRANCH  23  24
ENDBRANCH   2  23
TORSDOF 8
ENDMDL
MODEL 2
REMARK VINA RESULT:      -8.8      5.912      8.798
REMARK  Name = *****
REMARK                            x       y       z     vdW  Elec       q    Type
REMARK                         _______ _______ _______ _____ _____    ______ ____
ROOT
ATOM      1  C   LIG    1       25.615 -30.321   9.487  0.00  0.00    +0.164 A 
ATOM      2  C   LIG    1       26.385 -29.177   9.654  0.00  0.00    +0.163 A 
ATOM      3  C   LIG    1       26.293 -28.143   8.715  0.00  0.00    +0.062 A 
ATOM      4  C   LIG    1       25.516 -28.266   7.528  0.00  0.00    +0.044 A 
ATOM      5  C   LIG    1       24.848 -29.462   7.320  0.00  0.00    +0.080 A 
ATOM      6  N   LIG    1       24.077 -29.700   6.236  0.00  0.00    -0.235 NA
ATOM      7  C   LIG    1       23.914 -28.683   5.396  0.00  0.00    +0.224 A 
ATOM      8  N   LIG    1       24.437 -27.461   5.527  0.00  0.00    -0.220 NA
ATOM      9  C   LIG    1       25.268 -27.246   6.580  0.00  0.00    +0.134 A 
ATOM     10  C   LIG    1       24.888 -30.470   8.291  0.00  0.00    +0.077 A 
ENDROOT
BRANCH   1  12
ATOM     11  C   LIG    1       24.929 -32.454  10.391  0.00  0.00    +0.277 C 
ATOM     12  O   LIG    1       25.624 -31.225  10.502  0.00  0.00    -0.491 OA
ENDBRANCH   1  12
BRANCH   9  13
ATOM     13  N   LIG    1       25.705 -25.917   6.629  0.00  0.00    -0.299 N 
ATOM     14  H   LIG    1       26.651 -25.942   7.003  0.00  0.00    +0.154 HD
BRANCH  13  15
ATOM     15  C   LIG    1       25.124 -24.635   6.732  0.00  0.00    +0.034 A 
ATOM     16  C   LIG    1       25.812 -23.484   7.114  0.00  0.00    +0.046 A 
ATOM     17  C   LIG    1       25.129 -22.309   7.450  0.00  0.00    +0.078 A 
ATOM     18 CL   LIG    1       26.011 -20.983   8.112  0.00  0.00    -0.081 Cl
ATOM     19  C   LIG    1       23.752 -22.232   7.285  0.00  0.00    +0.142 A 
ATOM     20  F   LIG    1       23.082 -21.111   7.588  0.00  0.00    -0.204 F 
ATOM     21  C   LIG    1       23.056 -23.317   6.773  0.00  0.00    +0.041 A 
ATOM     22  C   LIG    1       23.737 -24.516   6.525  0.00  0.00    +0.026 A 
ENDBRANCH  13  15
ENDBRANCH   9  13
BRANCH   2  23
ATOM     23  O   LIG    1       27.283 -28.900  10.657  0.00  0.00    -0.488 OA
BRANCH  23  24
ATOM     24  C   LIG    1       27.046 -27.746  11.449  0.00  0.00    +0.230 C 
BRANCH  24  25
ATOM     25  C   LIG    1       26.049 -28.031  12.578  0.00  0.00    +0.056 C 
BRANCH  25  26
ATOM     26  C   LIG    1       25.403 -26.816  13.300  0.00  0.00    +0.088 C 
BRANCH  26  27
ATOM     27  N   LIG    1       25.929 -26.448  14.623  0.00  0.00    -0.298 NA
ATOM     28  C   LIG    1       27.385 -26.149  14.630  0.00  0.00    +0.112 C 
ATOM     29  C   LIG    1       27.784 -24.745  14.123  0.00  0.00    +0.175 C 
ATOM     30  O   LIG    1       27.054 -23.710  14.793  0.00  0.00    -0.377 OA
ATOM     31  C   LIG    1       25.643 -23.928  14.678  0.00  0.00    +0.175 C 
ATOM     32  C   LIG    1       25.242 -25.299  15.243  0.00  0.00    +0.112 C 
ENDBRANCH  26  27
ENDBRANCH  25  26
ENDBRANCH  24  25
ENDBRANCH  23  24
ENDBRANCH   2  23
TORSDOF 8
ENDMDL
MODEL 3
REMARK VINA RESULT:      -8.7      6.222      9.713
REMARK  Name = *****
REMARK                            x       y       z     vdW  Elec       q    Type
REMARK                         _______ _______ _______ _____ _____    ______ ____
ROOT
ATOM      1  C   LIG    1       25.690 -30.294   9.400  0.00  0.00    +0.164 A 
ATOM      2  C   LIG    1       26.463 -29.151   9.557  0.00  0.00    +0.163 A 
ATOM      3  C   LIG    1       26.347 -28.109   8.629  0.00  0.00    +0.062 A 
ATOM      4  C   LIG    1       25.540 -28.223   7.461  0.00  0.00    +0.044 A 
ATOM      5  C   LIG    1       24.868 -29.418   7.260  0.00  0.00    +0.080 A 
ATOM      6  N   LIG    1       24.070 -29.648   6.194  0.00  0.00    -0.235 NA
ATOM      7  C   LIG    1       23.885 -28.625   5.366  0.00  0.00    +0.224 A 
ATOM      8  N   LIG    1       24.411 -27.403   5.494  0.00  0.00    -0.220 NA
ATOM      9  C   LIG    1       25.269 -27.196   6.528  0.00  0.00    +0.134 A 
ATOM     10  C   LIG    1       24.933 -30.435   8.222  0.00  0.00    +0.077 A 
ENDROOT
BRANCH   1  12
ATOM     11  C   LIG    1       24.589 -31.437  11.222  0.00  0.00    +0.277 C 
ATOM     12  O   LIG    1       25.725 -31.206  10.407  0.00  0.00    -0.491 OA
ENDBRANCH   1  12
BRANCH   9  13
ATOM     13  N   LIG    1       25.705 -25.867   6.576  0.00  0.00    -0.299 N 
ATOM     14  H   LIG    1       26.663 -25.895   6.919  0.00  0.00    +0.154 HD
BRANCH  13  15
ATOM     15  C   LIG    1       25.128 -24.587   6.710  0.00  0.00    +0.034 A 
ATOM     16  C   LIG    1       25.822 -23.443   7.102  0.00  0.00    +0.046 A 
ATOM     17  C   LIG    1       25.145 -22.274   7.469  0.00  0.00    +0.078 A 
ATOM     18 CL   LIG    1       26.038 -20.961   8.141  0.00  0.00    -0.081 Cl
ATOM     19  C   LIG    1       23.766 -22.194   7.326  0.00  0.00    +0.142 A 
ATOM     20  F   LIG    1       23.101 -21.078   7.659  0.00  0.00    -0.204 F 
ATOM     21  C   LIG    1       23.061 -23.269   6.806  0.00  0.00    +0.041 A 
ATOM     22  C   LIG    1       23.737 -24.464   6.526  0.00  0.00    +0.026 A 
ENDBRANCH  13  15
ENDBRANCH   9  13
BRANCH   2  23
ATOM     23  O   LIG    1       27.386 -28.882  10.539  0.00  0.00    -0.488 OA
BRANCH  23  24
ATOM     24  C   LIG    1       27.094 -27.824  11.440  0.00  0.00    +0.230 C 
BRANCH  24  25
ATOM     25  C   LIG    1       26.117 -28.269  12.535  0.00  0.00    +0.056 C 
BRANCH  25  26
ATOM     26  C   LIG    1       25.249 -27.177  13.220  0.00  0.00    +0.088 C 
BRANCH  26  27
ATOM     27  N   LIG    1       24.182 -27.622  14.127  0.00  0.00    -0.298 NA
ATOM     28  C   LIG    1       23.126 -26.601  14.359  0.00  0.00    +0.112 C 
ATOM     29  C   LIG    1       22.067 -26.467  13.242  0.00  0.00    +0.175 C 
ATOM     30  O   LIG    1       21.482 -27.731  12.909  0.00  0.00    -0.377 OA
ATOM     31  C   LIG    1       22.493 -28.683  12.560  0.00  0.00    +0.175 C 
ATOM     32  C   LIG    1       23.507 -28.862  13.700  0.00  0.00    +0.112 C 
ENDBRANCH  26  27
ENDBRANCH  25  26
ENDBRANCH  24  25
ENDBRANCH  23  24
ENDBRANCH   2  23
TORSDOF 8
ENDMDL
MODEL 4
REMARK VINA RESULT:      -8.4      3.192      4.821
REMARK  Name = *****
REMARK                            x       y       z     vdW  Elec       q    Type
REMARK                         _______ _______ _______ _____ _____    ______ ____
ROOT
ATOM      1  C   LIG    1       25.061 -23.126   5.602  0.00  0.00    +0.164 A 
ATOM      2  C   LIG    1       25.454 -23.286   6.925  0.00  0.00    +0.163 A 
ATOM      3  C   LIG    1       25.739 -24.569   7.406  0.00  0.00    +0.062 A 
ATOM      4  C   LIG    1       25.535 -25.737   6.616  0.00  0.00    +0.044 A 
ATOM      5  C   LIG    1       25.029 -25.565   5.337  0.00  0.00    +0.080 A 
ATOM      6  N   LIG    1       24.795 -26.592   4.490  0.00  0.00    -0.235 NA
ATOM      7  C   LIG    1       25.157 -27.798   4.914  0.00  0.00    +0.224 A 
ATOM      8  N   LIG    1       25.726 -28.082   6.090  0.00  0.00    -0.220 NA
ATOM      9  C   LIG    1       25.895 -27.058   6.967  0.00  0.00    +0.134 A 
ATOM     10  C   LIG    1       24.807 -24.277   4.834  0.00  0.00    +0.077 A 
ENDROOT
BRANCH   1  12
ATOM     11  C   LIG    1       23.696 -21.186   5.140  0.00  0.00    +0.277 C 
ATOM     12  O   LIG    1       24.947 -21.851   5.142  0.00  0.00    -0.491 OA
ENDBRANCH   1  12
BRANCH   9  13
ATOM     13  N   LIG    1       26.545 -27.481   8.132  0.00  0.00    -0.299 N 
ATOM     14  H   LIG    1       27.531 -27.262   8.002  0.00  0.00    +0.154 HD
BRANCH  13  15
ATOM     15  C   LIG    1       26.340 -28.437   9.149  0.00  0.00    +0.034 A 
ATOM     16  C   LIG    1       25.576 -29.594   9.004  0.00  0.00    +0.046 A 
ATOM     17  C   LIG    1       25.198 -30.357  10.115  0.00  0.00    +0.078 A 
ATOM     18 CL   LIG    1       24.085 -31.657   9.904  0.00  0.00    -0.081 Cl
ATOM     19  C   LIG    1       25.688 -30.042  11.376  0.00  0.00    +0.142 A 
ATOM     20  F   LIG    1       25.349 -30.769  12.451  0.00  0.00    -0.204 F 
ATOM     21  C   LIG    1       26.564 -28.978  11.531  0.00  0.00    +0.041 A 
ATOM     22  C   LIG    1       26.865 -28.168  10.428  0.00  0.00    +0.026 A 
ENDBRANCH  13  15
ENDBRANCH   9  13
BRANCH   2  23
ATOM     23  O   LIG    1       25.601 -22.317   7.887  0.00  0.00    -0.488 OA
BRANCH  23  24
ATOM     24  C   LIG    1       26.919 -21.874   8.175  0.00  0.00    +0.230 C 
BRANCH  24  25
ATOM     25  C   LIG    1       27.335 -20.712   7.264  0.00  0.00    +0.056 C 
BRANCH  25  26
ATOM     26  C   LIG    1       28.576 -19.875   7.678  0.00  0.00    +0.088 C 
BRANCH  26  27
ATOM     27  N   LIG    1       29.898 -20.354   7.250  0.00  0.00    -0.298 NA
ATOM     28  C   LIG    1       30.863 -19.265   6.945  0.00  0.00    +0.112 C 
ATOM     29  C   LIG    1       31.541 -18.607   8.168  0.00  0.00    +0.175 C 
ATOM     30  O   LIG    1       32.136 -19.580   9.034  0.00  0.00    -0.377 OA
ATOM     31  C   LIG    1       31.173 -20.562   9.433  0.00  0.00    +0.175 C 
ATOM     32  C   LIG    1       30.550 -21.259   8.215  0.00  0.00    +0.112 C 
ENDBRANCH  26  27
ENDBRANCH  25  26
ENDBRANCH  24  25
ENDBRANCH  23  24
ENDBRANCH   2  23
TORSDOF 8
ENDMDL
MODEL 5
REMARK VINA RESULT:      -8.3      4.169      5.909
REMARK  Name = *****
REMARK                            x       y       z     vdW  Elec       q    Type
REMARK                         _______ _______ _______ _____ _____    ______ ____
ROOT
ATOM      1  C   LIG    1       28.234 -21.116   7.741  0.00  0.00    +0.164 A 
ATOM      2  C   LIG    1       28.151 -20.387   6.561  0.00  0.00    +0.163 A 
ATOM      3  C   LIG    1       26.992 -20.472   5.781  0.00  0.00    +0.062 A 
ATOM      4  C   LIG    1       25.931 -21.369   6.096  0.00  0.00    +0.044 A 
ATOM      5  C   LIG    1       26.084 -22.174   7.214  0.00  0.00    +0.080 A 
ATOM      6  N   LIG    1       25.149 -23.062   7.619  0.00  0.00    -0.235 NA
ATOM      7  C   LIG    1       24.011 -23.072   6.933  0.00  0.00    +0.224 A 
ATOM      8  N   LIG    1       23.712 -22.290   5.890  0.00  0.00    -0.220 NA
ATOM      9  C   LIG    1       24.681 -21.449   5.442  0.00  0.00    +0.134 A 
ATOM     10  C   LIG    1       27.214 -22.041   8.030  0.00  0.00    +0.077 A 
ENDROOT
BRANCH   1  12
ATOM     11  C   LIG    1       30.334 -21.847   8.685  0.00  0.00    +0.277 C 
ATOM     12  O   LIG    1       29.309 -20.880   8.538  0.00  0.00    -0.491 OA
ENDBRANCH   1  12
BRANCH   9  13
ATOM     13  N   LIG    1       24.223 -20.655   4.384  0.00  0.00    -0.299 N 
ATOM     14  H   LIG    1       24.552 -21.102   3.530  0.00  0.00    +0.154 HD
BRANCH  13  15
ATOM     15  C   LIG    1       23.863 -19.307   4.175  0.00  0.00    +0.034 A 
ATOM     16  C   LIG    1       24.724 -18.325   3.689  0.00  0.00    +0.046 A 
ATOM     17  C   LIG    1       24.387 -16.967   3.756  0.00  0.00    +0.078 A 
ATOM     18 CL   LIG    1       25.569 -15.785   3.333  0.00  0.00    -0.081 Cl
ATOM     19  C   LIG    1       23.126 -16.584   4.193  0.00  0.00    +0.142 A 
ATOM     20  F   LIG    1       22.779 -15.289   4.251  0.00  0.00    -0.204 F 
ATOM     21  C   LIG    1       22.196 -17.548   4.552  0.00  0.00    +0.041 A 
ATOM     22  C   LIG    1       22.574 -18.896   4.566  0.00  0.00    +0.026 A 
ENDBRANCH  13  15
ENDBRANCH   9  13
BRANCH   2  23
ATOM     23  O   LIG    1       29.097 -19.556   6.012  0.00  0.00    -0.488 OA
BRANCH  23  24
ATOM     24  C   LIG    1       29.670 -18.567   6.854  0.00  0.00    +0.230 C 
BRANCH  24  25
ATOM     25  C   LIG    1       31.161 -18.827   7.097  0.00  0.00    +0.056 C 
BRANCH  25  26
ATOM     26  C   LIG    1       31.773 -18.340   8.439  0.00  0.00    +0.088 C 
BRANCH  26  27
ATOM     27  N   LIG    1       31.324 -17.043   8.965  0.00  0.00    -0.298 NA
ATOM     28  C   LIG    1       30.358 -17.152  10.089  0.00  0.00    +0.112 C 
ATOM     29  C   LIG    1       30.972 -17.456  11.474  0.00  0.00    +0.175 C 
ATOM     30  O   LIG    1       32.026 -16.543  11.802  0.00  0.00    -0.377 OA
ATOM     31  C   LIG    1       33.025 -16.531  10.776  0.00  0.00    +0.175 C 
ATOM     32  C   LIG    1       32.420 -16.164   9.413  0.00  0.00    +0.112 C 
ENDBRANCH  26  27
ENDBRANCH  25  26
ENDBRANCH  24  25
ENDBRANCH  23  24
ENDBRANCH   2  23
TORSDOF 8
ENDMDL
MODEL 6
REMARK VINA RESULT:      -8.2      4.383      8.947
REMARK  Name = *****
REMARK                            x       y       z     vdW  Elec       q    Type
REMARK                         _______ _______ _______ _____ _____    ______ ____
ROOT
ATOM      1  C   LIG    1       23.533 -21.724   6.393  0.00  0.00    +0.164 A 
ATOM      2  C   LIG    1       24.824 -22.119   6.721  0.00  0.00    +0.163 A 
ATOM      3  C   LIG    1       25.913 -21.423   6.182  0.00  0.00    +0.062 A 
ATOM      4  C   LIG    1       25.748 -20.388   5.219  0.00  0.00    +0.044 A 
ATOM      5  C   LIG    1       24.456 -20.087   4.815  0.00  0.00    +0.080 A 
ATOM      6  N   LIG    1       24.168 -19.125   3.912  0.00  0.00    -0.235 NA
ATOM      7  C   LIG    1       25.195 -18.402   3.475  0.00  0.00    +0.224 A 
ATOM      8  N   LIG    1       26.471 -18.540   3.847  0.00  0.00    -0.220 NA
ATOM      9  C   LIG    1       26.766 -19.555   4.703  0.00  0.00    +0.134 A 
ATOM     10  C   LIG    1       23.364 -20.738   5.403  0.00  0.00    +0.077 A 
ENDROOT
BRANCH   1  12
ATOM     11  C   LIG    1       22.146 -23.666   6.771  0.00  0.00    +0.277 C 
ATOM     12  O   LIG    1       22.515 -22.329   7.061  0.00  0.00    -0.491 OA
ENDBRANCH   1  12
BRANCH   9  13
ATOM     13  N   LIG    1       28.122 -19.556   5.050  0.00  0.00    -0.299 N 
ATOM     14  H   LIG    1       28.631 -19.826   4.210  0.00  0.00    +0.154 HD
BRANCH  13  15
ATOM     15  C   LIG    1       28.897 -19.719   6.218  0.00  0.00    +0.034 A 
ATOM     16  C   LIG    1       29.754 -18.753   6.741  0.00  0.00    +0.046 A 
ATOM     17  C   LIG    1       30.684 -19.070   7.739  0.00  0.00    +0.078 A 
ATOM     18 CL   LIG    1       31.856 -17.894   8.202  0.00  0.00    -0.081 Cl
ATOM     19  C   LIG    1       30.678 -20.332   8.319  0.00  0.00    +0.142 A 
ATOM     20  F   LIG    1       31.551 -20.652   9.286  0.00  0.00    -0.204 F 
ATOM     21  C   LIG    1       29.742 -21.274   7.916  0.00  0.00    +0.041 A 
ATOM     22  C   LIG    1       28.878 -20.975   6.856  0.00  0.00    +0.026 A 
ENDBRANCH  13  15
ENDBRANCH   9  13
BRANCH   2  23
ATOM     23  O   LIG    1       25.211 -23.158   7.533  0.00  0.00    -0.488 OA
BRANCH  23  24
ATOM     24  C   LIG    1       25.980 -24.197   6.948  0.00  0.00    +0.230 C 
BRANCH  24  25
ATOM     25  C   LIG    1       25.190 -24.943   5.866  0.00  0.00    +0.056 C 
BRANCH  25  26
ATOM     26  C   LIG    1       24.583 -26.325   6.234  0.00  0.00    +0.088 C 
BRANCH  26  27
ATOM     27  N   LIG    1       25.467 -27.498   6.175  0.00  0.00    -0.298 NA
ATOM     28  C   LIG    1       25.641 -28.187   7.480  0.00  0.00    +0.112 C 
ATOM     29  C   LIG    1       24.488 -29.126   7.902  0.00  0.00    +0.175 C 
ATOM     30  O   LIG    1       24.167 -30.069   6.873  0.00  0.00    -0.377 OA
ATOM     31  C   LIG    1       23.873 -29.398   5.642  0.00  0.00    +0.175 C 
ATOM     32  C   LIG    1       25.048 -28.517   5.194  0.00  0.00    +0.112 C 
ENDBRANCH  26  27
ENDBRANCH  25  26
ENDBRANCH  24  25
ENDBRANCH  23  24
ENDBRANCH   2  23
TORSDOF 8
ENDMDL
MODEL 7
REMARK VINA RESULT:      -8.1      1.920      2.643
REMARK  Name = *****
REMARK                            x       y       z     vdW  Elec       q    Type
REMARK                         _______ _______ _______ _____ _____    ______ ____
ROOT
ATOM      1  C   LIG    1       25.690 -18.505   3.792  0.00  0.00    +0.164 A 
ATOM      2  C   LIG    1       26.543 -19.282   4.565  0.00  0.00    +0.163 A 
ATOM      3  C   LIG    1       26.032 -20.391   5.250  0.00  0.00    +0.062 A 
ATOM      4  C   LIG    1       24.640 -20.691   5.272  0.00  0.00    +0.044 A 
ATOM      5  C   LIG    1       23.789 -19.835   4.591  0.00  0.00    +0.080 A 
ATOM      6  N   LIG    1       22.450 -20.013   4.533  0.00  0.00    -0.235 NA
ATOM      7  C   LIG    1       21.979 -21.118   5.103  0.00  0.00    +0.224 A 
ATOM      8  N   LIG    1       22.703 -22.058   5.718  0.00  0.00    -0.220 NA
ATOM      9  C   LIG    1       24.040 -21.841   5.835  0.00  0.00    +0.134 A 
ATOM     10  C   LIG    1       24.308 -18.764   3.852  0.00  0.00    +0.077 A 
ENDROOT
BRANCH   1  12
ATOM     11  C   LIG    1       26.123 -16.168   3.361  0.00  0.00    +0.277 C 
ATOM     12  O   LIG    1       26.260 -17.537   3.026  0.00  0.00    -0.491 OA
ENDBRANCH   1  12
BRANCH   9  13
ATOM     13  N   LIG    1       24.684 -22.920   6.451  0.00  0.00    -0.299 N 
ATOM     14  H   LIG    1       25.392 -22.517   7.062  0.00  0.00    +0.154 HD
BRANCH  13  15
ATOM     15  C   LIG    1       24.933 -24.280   6.170  0.00  0.00    +0.034 A 
ATOM     16  C   LIG    1       25.273 -25.236   7.127  0.00  0.00    +0.046 A 
ATOM     17  C   LIG    1       25.761 -26.494   6.754  0.00  0.00    +0.078 A 
ATOM     18 CL   LIG    1       26.359 -27.559   7.972  0.00  0.00    -0.081 Cl
ATOM     19  C   LIG    1       25.796 -26.858   5.415  0.00  0.00    +0.142 A 
ATOM     20  F   LIG    1       26.247 -28.064   5.038  0.00  0.00    -0.204 F 
ATOM     21  C   LIG    1       25.333 -25.979   4.447  0.00  0.00    +0.041 A 
ATOM     22  C   LIG    1       24.930 -24.691   4.824  0.00  0.00    +0.026 A 
ENDBRANCH  13  15
ENDBRANCH   9  13
BRANCH   2  23
ATOM     23  O   LIG    1       27.889 -19.106   4.777  0.00  0.00    -0.488 OA
BRANCH  23  24
ATOM     24  C   LIG    1       28.445 -19.660   5.960  0.00  0.00    +0.230 C 
BRANCH  24  25
ATOM     25  C   LIG    1       29.812 -19.046   6.282  0.00  0.00    +0.056 C 
BRANCH  25  26
ATOM     26  C   LIG    1       29.946 -18.217   7.589  0.00  0.00    +0.088 C 
BRANCH  26  27
ATOM     27  N   LIG    1       30.952 -18.646   8.571  0.00  0.00    -0.298 NA
ATOM     28  C   LIG    1       32.191 -17.825   8.562  0.00  0.00    +0.112 C 
ATOM     29  C   LIG    1       32.103 -16.471   9.302  0.00  0.00    +0.175 C 
ATOM     30  O   LIG    1       31.611 -16.625  10.637  0.00  0.00    -0.377 OA
ATOM     31  C   LIG    1       30.351 -17.306  10.639  0.00  0.00    +0.175 C 
ATOM     32  C   LIG    1       30.459 -18.679   9.961  0.00  0.00    +0.112 C 
ENDBRANCH  26  27
ENDBRANCH  25  26
ENDBRANCH  24  25
ENDBRANCH  23  24
ENDBRANCH   2  23
TORSDOF 8
ENDMDL
MODEL 8
REMARK VINA RESULT:      -7.9      5.308      8.137
REMARK  Name = *****
REMARK                            x       y       z     vdW  Elec       q    Type
REMARK                         _______ _______ _______ _____ _____    ______ ____
ROOT
ATOM      1  C   LIG    1       24.010 -20.194   4.828  0.00  0.00    +0.164 A 
ATOM      2  C   LIG    1       25.232 -19.613   4.514  0.00  0.00    +0.163 A 
ATOM      3  C   LIG    1       26.333 -19.834   5.348  0.00  0.00    +0.062 A 
ATOM      4  C   LIG    1       26.221 -20.548   6.576  0.00  0.00    +0.044 A 
ATOM      5  C   LIG    1       24.967 -21.019   6.931  0.00  0.00    +0.080 A 
ATOM      6  N   LIG    1       24.732 -21.712   8.067  0.00  0.00    -0.235 NA
ATOM      7  C   LIG    1       25.796 -22.004   8.809  0.00  0.00    +0.224 A 
ATOM      8  N   LIG    1       27.062 -21.677   8.534  0.00  0.00    -0.220 NA
ATOM      9  C   LIG    1       27.286 -20.920   7.428  0.00  0.00    +0.134 A 
ATOM     10  C   LIG    1       23.880 -20.854   6.064  0.00  0.00    +0.077 A 
ENDROOT
BRANCH   1  12
ATOM     11  C   LIG    1       21.798 -19.426   4.228  0.00  0.00    +0.277 C 
ATOM     12  O   LIG    1       23.016 -20.077   3.908  0.00  0.00    -0.491 OA
ENDBRANCH   1  12
BRANCH   9  13
ATOM     13  N   LIG    1       28.653 -20.693   7.228  0.00  0.00    -0.299 N 
ATOM     14  H   LIG    1       29.029 -21.552   6.831  0.00  0.00    +0.154 HD
BRANCH  13  15
ATOM     15  C   LIG    1       29.663 -19.874   7.776  0.00  0.00    +0.034 A 
ATOM     16  C   LIG    1       29.537 -19.148   8.959  0.00  0.00    +0.046 A 
ATOM     17  C   LIG    1       30.464 -18.158   9.306  0.00  0.00    +0.078 A 
ATOM     18 CL   LIG    1       30.151 -17.152  10.670  0.00  0.00    -0.081 Cl
ATOM     19  C   LIG    1       31.603 -17.970   8.532  0.00  0.00    +0.142 A 
ATOM     20  F   LIG    1       32.510 -17.036   8.855  0.00  0.00    -0.204 F 
ATOM     21  C   LIG    1       31.826 -18.773   7.424  0.00  0.00    +0.041 A 
ATOM     22  C   LIG    1       30.849 -19.699   7.037  0.00  0.00    +0.026 A 
ENDBRANCH  13  15
ENDBRANCH   9  13
BRANCH   2  23
ATOM     23  O   LIG    1       25.532 -18.798   3.448  0.00  0.00    -0.488 OA
BRANCH  23  24
ATOM     24  C   LIG    1       26.688 -17.981   3.553  0.00  0.00    +0.230 C 
BRANCH  24  25
ATOM     25  C   LIG    1       26.357 -16.502   3.326  0.00  0.00    +0.056 C 
BRANCH  25  26
ATOM     26  C   LIG    1       27.277 -15.442   3.993  0.00  0.00    +0.088 C 
BRANCH  26  27
ATOM     27  N   LIG    1       26.891 -14.028   3.872  0.00  0.00    -0.298 NA
ATOM     28  C   LIG    1       26.471 -13.634   2.502  0.00  0.00    +0.112 C 
ATOM     29  C   LIG    1       25.029 -14.021   2.105  0.00  0.00    +0.175 C 
ATOM     30  O   LIG    1       24.072 -13.575   3.073  0.00  0.00    -0.377 OA
ATOM     31  C   LIG    1       24.406 -14.062   4.378  0.00  0.00    +0.175 C 
ATOM     32  C   LIG    1       25.816 -13.619   4.795  0.00  0.00    +0.112 C 
ENDBRANCH  26  27
ENDBRANCH  25  26
ENDBRANCH  24  25
ENDBRANCH  23  24
ENDBRANCH   2  23
TORSDOF 8
ENDMDL
MODEL 9
REMARK VINA RESULT:      -7.7      4.939      8.983
REMARK  Name = *****
REMARK                            x       y       z     vdW  Elec       q    Type
REMARK                         _______ _______ _______ _____ _____    ______ ____
ROOT
ATOM      1  C   LIG    1       24.220 -25.907   6.301  0.00  0.00    +0.164 A 
ATOM      2  C   LIG    1       25.554 -25.814   6.679  0.00  0.00    +0.163 A 
ATOM      3  C   LIG    1       26.072 -24.573   7.067  0.00  0.00    +0.062 A 
ATOM      4  C   LIG    1       25.309 -23.374   6.984  0.00  0.00    +0.044 A 
ATOM      5  C   LIG    1       24.017 -23.470   6.491  0.00  0.00    +0.080 A 
ATOM      6  N   LIG    1       23.192 -22.407   6.366  0.00  0.00    -0.235 NA
ATOM      7  C   LIG    1       23.653 -21.247   6.825  0.00  0.00    +0.224 A 
ATOM      8  N   LIG    1       24.845 -21.043   7.393  0.00  0.00    -0.220 NA
ATOM      9  C   LIG    1       25.699 -22.098   7.453  0.00  0.00    +0.134 A 
ATOM     10  C   LIG    1       23.477 -24.720   6.165  0.00  0.00    +0.077 A 
ENDROOT
BRANCH   1  12
ATOM     11  C   LIG    1       24.313 -28.013   5.119  0.00  0.00    +0.277 C 
ATOM     12  O   LIG    1       23.727 -27.155   6.083  0.00  0.00    -0.491 OA
ENDBRANCH   1  12
BRANCH   9  13
ATOM     13  N   LIG    1       26.886 -21.763   8.114  0.00  0.00    -0.299 N 
ATOM     14  H   LIG    1       26.686 -21.832   9.110  0.00  0.00    +0.154 HD
BRANCH  13  15
ATOM     15  C   LIG    1       28.040 -20.993   7.855  0.00  0.00    +0.034 A 
ATOM     16  C   LIG    1       28.097 -19.935   6.949  0.00  0.00    +0.046 A 
ATOM     17  C   LIG    1       29.322 -19.390   6.546  0.00  0.00    +0.078 A 
ATOM     18 CL   LIG    1       29.349 -18.228   5.273  0.00  0.00    -0.081 Cl
ATOM     19  C   LIG    1       30.502 -19.814   7.144  0.00  0.00    +0.142 A 
ATOM     20  F   LIG    1       31.685 -19.295   6.782  0.00  0.00    -0.204 F 
ATOM     21  C   LIG    1       30.464 -20.768   8.150  0.00  0.00    +0.041 A 
ATOM     22  C   LIG    1       29.243 -21.369   8.481  0.00  0.00    +0.026 A 
ENDBRANCH  13  15
ENDBRANCH   9  13
BRANCH   2  23
ATOM     23  O   LIG    1       26.494 -26.815   6.721  0.00  0.00    -0.488 OA
BRANCH  23  24
ATOM     24  C   LIG    1       26.761 -27.412   7.981  0.00  0.00    +0.230 C 
BRANCH  24  25
ATOM     25  C   LIG    1       25.807 -28.577   8.267  0.00  0.00    +0.056 C 
BRANCH  25  26
ATOM     26  C   LIG    1       26.059 -29.424   9.544  0.00  0.00    +0.088 C 
BRANCH  26  27
ATOM     27  N   LIG    1       25.977 -28.743  10.844  0.00  0.00    -0.298 NA
ATOM     28  C   LIG    1       25.285 -29.534  11.896  0.00  0.00    +0.112 C 
ATOM     29  C   LIG    1       26.131 -30.636  12.571  0.00  0.00    +0.175 C 
ATOM     30  O   LIG    1       27.375 -30.126  13.062  0.00  0.00    -0.377 OA
ATOM     31  C   LIG    1       28.104 -29.472  12.017  0.00  0.00    +0.175 C 
ATOM     32  C   LIG    1       27.284 -28.334  11.392  0.00  0.00    +0.112 C 
ENDBRANCH  26  27
ENDBRANCH  25  26
ENDBRANCH  24  25
ENDBRANCH  23  24
ENDBRANCH   2  23
TORSDOF 8
ENDMDL
