MODEL 1
REMARK VINA RESULT:      -8.2      0.000      0.000
REMARK  Name = *****
REMARK                            x       y       z     vdW  Elec       q    Type
REMARK                         _______ _______ _______ _____ _____    ______ ____
ROOT
ATOM      1  C   LIG    1       25.704 -21.267   7.160  0.00  0.00    +0.042 A 
ATOM      2  C   LIG    1       26.460 -20.456   6.270  0.00  0.00    +0.074 A 
ATOM      3 CL   LIG    1       26.000 -20.022   4.652  0.00  0.00    -0.081 Cl
ATOM      4  C   LIG    1       27.762 -20.041   6.633  0.00  0.00    +0.102 A 
ATOM      5 CL   LIG    1       28.724 -18.997   5.609  0.00  0.00    -0.078 Cl
ATOM      6  C   LIG    1       28.363 -20.537   7.787  0.00  0.00    +0.141 A 
ATOM      7  C   LIG    1       27.741 -21.569   8.454  0.00  0.00    +0.048 A 
ATOM      8  C   LIG    1       26.391 -21.815   8.260  0.00  0.00    +0.017 A 
ENDROOT
BRANCH   1   9
ATOM      9  C   LIG    1       24.271 -21.748   7.114  0.00  0.00    +0.190 C 
ATOM     10  O   LIG    1       23.400 -20.958   7.481  0.00  0.00    -0.287 OA
BRANCH   9  12
ATOM     11  C   LIG    1       22.616 -23.534   6.771  0.00  0.00    +0.016 C 
ATOM     12  C   LIG    1       23.856 -23.067   6.533  0.00  0.00    -0.007 C 
BRANCH  12  13
ATOM     13  C   LIG    1       24.795 -23.916   5.756  0.00  0.00    +0.035 C 
ATOM     14  C   LIG    1       25.526 -24.979   6.552  0.00  0.00    +0.009 C 
ENDBRANCH  12  13
ENDBRANCH   9  12
ENDBRANCH   1   9
BRANCH   6  15
ATOM     15  O   LIG    1       29.522 -19.965   8.197  0.00  0.00    -0.479 OA
BRANCH  15  16
ATOM     16  C   LIG    1       30.738 -20.666   8.110  0.00  0.00    +0.349 C 
BRANCH  16  17
ATOM     17  C   LIG    1       31.235 -21.813   9.027  0.00  0.00    +0.343 C 
ATOM     18  O   LIG    1       30.837 -21.924  10.155  0.00  0.00    -0.247 OA
BRANCH  17  19
ATOM     19  O   LIG    1       32.212 -22.651   8.606  0.00  0.00    -0.478 OA
ATOM     20  H   LIG    1       32.373 -22.837   7.706  0.00  0.00    +0.295 HD
ENDBRANCH  17  19
ENDBRANCH  16  17
ENDBRANCH  15  16
ENDBRANCH   6  15
TORSDOF 7
ENDMDL
MODEL 2
REMARK VINA RESULT:      -8.1      1.918      2.675
REMARK  Name = *****
REMARK                            x       y       z     vdW  Elec       q    Type
REMARK                         _______ _______ _______ _____ _____    ______ ____
ROOT
ATOM      1  C   LIG    1       27.149 -21.185   7.534  0.00  0.00    +0.042 A 
ATOM      2  C   LIG    1       27.225 -20.298   6.425  0.00  0.00    +0.074 A 
ATOM      3 CL   LIG    1       26.022 -20.120   5.185  0.00  0.00    -0.081 Cl
ATOM      4  C   LIG    1       28.411 -19.564   6.193  0.00  0.00    +0.102 A 
ATOM      5 CL   LIG    1       28.549 -18.415   4.880  0.00  0.00    -0.078 Cl
ATOM      6  C   LIG    1       29.550 -19.808   6.954  0.00  0.00    +0.141 A 
ATOM      7  C   LIG    1       29.550 -20.897   7.797  0.00  0.00    +0.048 A 
ATOM      8  C   LIG    1       28.354 -21.464   8.207  0.00  0.00    +0.017 A 
ENDROOT
BRANCH   1   9
ATOM      9  C   LIG    1       26.002 -21.987   8.107  0.00  0.00    +0.190 C 
ATOM     10  O   LIG    1       25.660 -21.733   9.263  0.00  0.00    -0.287 OA
BRANCH   9  12
ATOM     11  C   LIG    1       25.795 -24.052   6.787  0.00  0.00    +0.016 C 
ATOM     12  C   LIG    1       25.194 -22.967   7.309  0.00  0.00    -0.007 C 
BRANCH  12  13
ATOM     13  C   LIG    1       23.755 -22.746   7.015  0.00  0.00    +0.035 C 
ATOM     14  C   LIG    1       23.306 -21.296   7.002  0.00  0.00    +0.009 C 
ENDBRANCH  12  13
ENDBRANCH   9  12
ENDBRANCH   1   9
BRANCH   6  15
ATOM     15  O   LIG    1       30.594 -18.952   6.830  0.00  0.00    -0.479 OA
BRANCH  15  16
ATOM     16  C   LIG    1       31.688 -19.020   7.710  0.00  0.00    +0.349 C 
BRANCH  16  17
ATOM     17  C   LIG    1       32.052 -18.028   8.845  0.00  0.00    +0.343 C 
ATOM     18  O   LIG    1       31.963 -18.346  10.000  0.00  0.00    -0.247 OA
BRANCH  17  19
ATOM     19  O   LIG    1       32.375 -16.745   8.556  0.00  0.00    -0.478 OA
ATOM     20  H   LIG    1       32.064 -16.017   9.051  0.00  0.00    +0.295 HD
ENDBRANCH  17  19
ENDBRANCH  16  17
ENDBRANCH  15  16
ENDBRANCH   6  15
TORSDOF 7
ENDMDL
MODEL 3
REMARK VINA RESULT:      -8.0      1.578      2.281
REMARK  Name = *****
REMARK                            x       y       z     vdW  Elec       q    Type
REMARK                         _______ _______ _______ _____ _____    ______ ____
ROOT
ATOM      1  C   LIG    1       25.224 -20.998   7.061  0.00  0.00    +0.042 A 
ATOM      2  C   LIG    1       26.152 -20.379   6.180  0.00  0.00    +0.074 A 
ATOM      3 CL   LIG    1       25.867 -19.999   4.509  0.00  0.00    -0.081 Cl
ATOM      4  C   LIG    1       27.478 -20.141   6.610  0.00  0.00    +0.102 A 
ATOM      5 CL   LIG    1       28.653 -19.332   5.595  0.00  0.00    -0.078 Cl
ATOM      6  C   LIG    1       27.921 -20.636   7.833  0.00  0.00    +0.141 A 
ATOM      7  C   LIG    1       27.105 -21.511   8.516  0.00  0.00    +0.048 A 
ATOM      8  C   LIG    1       25.748 -21.562   8.240  0.00  0.00    +0.017 A 
ENDROOT
BRANCH   1   9
ATOM      9  C   LIG    1       23.740 -21.258   6.941  0.00  0.00    +0.190 C 
ATOM     10  O   LIG    1       23.201 -21.878   7.860  0.00  0.00    -0.287 OA
BRANCH   9  12
ATOM     11  C   LIG    1       22.365 -21.529   4.919  0.00  0.00    +0.016 C 
ATOM     12  C   LIG    1       22.884 -20.699   5.843  0.00  0.00    -0.007 C 
BRANCH  12  13
ATOM     13  C   LIG    1       22.643 -19.241   5.699  0.00  0.00    +0.035 C 
ATOM     14  C   LIG    1       22.353 -18.763   4.288  0.00  0.00    +0.009 C 
ENDBRANCH  12  13
ENDBRANCH   9  12
ENDBRANCH   1   9
BRANCH   6  15
ATOM     15  O   LIG    1       29.127 -20.219   8.289  0.00  0.00    -0.479 OA
BRANCH  15  16
ATOM     16  C   LIG    1       30.287 -20.975   8.046  0.00  0.00    +0.349 C 
BRANCH  16  17
ATOM     17  C   LIG    1       31.025 -21.919   9.030  0.00  0.00    +0.343 C 
ATOM     18  O   LIG    1       30.752 -21.933  10.200  0.00  0.00    -0.247 OA
BRANCH  17  19
ATOM     19  O   LIG    1       32.069 -22.670   8.606  0.00  0.00    -0.478 OA
ATOM     20  H   LIG    1       32.713 -22.357   8.007  0.00  0.00    +0.295 HD
ENDBRANCH  17  19
ENDBRANCH  16  17
ENDBRANCH  15  16
ENDBRANCH   6  15
TORSDOF 7
ENDMDL
MODEL 4
REMARK VINA RESULT:      -7.9      2.613      3.430
REMARK  Name = *****
REMARK                            x       y       z     vdW  Elec       q    Type
REMARK                         _______ _______ _______ _____ _____    ______ ____
ROOT
ATOM      1  C   LIG    1       26.140 -21.013   5.972  0.00  0.00    +0.042 A 
ATOM      2  C   LIG    1       26.883 -21.478   7.092  0.00  0.00    +0.074 A 
ATOM      3 CL   LIG    1       26.254 -22.429   8.403  0.00  0.00    -0.081 Cl
ATOM      4  C   LIG    1       28.221 -21.057   7.271  0.00  0.00    +0.102 A 
ATOM      5 CL   LIG    1       29.207 -21.636   8.597  0.00  0.00    -0.078 Cl
ATOM      6  C   LIG    1       28.769 -20.082   6.442  0.00  0.00    +0.141 A 
ATOM      7  C   LIG    1       27.930 -19.414   5.579  0.00  0.00    +0.048 A 
ATOM      8  C   LIG    1       26.707 -19.962   5.227  0.00  0.00    +0.017 A 
ENDROOT
BRANCH   1   9
ATOM      9  C   LIG    1       24.769 -21.379   5.450  0.00  0.00    +0.190 C 
ATOM     10  O   LIG    1       24.704 -22.301   4.635  0.00  0.00    -0.287 OA
BRANCH   9  12
ATOM     11  C   LIG    1       23.295 -20.677   7.290  0.00  0.00    +0.016 C 
ATOM     12  C   LIG    1       23.496 -20.773   5.963  0.00  0.00    -0.007 C 
BRANCH  12  13
ATOM     13  C   LIG    1       22.409 -20.335   5.049  0.00  0.00    +0.035 C 
ATOM     14  C   LIG    1       22.442 -18.872   4.649  0.00  0.00    +0.009 C 
ENDBRANCH  12  13
ENDBRANCH   9  12
ENDBRANCH   1   9
BRANCH   6  15
ATOM     15  O   LIG    1       30.103 -19.855   6.523  0.00  0.00    -0.479 OA
BRANCH  15  16
ATOM     16  C   LIG    1       30.597 -18.688   7.131  0.00  0.00    +0.349 C 
BRANCH  16  17
ATOM     17  C   LIG    1       31.708 -18.580   8.207  0.00  0.00    +0.343 C 
ATOM     18  O   LIG    1       31.954 -19.499   8.941  0.00  0.00    -0.247 OA
BRANCH  17  19
ATOM     19  O   LIG    1       32.350 -17.406   8.413  0.00  0.00    -0.478 OA
ATOM     20  H   LIG    1       32.127 -16.816   9.101  0.00  0.00    +0.295 HD
ENDBRANCH  17  19
ENDBRANCH  16  17
ENDBRANCH  15  16
ENDBRANCH   6  15
TORSDOF 7
ENDMDL
MODEL 5
REMARK VINA RESULT:      -7.7      2.737      3.829
REMARK  Name = *****
REMARK                            x       y       z     vdW  Elec       q    Type
REMARK                         _______ _______ _______ _____ _____    ______ ____
ROOT
ATOM      1  C   LIG    1       25.755 -20.391   5.430  0.00  0.00    +0.042 A 
ATOM      2  C   LIG    1       25.327 -20.874   6.697  0.00  0.00    +0.074 A 
ATOM      3 CL   LIG    1       23.682 -20.956   7.249  0.00  0.00    -0.081 Cl
ATOM      4  C   LIG    1       26.286 -21.214   7.680  0.00  0.00    +0.102 A 
ATOM      5 CL   LIG    1       25.827 -21.867   9.238  0.00  0.00    -0.078 Cl
ATOM      6  C   LIG    1       27.635 -20.945   7.469  0.00  0.00    +0.141 A 
ATOM      7  C   LIG    1       27.985 -20.179   6.379  0.00  0.00    +0.048 A 
ATOM      8  C   LIG    1       27.116 -20.048   5.308  0.00  0.00    +0.017 A 
ENDROOT
BRANCH   1   9
ATOM      9  C   LIG    1       24.995 -20.078   4.161  0.00  0.00    +0.190 C 
ATOM     10  O   LIG    1       24.582 -21.034   3.502  0.00  0.00    -0.287 OA
BRANCH   9  12
ATOM     11  C   LIG    1       25.558 -17.865   3.248  0.00  0.00    +0.016 C 
ATOM     12  C   LIG    1       24.615 -18.689   3.742  0.00  0.00    -0.007 C 
BRANCH  12  13
ATOM     13  C   LIG    1       23.237 -18.163   3.917  0.00  0.00    +0.035 C 
ATOM     14  C   LIG    1       22.298 -19.045   4.719  0.00  0.00    +0.009 C 
ENDBRANCH  12  13
ENDBRANCH   9  12
ENDBRANCH   1   9
BRANCH   6  15
ATOM     15  O   LIG    1       28.531 -21.463   8.345  0.00  0.00    -0.479 OA
BRANCH  15  16
ATOM     16  C   LIG    1       29.903 -21.181   8.221  0.00  0.00    +0.349 C 
BRANCH  16  17
ATOM     17  C   LIG    1       31.035 -21.538   9.218  0.00  0.00    +0.343 C 
ATOM     18  O   LIG    1       30.885 -22.393  10.049  0.00  0.00    -0.247 OA
BRANCH  17  19
ATOM     19  O   LIG    1       32.181 -20.816   9.241  0.00  0.00    -0.478 OA
ATOM     20  H   LIG    1       32.875 -20.942   8.630  0.00  0.00    +0.295 HD
ENDBRANCH  17  19
ENDBRANCH  16  17
ENDBRANCH  15  16
ENDBRANCH   6  15
TORSDOF 7
ENDMDL
MODEL 6
REMARK VINA RESULT:      -7.5      3.536      6.476
REMARK  Name = *****
REMARK                            x       y       z     vdW  Elec       q    Type
REMARK                         _______ _______ _______ _____ _____    ______ ____
ROOT
ATOM      1  C   LIG    1       25.797 -22.161   7.277  0.00  0.00    +0.042 A 
ATOM      2  C   LIG    1       24.383 -22.126   7.135  0.00  0.00    +0.074 A 
ATOM      3 CL   LIG    1       23.351 -20.801   7.577  0.00  0.00    -0.081 Cl
ATOM      4  C   LIG    1       23.690 -23.287   6.719  0.00  0.00    +0.102 A 
ATOM      5 CL   LIG    1       21.957 -23.294   6.470  0.00  0.00    -0.078 Cl
ATOM      6  C   LIG    1       24.362 -24.499   6.587  0.00  0.00    +0.141 A 
ATOM      7  C   LIG    1       25.658 -24.579   7.047  0.00  0.00    +0.048 A 
ATOM      8  C   LIG    1       26.409 -23.429   7.226  0.00  0.00    +0.017 A 
ENDROOT
BRANCH   1   9
ATOM      9  C   LIG    1       26.808 -21.076   7.569  0.00  0.00    +0.190 C 
ATOM     10  O   LIG    1       27.072 -20.856   8.753  0.00  0.00    -0.287 OA
BRANCH   9  12
ATOM     11  C   LIG    1       26.962 -19.963   5.381  0.00  0.00    +0.016 C 
ATOM     12  C   LIG    1       27.586 -20.357   6.507  0.00  0.00    -0.007 C 
BRANCH  12  13
ATOM     13  C   LIG    1       29.048 -20.122   6.625  0.00  0.00    +0.035 C 
ATOM     14  C   LIG    1       29.534 -18.770   6.139  0.00  0.00    +0.009 C 
ENDBRANCH  12  13
ENDBRANCH   9  12
ENDBRANCH   1   9
BRANCH   6  15
ATOM     15  O   LIG    1       23.705 -25.529   6.001  0.00  0.00    -0.479 OA
BRANCH  15  16
ATOM     16  C   LIG    1       24.402 -26.669   5.563  0.00  0.00    +0.349 C 
BRANCH  16  17
ATOM     17  C   LIG    1       24.287 -28.116   6.109  0.00  0.00    +0.343 C 
ATOM     18  O   LIG    1       24.969 -28.491   7.024  0.00  0.00    -0.247 OA
BRANCH  17  19
ATOM     19  O   LIG    1       23.489 -29.019   5.492  0.00  0.00    -0.478 OA
ATOM     20  H   LIG    1       22.641 -28.810   5.163  0.00  0.00    +0.295 HD
ENDBRANCH  17  19
ENDBRANCH  16  17
ENDBRANCH  15  16
ENDBRANCH   6  15
TORSDOF 7
ENDMDL
MODEL 7
REMARK VINA RESULT:      -7.2      2.272      2.880
REMARK  Name = *****
REMARK                            x       y       z     vdW  Elec       q    Type
REMARK                         _______ _______ _______ _____ _____    ______ ____
ROOT
ATOM      1  C   LIG    1       26.288 -20.963   6.119  0.00  0.00    +0.042 A 
ATOM      2  C   LIG    1       27.031 -21.441   7.232  0.00  0.00    +0.074 A 
ATOM      3 CL   LIG    1       26.389 -22.347   8.568  0.00  0.00    -0.081 Cl
ATOM      4  C   LIG    1       28.389 -21.074   7.381  0.00  0.00    +0.102 A 
ATOM      5 CL   LIG    1       29.375 -21.674   8.697  0.00  0.00    -0.078 Cl
ATOM      6  C   LIG    1       28.961 -20.135   6.527  0.00  0.00    +0.141 A 
ATOM      7  C   LIG    1       28.135 -19.444   5.670  0.00  0.00    +0.048 A 
ATOM      8  C   LIG    1       26.884 -19.946   5.348  0.00  0.00    +0.017 A 
ENDROOT
BRANCH   1   9
ATOM      9  C   LIG    1       24.894 -21.278   5.627  0.00  0.00    +0.190 C 
ATOM     10  O   LIG    1       24.753 -21.467   4.417  0.00  0.00    -0.287 OA
BRANCH   9  12
ATOM     11  C   LIG    1       23.321 -20.503   7.351  0.00  0.00    +0.016 C 
ATOM     12  C   LIG    1       23.721 -21.497   6.536  0.00  0.00    -0.007 C 
BRANCH  12  13
ATOM     13  C   LIG    1       23.023 -22.805   6.621  0.00  0.00    +0.035 C 
ATOM     14  C   LIG    1       23.922 -24.027   6.607  0.00  0.00    +0.009 C 
ENDBRANCH  12  13
ENDBRANCH   9  12
ENDBRANCH   1   9
BRANCH   6  15
ATOM     15  O   LIG    1       30.305 -19.962   6.582  0.00  0.00    -0.479 OA
BRANCH  15  16
ATOM     16  C   LIG    1       30.859 -18.827   7.199  0.00  0.00    +0.349 C 
BRANCH  16  17
ATOM     17  C   LIG    1       31.481 -18.731   8.616  0.00  0.00    +0.343 C 
ATOM     18  O   LIG    1       32.084 -19.654   9.094  0.00  0.00    -0.247 OA
BRANCH  17  19
ATOM     19  O   LIG    1       31.265 -17.639   9.387  0.00  0.00    -0.478 OA
ATOM     20  H   LIG    1       31.885 -17.322  10.008  0.00  0.00    +0.295 HD
ENDBRANCH  17  19
ENDBRANCH  16  17
ENDBRANCH  15  16
ENDBRANCH   6  15
TORSDOF 7
ENDMDL
MODEL 8
REMARK VINA RESULT:      -7.2      1.888      6.231
REMARK  Name = *****
REMARK                            x       y       z     vdW  Elec       q    Type
REMARK                         _______ _______ _______ _____ _____    ______ ____
ROOT
ATOM      1  C   LIG    1       27.874 -20.449   7.542  0.00  0.00    +0.042 A 
ATOM      2  C   LIG    1       27.383 -20.092   6.257  0.00  0.00    +0.074 A 
ATOM      3 CL   LIG    1       28.260 -19.209   5.045  0.00  0.00    -0.081 Cl
ATOM      4  C   LIG    1       26.031 -20.343   5.926  0.00  0.00    +0.102 A 
ATOM      5 CL   LIG    1       25.379 -19.980   4.343  0.00  0.00    -0.078 Cl
ATOM      6  C   LIG    1       25.143 -20.802   6.896  0.00  0.00    +0.141 A 
ATOM      7  C   LIG    1       25.564 -20.825   8.207  0.00  0.00    +0.048 A 
ATOM      8  C   LIG    1       26.917 -20.816   8.507  0.00  0.00    +0.017 A 
ENDROOT
BRANCH   1   9
ATOM      9  C   LIG    1       29.266 -20.430   8.131  0.00  0.00    +0.190 C 
ATOM     10  O   LIG    1       29.691 -21.485   8.606  0.00  0.00    -0.287 OA
BRANCH   9  12
ATOM     11  C   LIG    1       31.203 -19.260   7.165  0.00  0.00    +0.016 C 
ATOM     12  C   LIG    1       30.187 -19.249   8.049  0.00  0.00    -0.007 C 
BRANCH  12  13
ATOM     13  C   LIG    1       30.059 -18.086   8.964  0.00  0.00    +0.035 C 
ATOM     14  C   LIG    1       31.335 -17.304   9.210  0.00  0.00    +0.009 C 
ENDBRANCH  12  13
ENDBRANCH   9  12
ENDBRANCH   1   9
BRANCH   6  15
ATOM     15  O   LIG    1       23.917 -21.213   6.491  0.00  0.00    -0.479 OA
BRANCH  15  16
ATOM     16  C   LIG    1       23.394 -22.446   6.919  0.00  0.00    +0.349 C 
BRANCH  16  17
ATOM     17  C   LIG    1       23.955 -23.863   6.630  0.00  0.00    +0.343 C 
ATOM     18  O   LIG    1       25.136 -24.051   6.511  0.00  0.00    -0.247 OA
BRANCH  17  19
ATOM     19  O   LIG    1       23.114 -24.898   6.398  0.00  0.00    -0.478 OA
ATOM     20  H   LIG    1       22.492 -25.200   7.025  0.00  0.00    +0.295 HD
ENDBRANCH  17  19
ENDBRANCH  16  17
ENDBRANCH  15  16
ENDBRANCH   6  15
TORSDOF 7
ENDMDL
MODEL 9
REMARK VINA RESULT:      -7.1      2.019      2.799
REMARK  Name = *****
REMARK                            x       y       z     vdW  Elec       q    Type
REMARK                         _______ _______ _______ _____ _____    ______ ____
ROOT
ATOM      1  C   LIG    1       25.237 -20.702   6.942  0.00  0.00    +0.042 A 
ATOM      2  C   LIG    1       26.263 -20.320   6.036  0.00  0.00    +0.074 A 
ATOM      3 CL   LIG    1       26.044 -19.947   4.353  0.00  0.00    -0.081 Cl
ATOM      4  C   LIG    1       27.614 -20.348   6.452  0.00  0.00    +0.102 A 
ATOM      5 CL   LIG    1       28.919 -19.836   5.403  0.00  0.00    -0.078 Cl
ATOM      6  C   LIG    1       27.958 -20.882   7.690  0.00  0.00    +0.141 A 
ATOM      7  C   LIG    1       26.987 -21.544   8.407  0.00  0.00    +0.048 A 
ATOM      8  C   LIG    1       25.646 -21.322   8.138  0.00  0.00    +0.017 A 
ENDROOT
BRANCH   1   9
ATOM      9  C   LIG    1       23.729 -20.652   6.838  0.00  0.00    +0.190 C 
ATOM     10  O   LIG    1       23.090 -20.701   7.890  0.00  0.00    -0.287 OA
BRANCH   9  12
ATOM     11  C   LIG    1       22.182 -21.382   5.071  0.00  0.00    +0.016 C 
ATOM     12  C   LIG    1       22.992 -20.421   5.552  0.00  0.00    -0.007 C 
BRANCH  12  13
ATOM     13  C   LIG    1       23.181 -19.187   4.747  0.00  0.00    +0.035 C 
ATOM     14  C   LIG    1       21.922 -18.385   4.477  0.00  0.00    +0.009 C 
ENDBRANCH  12  13
ENDBRANCH   9  12
ENDBRANCH   1   9
BRANCH   6  15
ATOM     15  O   LIG    1       29.230 -20.709   8.126  0.00  0.00    -0.479 OA
BRANCH  15  16
ATOM     16  C   LIG    1       29.767 -19.419   8.283  0.00  0.00    +0.349 C 
BRANCH  16  17
ATOM     17  C   LIG    1       31.255 -19.031   8.479  0.00  0.00    +0.343 C 
ATOM     18  O   LIG    1       31.742 -18.114   7.875  0.00  0.00    -0.247 OA
BRANCH  17  19
ATOM     19  O   LIG    1       32.064 -19.789   9.256  0.00  0.00    -0.478 OA
ATOM     20  H   LIG    1       32.075 -20.722   9.223  0.00  0.00    +0.295 HD
ENDBRANCH  17  19
ENDBRANCH  16  17
ENDBRANCH  15  16
ENDBRANCH   6  15
TORSDOF 7
ENDMDL
