MODEL 1
REMARK VINA RESULT:      -9.2      0.000      0.000
REMARK  Name = *****
REMARK                            x       y       z     vdW  Elec       q    Type
REMARK                         _______ _______ _______ _____ _____    ______ ____
ROOT
ATOM      1  C   LIG    1       28.104 -21.006   7.361  0.00  0.00    +0.122 A 
ATOM      2  C   LIG    1       27.316 -21.507   8.402  0.00  0.00    +0.046 A 
ATOM      3  C   LIG    1       25.911 -21.442   8.351  0.00  0.00    +0.007 A 
ATOM      4  C   LIG    1       25.249 -20.899   7.240  0.00  0.00    -0.046 A 
ATOM      5  C   LIG    1       26.040 -20.359   6.223  0.00  0.00    +0.007 A 
ATOM      6  C   LIG    1       27.446 -20.420   6.283  0.00  0.00    +0.046 A 
ENDROOT
BRANCH   1   7
ATOM      7  O   LIG    1       29.457 -21.154   7.527  0.00  0.00    -0.475 OA
BRANCH   7   9
ATOM      8  C   LIG    1       30.842 -19.311   6.610  0.00  0.00    +0.067 C 
ATOM      9  C   LIG    1       30.319 -20.052   7.854  0.00  0.00    +0.200 C 
ATOM     10  C   LIG    1       29.426 -19.013   8.582  0.00  0.00    +0.067 C 
BRANCH   9  11
ATOM     11  C   LIG    1       31.471 -20.403   8.833  0.00  0.00    +0.348 C 
ATOM     12  O   LIG    1       31.803 -21.533   9.128  0.00  0.00    -0.246 OA
BRANCH  11  13
ATOM     13  O   LIG    1       32.121 -19.321   9.339  0.00  0.00    -0.478 OA
ATOM     14  H   LIG    1       31.626 -18.849  10.035  0.00  0.00    +0.295 HD
ENDBRANCH  11  13
ENDBRANCH   9  11
ENDBRANCH   7   9
ENDBRANCH   1   7
BRANCH   4  15
ATOM     15  C   LIG    1       23.732 -20.856   7.184  0.00  0.00    +0.054 C 
BRANCH  15  16
ATOM     16  C   LIG    1       23.062 -21.833   6.200  0.00  0.00    +0.109 C 
BRANCH  16  17
ATOM     17  N   LIG    1       23.454 -23.228   6.440  0.00  0.00    -0.311 N 
ATOM     18  H   LIG    1       23.065 -23.685   7.252  0.00  0.00    +0.149 HD
ATOM     19  C   LIG    1       24.434 -23.872   5.704  0.00  0.00    +0.244 C 
ATOM     20  O   LIG    1       25.043 -23.331   4.787  0.00  0.00    -0.270 OA
BRANCH  19  21
ATOM     21  C   LIG    1       24.763 -25.289   6.085  0.00  0.00    +0.037 A 
ATOM     22  C   LIG    1       23.984 -26.333   5.556  0.00  0.00    +0.014 A 
ATOM     23  C   LIG    1       24.250 -27.669   5.892  0.00  0.00    +0.021 A 
ATOM     24  C   LIG    1       25.293 -27.968   6.764  0.00  0.00    +0.041 A 
ATOM     25 CL   LIG    1       25.627 -29.605   7.179  0.00  0.00    -0.084 Cl
ATOM     26  C   LIG    1       26.062 -26.943   7.312  0.00  0.00    +0.021 A 
ATOM     27  C   LIG    1       25.796 -25.606   6.980  0.00  0.00    +0.014 A 
ENDBRANCH  19  21
ENDBRANCH  16  17
ENDBRANCH  15  16
ENDBRANCH   4  15
TORSDOF 8
ENDMDL
MODEL 2
REMARK VINA RESULT:      -8.9      1.069      1.569
REMARK  Name = *****
REMARK                            x       y       z     vdW  Elec       q    Type
REMARK                         _______ _______ _______ _____ _____    ______ ____
ROOT
ATOM      1  C   LIG    1       28.273 -20.599   7.750  0.00  0.00    +0.122 A 
ATOM      2  C   LIG    1       28.268 -20.347   6.374  0.00  0.00    +0.046 A 
ATOM      3  C   LIG    1       27.062 -20.277   5.650  0.00  0.00    +0.007 A 
ATOM      4  C   LIG    1       25.822 -20.427   6.286  0.00  0.00    -0.046 A 
ATOM      5  C   LIG    1       25.834 -20.723   7.651  0.00  0.00    +0.007 A 
ATOM      6  C   LIG    1       27.042 -20.801   8.370  0.00  0.00    +0.046 A 
ENDROOT
BRANCH   1   7
ATOM      7  O   LIG    1       29.512 -20.619   8.337  0.00  0.00    -0.475 OA
BRANCH   7   9
ATOM      8  C   LIG    1       30.886 -19.285   6.760  0.00  0.00    +0.067 C 
ATOM      9  C   LIG    1       30.442 -19.532   8.213  0.00  0.00    +0.200 C 
ATOM     10  C   LIG    1       29.656 -18.252   8.604  0.00  0.00    +0.067 C 
BRANCH   9  11
ATOM     11  C   LIG    1       31.657 -19.610   9.174  0.00  0.00    +0.348 C 
ATOM     12  O   LIG    1       32.100 -18.670   9.803  0.00  0.00    -0.246 OA
BRANCH  11  13
ATOM     13  O   LIG    1       32.200 -20.852   9.287  0.00  0.00    -0.478 OA
ATOM     14  H   LIG    1       31.589 -21.576   9.050  0.00  0.00    +0.295 HD
ENDBRANCH  11  13
ENDBRANCH   9  11
ENDBRANCH   7   9
ENDBRANCH   1   7
BRANCH   4  15
ATOM     15  C   LIG    1       24.527 -20.324   5.499  0.00  0.00    +0.054 C 
BRANCH  15  16
ATOM     16  C   LIG    1       24.337 -21.352   4.369  0.00  0.00    +0.109 C 
BRANCH  16  17
ATOM     17  N   LIG    1       24.722 -22.710   4.775  0.00  0.00    -0.311 N 
ATOM     18  H   LIG    1       25.355 -23.212   4.171  0.00  0.00    +0.149 HD
ATOM     19  C   LIG    1       24.140 -23.369   5.845  0.00  0.00    +0.244 C 
ATOM     20  O   LIG    1       23.266 -22.865   6.544  0.00  0.00    -0.270 OA
BRANCH  19  21
ATOM     21  C   LIG    1       24.603 -24.772   6.125  0.00  0.00    +0.037 A 
ATOM     22  C   LIG    1       23.899 -25.846   5.552  0.00  0.00    +0.014 A 
ATOM     23  C   LIG    1       24.290 -27.171   5.794  0.00  0.00    +0.021 A 
ATOM     24  C   LIG    1       25.383 -27.431   6.616  0.00  0.00    +0.041 A 
ATOM     25 CL   LIG    1       25.871 -29.054   6.915  0.00  0.00    -0.084 Cl
ATOM     26  C   LIG    1       26.079 -26.378   7.207  0.00  0.00    +0.021 A 
ATOM     27  C   LIG    1       25.688 -25.052   6.968  0.00  0.00    +0.014 A 
ENDBRANCH  19  21
ENDBRANCH  16  17
ENDBRANCH  15  16
ENDBRANCH   4  15
TORSDOF 8
ENDMDL
MODEL 3
REMARK VINA RESULT:      -8.7      4.107      8.779
REMARK  Name = *****
REMARK                            x       y       z     vdW  Elec       q    Type
REMARK                         _______ _______ _______ _____ _____    ______ ____
ROOT
ATOM      1  C   LIG    1       24.894 -24.366   6.399  0.00  0.00    +0.122 A 
ATOM      2  C   LIG    1       25.870 -24.083   7.360  0.00  0.00    +0.046 A 
ATOM      3  C   LIG    1       26.459 -22.808   7.447  0.00  0.00    +0.007 A 
ATOM      4  C   LIG    1       26.068 -21.765   6.594  0.00  0.00    -0.046 A 
ATOM      5  C   LIG    1       25.126 -22.065   5.607  0.00  0.00    +0.007 A 
ATOM      6  C   LIG    1       24.545 -23.345   5.518  0.00  0.00    +0.046 A 
ENDROOT
BRANCH   1   7
ATOM      7  O   LIG    1       24.386 -25.639   6.437  0.00  0.00    -0.475 OA
BRANCH   7   9
ATOM      8  C   LIG    1       25.939 -27.239   7.525  0.00  0.00    +0.067 C 
ATOM      9  C   LIG    1       25.205 -26.803   6.244  0.00  0.00    +0.200 C 
ATOM     10  C   LIG    1       24.226 -27.967   5.939  0.00  0.00    +0.067 C 
BRANCH   9  11
ATOM     11  C   LIG    1       26.173 -26.717   5.035  0.00  0.00    +0.348 C 
ATOM     12  O   LIG    1       25.838 -26.428   3.903  0.00  0.00    -0.246 OA
BRANCH  11  13
ATOM     13  O   LIG    1       27.473 -26.973   5.342  0.00  0.00    -0.478 OA
ATOM     14  H   LIG    1       27.824 -27.790   4.938  0.00  0.00    +0.295 HD
ENDBRANCH  11  13
ENDBRANCH   9  11
ENDBRANCH   7   9
ENDBRANCH   1   7
BRANCH   4  15
ATOM     15  C   LIG    1       26.693 -20.387   6.715  0.00  0.00    +0.054 C 
BRANCH  15  16
ATOM     16  C   LIG    1       28.214 -20.309   6.490  0.00  0.00    +0.109 C 
BRANCH  16  17
ATOM     17  N   LIG    1       28.907 -19.607   7.577  0.00  0.00    -0.311 N 
ATOM     18  H   LIG    1       28.515 -19.687   8.504  0.00  0.00    +0.149 HD
ATOM     19  C   LIG    1       29.959 -18.734   7.360  0.00  0.00    +0.244 C 
ATOM     20  O   LIG    1       30.401 -18.487   6.242  0.00  0.00    -0.270 OA
BRANCH  19  21
ATOM     21  C   LIG    1       30.550 -18.052   8.563  0.00  0.00    +0.037 A 
ATOM     22  C   LIG    1       31.876 -17.589   8.499  0.00  0.00    +0.014 A 
ATOM     23  C   LIG    1       32.469 -16.956   9.602  0.00  0.00    +0.021 A 
ATOM     24  C   LIG    1       31.742 -16.789  10.777  0.00  0.00    +0.041 A 
ATOM     25 CL   LIG    1       32.464 -16.011  12.133  0.00  0.00    -0.084 Cl
ATOM     26  C   LIG    1       30.433 -17.260  10.863  0.00  0.00    +0.021 A 
ATOM     27  C   LIG    1       29.839 -17.895   9.762  0.00  0.00    +0.014 A 
ENDBRANCH  19  21
ENDBRANCH  16  17
ENDBRANCH  15  16
ENDBRANCH   4  15
TORSDOF 8
ENDMDL
MODEL 4
REMARK VINA RESULT:      -8.5      3.933      8.581
REMARK  Name = *****
REMARK                            x       y       z     vdW  Elec       q    Type
REMARK                         _______ _______ _______ _____ _____    ______ ____
ROOT
ATOM      1  C   LIG    1       24.451 -25.273   6.559  0.00  0.00    +0.122 A 
ATOM      2  C   LIG    1       23.445 -24.302   6.527  0.00  0.00    +0.046 A 
ATOM      3  C   LIG    1       23.748 -22.932   6.644  0.00  0.00    +0.007 A 
ATOM      4  C   LIG    1       25.073 -22.488   6.767  0.00  0.00    -0.046 A 
ATOM      5  C   LIG    1       26.070 -23.463   6.844  0.00  0.00    +0.007 A 
ATOM      6  C   LIG    1       25.762 -24.833   6.734  0.00  0.00    +0.046 A 
ENDROOT
BRANCH   1   7
ATOM      7  O   LIG    1       24.022 -26.566   6.411  0.00  0.00    -0.475 OA
BRANCH   7   9
ATOM      8  C   LIG    1       25.835 -27.456   4.970  0.00  0.00    +0.067 C 
ATOM      9  C   LIG    1       24.928 -27.660   6.197  0.00  0.00    +0.200 C 
ATOM     10  C   LIG    1       25.899 -27.651   7.407  0.00  0.00    +0.067 C 
BRANCH   9  11
ATOM     11  C   LIG    1       24.257 -29.059   6.184  0.00  0.00    +0.348 C 
ATOM     12  O   LIG    1       24.575 -29.982   6.906  0.00  0.00    -0.246 OA
BRANCH  11  13
ATOM     13  O   LIG    1       23.238 -29.180   5.292  0.00  0.00    -0.478 OA
ATOM     14  H   LIG    1       22.792 -30.049   5.312  0.00  0.00    +0.295 HD
ENDBRANCH  11  13
ENDBRANCH   9  11
ENDBRANCH   7   9
ENDBRANCH   1   7
BRANCH   4  15
ATOM     15  C   LIG    1       25.389 -21.007   6.868  0.00  0.00    +0.054 C 
BRANCH  15  16
ATOM     16  C   LIG    1       26.473 -20.478   5.909  0.00  0.00    +0.109 C 
BRANCH  16  17
ATOM     17  N   LIG    1       27.529 -19.738   6.610  0.00  0.00    -0.311 N 
ATOM     18  H   LIG    1       27.440 -18.734   6.654  0.00  0.00    +0.149 HD
ATOM     19  C   LIG    1       28.694 -20.334   7.063  0.00  0.00    +0.244 C 
ATOM     20  O   LIG    1       28.928 -21.531   6.923  0.00  0.00    -0.270 OA
BRANCH  19  21
ATOM     21  C   LIG    1       29.709 -19.448   7.729  0.00  0.00    +0.037 A 
ATOM     22  C   LIG    1       29.326 -18.708   8.861  0.00  0.00    +0.014 A 
ATOM     23  C   LIG    1       30.239 -17.861   9.508  0.00  0.00    +0.021 A 
ATOM     24  C   LIG    1       31.538 -17.745   9.022  0.00  0.00    +0.041 A 
ATOM     25 CL   LIG    1       32.664 -16.710   9.812  0.00  0.00    -0.084 Cl
ATOM     26  C   LIG    1       31.928 -18.457   7.889  0.00  0.00    +0.021 A 
ATOM     27  C   LIG    1       31.016 -19.302   7.239  0.00  0.00    +0.014 A 
ENDBRANCH  19  21
ENDBRANCH  16  17
ENDBRANCH  15  16
ENDBRANCH   4  15
TORSDOF 8
ENDMDL
MODEL 5
REMARK VINA RESULT:      -8.5      1.493      2.226
REMARK  Name = *****
REMARK                            x       y       z     vdW  Elec       q    Type
REMARK                         _______ _______ _______ _____ _____    ______ ____
ROOT
ATOM      1  C   LIG    1       27.531 -20.264   7.699  0.00  0.00    +0.122 A 
ATOM      2  C   LIG    1       26.874 -21.140   8.569  0.00  0.00    +0.046 A 
ATOM      3  C   LIG    1       25.815 -21.954   8.122  0.00  0.00    +0.007 A 
ATOM      4  C   LIG    1       25.400 -21.938   6.783  0.00  0.00    -0.046 A 
ATOM      5  C   LIG    1       26.029 -21.029   5.928  0.00  0.00    +0.007 A 
ATOM      6  C   LIG    1       27.082 -20.211   6.381  0.00  0.00    +0.046 A 
ENDROOT
BRANCH   1   7
ATOM      7  O   LIG    1       28.558 -19.547   8.256  0.00  0.00    -0.475 OA
BRANCH   7   9
ATOM      8  C   LIG    1       30.107 -21.480   8.127  0.00  0.00    +0.067 C 
ATOM      9  C   LIG    1       29.931 -19.950   8.143  0.00  0.00    +0.200 C 
ATOM     10  C   LIG    1       30.396 -19.490   6.736  0.00  0.00    +0.067 C 
BRANCH   9  11
ATOM     11  C   LIG    1       30.887 -19.278   9.163  0.00  0.00    +0.348 C 
ATOM     12  O   LIG    1       32.094 -19.411   9.167  0.00  0.00    -0.246 OA
BRANCH  11  13
ATOM     13  O   LIG    1       30.263 -18.481  10.071  0.00  0.00    -0.478 OA
ATOM     14  H   LIG    1       29.368 -18.197   9.802  0.00  0.00    +0.295 HD
ENDBRANCH  11  13
ENDBRANCH   9  11
ENDBRANCH   7   9
ENDBRANCH   1   7
BRANCH   4  15
ATOM     15  C   LIG    1       24.274 -22.839   6.307  0.00  0.00    +0.054 C 
BRANCH  15  16
ATOM     16  C   LIG    1       24.626 -23.827   5.180  0.00  0.00    +0.109 C 
BRANCH  16  17
ATOM     17  N   LIG    1       24.419 -25.226   5.576  0.00  0.00    -0.311 N 
ATOM     18  H   LIG    1       23.469 -25.524   5.744  0.00  0.00    +0.149 HD
ATOM     19  C   LIG    1       25.461 -26.087   5.875  0.00  0.00    +0.244 C 
ATOM     20  O   LIG    1       26.640 -25.751   5.822  0.00  0.00    -0.270 OA
BRANCH  19  21
ATOM     21  C   LIG    1       25.101 -27.482   6.306  0.00  0.00    +0.037 A 
ATOM     22  C   LIG    1       25.598 -27.965   7.529  0.00  0.00    +0.014 A 
ATOM     23  C   LIG    1       25.296 -29.264   7.965  0.00  0.00    +0.021 A 
ATOM     24  C   LIG    1       24.499 -30.089   7.176  0.00  0.00    +0.041 A 
ATOM     25 CL   LIG    1       24.121 -31.683   7.706  0.00  0.00    -0.084 Cl
ATOM     26  C   LIG    1       24.015 -29.632   5.952  0.00  0.00    +0.021 A 
ATOM     27  C   LIG    1       24.318 -28.335   5.513  0.00  0.00    +0.014 A 
ENDBRANCH  19  21
ENDBRANCH  16  17
ENDBRANCH  15  16
ENDBRANCH   4  15
TORSDOF 8
ENDMDL
MODEL 6
REMARK VINA RESULT:      -8.3      3.539      5.919
REMARK  Name = *****
REMARK                            x       y       z     vdW  Elec       q    Type
REMARK                         _______ _______ _______ _____ _____    ______ ____
ROOT
ATOM      1  C   LIG    1       24.655 -23.781   6.958  0.00  0.00    +0.122 A 
ATOM      2  C   LIG    1       23.642 -24.561   6.391  0.00  0.00    +0.046 A 
ATOM      3  C   LIG    1       23.931 -25.784   5.756  0.00  0.00    +0.007 A 
ATOM      4  C   LIG    1       25.242 -26.279   5.696  0.00  0.00    -0.046 A 
ATOM      5  C   LIG    1       26.255 -25.476   6.223  0.00  0.00    +0.007 A 
ATOM      6  C   LIG    1       25.962 -24.249   6.851  0.00  0.00    +0.046 A 
ENDROOT
BRANCH   1   7
ATOM      7  O   LIG    1       24.234 -22.625   7.565  0.00  0.00    -0.475 OA
BRANCH   7   9
ATOM      8  C   LIG    1       25.149 -21.263   5.705  0.00  0.00    +0.067 C 
ATOM      9  C   LIG    1       24.724 -21.331   7.183  0.00  0.00    +0.200 C 
ATOM     10  C   LIG    1       23.511 -20.368   7.286  0.00  0.00    +0.067 C 
BRANCH   9  11
ATOM     11  C   LIG    1       25.821 -20.756   8.118  0.00  0.00    +0.348 C 
ATOM     12  O   LIG    1       25.750 -20.731   9.330  0.00  0.00    -0.246 OA
BRANCH  11  13
ATOM     13  O   LIG    1       26.917 -20.283   7.466  0.00  0.00    -0.478 OA
ATOM     14  H   LIG    1       27.092 -20.723   6.612  0.00  0.00    +0.295 HD
ENDBRANCH  11  13
ENDBRANCH   9  11
ENDBRANCH   7   9
ENDBRANCH   1   7
BRANCH   4  15
ATOM     15  C   LIG    1       25.539 -27.612   5.031  0.00  0.00    +0.054 C 
BRANCH  15  16
ATOM     16  C   LIG    1       25.039 -28.866   5.772  0.00  0.00    +0.109 C 
BRANCH  16  17
ATOM     17  N   LIG    1       25.563 -28.954   7.141  0.00  0.00    -0.311 N 
ATOM     18  H   LIG    1       26.522 -28.679   7.288  0.00  0.00    +0.149 HD
ATOM     19  C   LIG    1       24.858 -29.536   8.181  0.00  0.00    +0.244 C 
ATOM     20  O   LIG    1       23.736 -30.014   8.042  0.00  0.00    -0.270 OA
BRANCH  19  21
ATOM     21  C   LIG    1       25.533 -29.595   9.523  0.00  0.00    +0.037 A 
ATOM     22  C   LIG    1       26.702 -28.843   9.729  0.00  0.00    +0.014 A 
ATOM     23  C   LIG    1       27.370 -28.876  10.963  0.00  0.00    +0.021 A 
ATOM     24  C   LIG    1       26.873 -29.666  11.996  0.00  0.00    +0.041 A 
ATOM     25 CL   LIG    1       27.685 -29.709  13.514  0.00  0.00    -0.084 Cl
ATOM     26  C   LIG    1       25.725 -30.432  11.802  0.00  0.00    +0.021 A 
ATOM     27  C   LIG    1       25.058 -30.403  10.568  0.00  0.00    +0.014 A 
ENDBRANCH  19  21
ENDBRANCH  16  17
ENDBRANCH  15  16
ENDBRANCH   4  15
TORSDOF 8
ENDMDL
MODEL 7
REMARK VINA RESULT:      -8.1      4.211      9.015
REMARK  Name = *****
REMARK                            x       y       z     vdW  Elec       q    Type
REMARK                         _______ _______ _______ _____ _____    ______ ____
ROOT
ATOM      1  C   LIG    1       25.126 -28.444   6.997  0.00  0.00    +0.122 A 
ATOM      2  C   LIG    1       26.115 -27.510   7.319  0.00  0.00    +0.046 A 
ATOM      3  C   LIG    1       26.100 -26.213   6.771  0.00  0.00    +0.007 A 
ATOM      4  C   LIG    1       25.076 -25.801   5.906  0.00  0.00    -0.046 A 
ATOM      5  C   LIG    1       24.116 -26.751   5.552  0.00  0.00    +0.007 A 
ATOM      6  C   LIG    1       24.139 -28.050   6.097  0.00  0.00    +0.046 A 
ENDROOT
BRANCH   1   7
ATOM      7  O   LIG    1       25.246 -29.661   7.618  0.00  0.00    -0.475 OA
BRANCH   7   9
ATOM      8  C   LIG    1       25.890 -30.750   5.484  0.00  0.00    +0.067 C 
ATOM      9  C   LIG    1       25.280 -30.899   6.890  0.00  0.00    +0.200 C 
ATOM     10  C   LIG    1       26.275 -31.814   7.652  0.00  0.00    +0.067 C 
BRANCH   9  11
ATOM     11  C   LIG    1       23.929 -31.659   6.847  0.00  0.00    +0.348 C 
ATOM     12  O   LIG    1       23.465 -32.293   7.773  0.00  0.00    -0.246 OA
BRANCH  11  13
ATOM     13  O   LIG    1       23.263 -31.547   5.666  0.00  0.00    -0.478 OA
ATOM     14  H   LIG    1       23.539 -30.782   5.125  0.00  0.00    +0.295 HD
ENDBRANCH  11  13
ENDBRANCH   9  11
ENDBRANCH   7   9
ENDBRANCH   1   7
BRANCH   4  15
ATOM     15  C   LIG    1       25.057 -24.392   5.340  0.00  0.00    +0.054 C 
BRANCH  15  16
ATOM     16  C   LIG    1       24.924 -23.251   6.367  0.00  0.00    +0.109 C 
BRANCH  16  17
ATOM     17  N   LIG    1       26.201 -22.571   6.618  0.00  0.00    -0.311 N 
ATOM     18  H   LIG    1       26.908 -23.085   7.121  0.00  0.00    +0.149 HD
ATOM     19  C   LIG    1       26.408 -21.231   6.337  0.00  0.00    +0.244 C 
ATOM     20  O   LIG    1       25.545 -20.511   5.846  0.00  0.00    -0.270 OA
BRANCH  19  21
ATOM     21  C   LIG    1       27.753 -20.654   6.683  0.00  0.00    +0.037 A 
ATOM     22  C   LIG    1       28.236 -19.564   5.938  0.00  0.00    +0.014 A 
ATOM     23  C   LIG    1       29.490 -19.001   6.221  0.00  0.00    +0.021 A 
ATOM     24  C   LIG    1       30.270 -19.529   7.245  0.00  0.00    +0.041 A 
ATOM     25 CL   LIG    1       31.808 -18.842   7.599  0.00  0.00    -0.084 Cl
ATOM     26  C   LIG    1       29.813 -20.622   7.980  0.00  0.00    +0.021 A 
ATOM     27  C   LIG    1       28.562 -21.188   7.697  0.00  0.00    +0.014 A 
ENDBRANCH  19  21
ENDBRANCH  16  17
ENDBRANCH  15  16
ENDBRANCH   4  15
TORSDOF 8
ENDMDL
MODEL 8
REMARK VINA RESULT:      -8.1      4.565      9.496
REMARK  Name = *****
REMARK                            x       y       z     vdW  Elec       q    Type
REMARK                         _______ _______ _______ _____ _____    ______ ____
ROOT
ATOM      1  C   LIG    1       24.241 -29.652   6.671  0.00  0.00    +0.122 A 
ATOM      2  C   LIG    1       23.970 -28.918   5.511  0.00  0.00    +0.046 A 
ATOM      3  C   LIG    1       24.581 -27.672   5.276  0.00  0.00    +0.007 A 
ATOM      4  C   LIG    1       25.507 -27.134   6.182  0.00  0.00    -0.046 A 
ATOM      5  C   LIG    1       25.741 -27.848   7.359  0.00  0.00    +0.007 A 
ATOM      6  C   LIG    1       25.121 -29.091   7.594  0.00  0.00    +0.046 A 
ENDROOT
BRANCH   1   7
ATOM      7  O   LIG    1       23.597 -30.858   6.764  0.00  0.00    -0.475 OA
BRANCH   7   9
ATOM      8  C   LIG    1       24.671 -32.825   7.828  0.00  0.00    +0.067 C 
ATOM      9  C   LIG    1       24.263 -32.109   6.528  0.00  0.00    +0.200 C 
ATOM     10  C   LIG    1       23.203 -33.041   5.884  0.00  0.00    +0.067 C 
BRANCH   9  11
ATOM     11  C   LIG    1       25.445 -32.031   5.526  0.00  0.00    +0.348 C 
ATOM     12  O   LIG    1       26.617 -32.001   5.845  0.00  0.00    -0.246 OA
BRANCH  11  13
ATOM     13  O   LIG    1       25.069 -32.021   4.219  0.00  0.00    -0.478 OA
ATOM     14  H   LIG    1       24.117 -32.188   4.078  0.00  0.00    +0.295 HD
ENDBRANCH  11  13
ENDBRANCH   9  11
ENDBRANCH   7   9
ENDBRANCH   1   7
BRANCH   4  15
ATOM     15  C   LIG    1       26.179 -25.800   5.906  0.00  0.00    +0.054 C 
BRANCH  15  16
ATOM     16  C   LIG    1       25.911 -24.681   6.929  0.00  0.00    +0.109 C 
BRANCH  16  17
ATOM     17  N   LIG    1       25.120 -23.581   6.362  0.00  0.00    -0.311 N 
ATOM     18  H   LIG    1       24.318 -23.829   5.801  0.00  0.00    +0.149 HD
ATOM     19  C   LIG    1       25.512 -22.256   6.434  0.00  0.00    +0.244 C 
ATOM     20  O   LIG    1       26.547 -21.895   6.987  0.00  0.00    -0.270 OA
BRANCH  19  21
ATOM     21  C   LIG    1       24.625 -21.236   5.775  0.00  0.00    +0.037 A 
ATOM     22  C   LIG    1       23.479 -20.791   6.456  0.00  0.00    +0.014 A 
ATOM     23  C   LIG    1       22.618 -19.848   5.874  0.00  0.00    +0.021 A 
ATOM     24  C   LIG    1       22.895 -19.350   4.604  0.00  0.00    +0.041 A 
ATOM     25 CL   LIG    1       21.845 -18.191   3.885  0.00  0.00    -0.084 Cl
ATOM     26  C   LIG    1       24.017 -19.796   3.908  0.00  0.00    +0.021 A 
ATOM     27  C   LIG    1       24.878 -20.741   4.487  0.00  0.00    +0.014 A 
ENDBRANCH  19  21
ENDBRANCH  16  17
ENDBRANCH  15  16
ENDBRANCH   4  15
TORSDOF 8
ENDMDL
MODEL 9
REMARK VINA RESULT:      -8.1      3.576      6.038
REMARK  Name = *****
REMARK                            x       y       z     vdW  Elec       q    Type
REMARK                         _______ _______ _______ _____ _____    ______ ____
ROOT
ATOM      1  C   LIG    1       24.820 -23.881   7.053  0.00  0.00    +0.122 A 
ATOM      2  C   LIG    1       26.088 -24.448   6.889  0.00  0.00    +0.046 A 
ATOM      3  C   LIG    1       26.264 -25.647   6.171  0.00  0.00    +0.007 A 
ATOM      4  C   LIG    1       25.179 -26.300   5.569  0.00  0.00    -0.046 A 
ATOM      5  C   LIG    1       23.909 -25.755   5.774  0.00  0.00    +0.007 A 
ATOM      6  C   LIG    1       23.737 -24.560   6.499  0.00  0.00    +0.046 A 
ENDROOT
BRANCH   1   7
ATOM      7  O   LIG    1       24.792 -22.703   7.753  0.00  0.00    -0.475 OA
BRANCH   7   9
ATOM      8  C   LIG    1       23.295 -20.829   7.121  0.00  0.00    +0.067 C 
ATOM      9  C   LIG    1       24.716 -21.423   7.107  0.00  0.00    +0.200 C 
ATOM     10  C   LIG    1       25.554 -20.453   7.982  0.00  0.00    +0.067 C 
BRANCH   9  11
ATOM     11  C   LIG    1       25.337 -21.380   5.686  0.00  0.00    +0.348 C 
ATOM     12  O   LIG    1       24.711 -21.529   4.656  0.00  0.00    -0.246 OA
BRANCH  11  13
ATOM     13  O   LIG    1       26.674 -21.131   5.669  0.00  0.00    -0.478 OA
ATOM     14  H   LIG    1       27.156 -21.594   4.957  0.00  0.00    +0.295 HD
ENDBRANCH  11  13
ENDBRANCH   9  11
ENDBRANCH   7   9
ENDBRANCH   1   7
BRANCH   4  15
ATOM     15  C   LIG    1       25.385 -27.578   4.775  0.00  0.00    +0.054 C 
BRANCH  15  16
ATOM     16  C   LIG    1       25.053 -28.892   5.508  0.00  0.00    +0.109 C 
BRANCH  16  17
ATOM     17  N   LIG    1       25.513 -28.888   6.902  0.00  0.00    -0.311 N 
ATOM     18  H   LIG    1       26.435 -28.518   7.084  0.00  0.00    +0.149 HD
ATOM     19  C   LIG    1       24.814 -29.501   7.928  0.00  0.00    +0.244 C 
ATOM     20  O   LIG    1       23.750 -30.086   7.753  0.00  0.00    -0.270 OA
BRANCH  19  21
ATOM     21  C   LIG    1       25.423 -29.454   9.302  0.00  0.00    +0.037 A 
ATOM     22  C   LIG    1       26.555 -28.649   9.516  0.00  0.00    +0.014 A 
ATOM     23  C   LIG    1       27.161 -28.583  10.780  0.00  0.00    +0.021 A 
ATOM     24  C   LIG    1       26.640 -29.326  11.836  0.00  0.00    +0.041 A 
ATOM     25 CL   LIG    1       27.376 -29.248  13.390  0.00  0.00    -0.084 Cl
ATOM     26  C   LIG    1       25.529 -30.144  11.635  0.00  0.00    +0.021 A 
ATOM     27  C   LIG    1       24.924 -30.214  10.371  0.00  0.00    +0.014 A 
ENDBRANCH  19  21
ENDBRANCH  16  17
ENDBRANCH  15  16
ENDBRANCH   4  15
TORSDOF 8
ENDMDL
