MODEL 1
REMARK VINA RESULT:      -9.1      0.000      0.000
REMARK  Name = *****
REMARK                            x       y       z     vdW  Elec       q    Type
REMARK                         _______ _______ _______ _____ _____    ______ ____
ROOT
ATOM      1  C   LIG    1       25.450 -21.652   6.212  0.00  0.00    -0.006 A 
ATOM      2  C   LIG    1       26.748 -21.257   6.647  0.00  0.00    +0.007 A 
ATOM      3  C   LIG    1       27.458 -21.910   7.682  0.00  0.00    +0.010 A 
ATOM      4  C   LIG    1       28.728 -21.490   8.070  0.00  0.00    +0.001 A 
ATOM      5  C   LIG    1       29.308 -20.406   7.432  0.00  0.00    +0.014 A 
ATOM      6  C   LIG    1       28.629 -19.735   6.397  0.00  0.00    +0.081 A 
ATOM      7  C   LIG    1       27.360 -20.151   5.998  0.00  0.00    +0.084 A 
ATOM      8  N   LIG    1       26.746 -19.496   5.004  0.00  0.00    -0.242 NA
ATOM      9  C   LIG    1       25.513 -19.872   4.578  0.00  0.00    +0.145 A 
ATOM     10  C   LIG    1       24.847 -20.937   5.166  0.00  0.00    +0.039 A 
ENDROOT
BRANCH   6  11
ATOM     11  C   LIG    1       29.333 -18.564   5.754  0.00  0.00    +0.419 C 
ATOM     12  F   LIG    1       30.556 -18.924   5.261  0.00  0.00    -0.166 F 
ATOM     13  F   LIG    1       29.600 -17.582   6.669  0.00  0.00    -0.166 F 
ATOM     14  F   LIG    1       28.705 -17.933   4.728  0.00  0.00    -0.166 F 
ENDBRANCH   6  11
BRANCH   9  15
ATOM     15  C   LIG    1       24.871 -19.101   3.434  0.00  0.00    +0.434 C 
ATOM     16  F   LIG    1       24.499 -19.898   2.392  0.00  0.00    -0.164 F 
ATOM     17  F   LIG    1       25.691 -18.146   2.907  0.00  0.00    -0.164 F 
ATOM     18  F   LIG    1       23.736 -18.433   3.800  0.00  0.00    -0.164 F 
ENDBRANCH   9  15
BRANCH   1  19
ATOM     19  C   LIG    1       24.685 -22.817   6.832  0.00  0.00    +0.162 C 
BRANCH  19  20
ATOM     20  C   LIG    1       24.989 -24.217   6.199  0.00  0.00    +0.087 C 
ATOM     21  N   LIG    1       23.713 -24.975   6.065  0.00  0.00    -0.311 NA
ATOM     22  H   LIG    1       23.373 -25.179   7.008  0.00  0.00    +0.122 HD
ATOM     23  C   LIG    1       23.931 -26.265   5.402  0.00  0.00    +0.081 C 
ATOM     24  C   LIG    1       24.876 -27.147   6.212  0.00  0.00    +0.015 C 
ATOM     25  C   LIG    1       26.206 -26.441   6.441  0.00  0.00    +0.003 C 
ATOM     26  C   LIG    1       25.994 -25.046   7.027  0.00  0.00    +0.021 C 
ENDBRANCH  19  20
BRANCH  19  27
ATOM     27  O   LIG    1       24.947 -22.866   8.245  0.00  0.00    -0.386 OA
ATOM     28  H   LIG    1       24.636 -23.743   8.531  0.00  0.00    +0.210 HD
ENDBRANCH  19  27
ENDBRANCH   1  19
TORSDOF 5
ENDMDL
MODEL 2
REMARK VINA RESULT:      -8.8      2.916      6.082
REMARK  Name = *****
REMARK                            x       y       z     vdW  Elec       q    Type
REMARK                         _______ _______ _______ _____ _____    ______ ____
ROOT
ATOM      1  C   LIG    1       28.036 -20.117   6.103  0.00  0.00    -0.006 A 
ATOM      2  C   LIG    1       27.048 -20.838   6.833  0.00  0.00    +0.007 A 
ATOM      3  C   LIG    1       27.339 -21.634   7.967  0.00  0.00    +0.010 A 
ATOM      4  C   LIG    1       26.338 -22.318   8.651  0.00  0.00    +0.001 A 
ATOM      5  C   LIG    1       25.028 -22.221   8.212  0.00  0.00    +0.014 A 
ATOM      6  C   LIG    1       24.703 -21.436   7.089  0.00  0.00    +0.081 A 
ATOM      7  C   LIG    1       25.698 -20.743   6.400  0.00  0.00    +0.084 A 
ATOM      8  N   LIG    1       25.353 -19.998   5.342  0.00  0.00    -0.242 NA
ATOM      9  C   LIG    1       26.289 -19.301   4.647  0.00  0.00    +0.145 A 
ATOM     10  C   LIG    1       27.627 -19.348   5.003  0.00  0.00    +0.039 A 
ENDROOT
BRANCH   6  11
ATOM     11  C   LIG    1       23.252 -21.384   6.678  0.00  0.00    +0.419 C 
ATOM     12  F   LIG    1       22.760 -20.109   6.737  0.00  0.00    -0.166 F 
ATOM     13  F   LIG    1       22.466 -22.102   7.537  0.00  0.00    -0.166 F 
ATOM     14  F   LIG    1       22.928 -21.835   5.438  0.00  0.00    -0.166 F 
ENDBRANCH   6  11
BRANCH   9  15
ATOM     15  C   LIG    1       25.837 -18.458   3.463  0.00  0.00    +0.434 C 
ATOM     16  F   LIG    1       25.921 -19.117   2.272  0.00  0.00    -0.164 F 
ATOM     17  F   LIG    1       26.562 -17.312   3.315  0.00  0.00    -0.164 F 
ATOM     18  F   LIG    1       24.536 -18.047   3.556  0.00  0.00    -0.164 F 
ENDBRANCH   9  15
BRANCH   1  19
ATOM     19  C   LIG    1       29.518 -20.142   6.463  0.00  0.00    +0.162 C 
BRANCH  19  20
ATOM     20  C   LIG    1       30.013 -18.921   7.309  0.00  0.00    +0.087 C 
ATOM     21  N   LIG    1       31.495 -18.993   7.443  0.00  0.00    -0.311 NA
ATOM     22  H   LIG    1       31.715 -19.814   8.011  0.00  0.00    +0.122 HD
ATOM     23  C   LIG    1       32.019 -17.825   8.159  0.00  0.00    +0.081 C 
ATOM     24  C   LIG    1       31.458 -17.753   9.576  0.00  0.00    +0.015 C 
ATOM     25  C   LIG    1       29.936 -17.716   9.552  0.00  0.00    +0.003 C 
ATOM     26  C   LIG    1       29.372 -18.862   8.712  0.00  0.00    +0.021 C 
ENDBRANCH  19  20
BRANCH  19  27
ATOM     27  O   LIG    1       29.821 -21.361   7.164  0.00  0.00    -0.386 OA
ATOM     28  H   LIG    1       30.467 -21.107   7.846  0.00  0.00    +0.210 HD
ENDBRANCH  19  27
ENDBRANCH   1  19
TORSDOF 5
ENDMDL
MODEL 3
REMARK VINA RESULT:      -8.5      3.307      6.710
REMARK  Name = *****
REMARK                            x       y       z     vdW  Elec       q    Type
REMARK                         _______ _______ _______ _____ _____    ______ ____
ROOT
ATOM      1  C   LIG    1       28.636 -20.462   6.681  0.00  0.00    -0.006 A 
ATOM      2  C   LIG    1       27.945 -19.666   5.724  0.00  0.00    +0.007 A 
ATOM      3  C   LIG    1       28.530 -18.567   5.052  0.00  0.00    +0.010 A 
ATOM      4  C   LIG    1       27.815 -17.820   4.120  0.00  0.00    +0.001 A 
ATOM      5  C   LIG    1       26.500 -18.157   3.845  0.00  0.00    +0.014 A 
ATOM      6  C   LIG    1       25.888 -19.247   4.494  0.00  0.00    +0.081 A 
ATOM      7  C   LIG    1       26.597 -20.003   5.425  0.00  0.00    +0.084 A 
ATOM      8  N   LIG    1       25.987 -21.039   6.017  0.00  0.00    -0.242 NA
ATOM      9  C   LIG    1       26.643 -21.807   6.925  0.00  0.00    +0.145 A 
ATOM     10  C   LIG    1       27.957 -21.538   7.274  0.00  0.00    +0.039 A 
ENDROOT
BRANCH   6  11
ATOM     11  C   LIG    1       24.452 -19.547   4.137  0.00  0.00    +0.419 C 
ATOM     12  F   LIG    1       24.358 -20.633   3.311  0.00  0.00    -0.166 F 
ATOM     13  F   LIG    1       23.891 -18.519   3.428  0.00  0.00    -0.166 F 
ATOM     14  F   LIG    1       23.584 -19.794   5.153  0.00  0.00    -0.166 F 
ENDBRANCH   6  11
BRANCH   9  15
ATOM     15  C   LIG    1       25.905 -22.981   7.553  0.00  0.00    +0.434 C 
ATOM     16  F   LIG    1       26.020 -23.022   8.911  0.00  0.00    -0.164 F 
ATOM     17  F   LIG    1       26.341 -24.191   7.098  0.00  0.00    -0.164 F 
ATOM     18  F   LIG    1       24.560 -22.971   7.305  0.00  0.00    -0.164 F 
ENDBRANCH   9  15
BRANCH   1  19
ATOM     19  C   LIG    1       30.082 -20.199   7.092  0.00  0.00    +0.162 C 
BRANCH  19  20
ATOM     20  C   LIG    1       30.321 -18.838   7.828  0.00  0.00    +0.087 C 
ATOM     21  N   LIG    1       31.786 -18.628   7.995  0.00  0.00    -0.311 NA
ATOM     22  H   LIG    1       32.130 -19.343   8.641  0.00  0.00    +0.122 HD
ATOM     23  C   LIG    1       32.069 -17.326   8.608  0.00  0.00    +0.081 C 
ATOM     24  C   LIG    1       31.456 -17.231  10.002  0.00  0.00    +0.015 C 
ATOM     25  C   LIG    1       29.953 -17.472   9.947  0.00  0.00    +0.003 C 
ATOM     26  C   LIG    1       29.632 -18.771   9.208  0.00  0.00    +0.021 C 
ENDBRANCH  19  20
BRANCH  19  27
ATOM     27  O   LIG    1       30.549 -21.278   7.921  0.00  0.00    -0.386 OA
ATOM     28  H   LIG    1       30.481 -20.944   8.833  0.00  0.00    +0.210 HD
ENDBRANCH  19  27
ENDBRANCH   1  19
TORSDOF 5
ENDMDL
MODEL 4
REMARK VINA RESULT:      -8.4      1.336      4.113
REMARK  Name = *****
REMARK                            x       y       z     vdW  Elec       q    Type
REMARK                         _______ _______ _______ _____ _____    ______ ____
ROOT
ATOM      1  C   LIG    1       25.759 -21.501   7.038  0.00  0.00    -0.006 A 
ATOM      2  C   LIG    1       25.045 -20.838   5.999  0.00  0.00    +0.007 A 
ATOM      3  C   LIG    1       23.682 -21.083   5.707  0.00  0.00    +0.010 A 
ATOM      4  C   LIG    1       23.026 -20.406   4.683  0.00  0.00    +0.001 A 
ATOM      5  C   LIG    1       23.721 -19.475   3.930  0.00  0.00    +0.014 A 
ATOM      6  C   LIG    1       25.077 -19.205   4.196  0.00  0.00    +0.081 A 
ATOM      7  C   LIG    1       25.742 -19.874   5.222  0.00  0.00    +0.084 A 
ATOM      8  N   LIG    1       27.030 -19.586   5.454  0.00  0.00    -0.242 NA
ATOM      9  C   LIG    1       27.714 -20.208   6.449  0.00  0.00    +0.145 A 
ATOM     10  C   LIG    1       27.106 -21.165   7.245  0.00  0.00    +0.039 A 
ENDROOT
BRANCH   6  11
ATOM     11  C   LIG    1       25.760 -18.175   3.329  0.00  0.00    +0.419 C 
ATOM     12  F   LIG    1       24.989 -17.056   3.179  0.00  0.00    -0.166 F 
ATOM     13  F   LIG    1       25.949 -18.642   2.057  0.00  0.00    -0.166 F 
ATOM     14  F   LIG    1       26.978 -17.720   3.725  0.00  0.00    -0.166 F 
ENDBRANCH   6  11
BRANCH   9  15
ATOM     15  C   LIG    1       29.170 -19.830   6.677  0.00  0.00    +0.434 C 
ATOM     16  F   LIG    1       29.725 -19.170   5.621  0.00  0.00    -0.164 F 
ATOM     17  F   LIG    1       29.972 -20.908   6.915  0.00  0.00    -0.164 F 
ATOM     18  F   LIG    1       29.354 -19.006   7.753  0.00  0.00    -0.164 F 
ENDBRANCH   9  15
BRANCH   1  19
ATOM     19  C   LIG    1       25.126 -22.559   7.937  0.00  0.00    +0.162 C 
BRANCH  19  20
ATOM     20  C   LIG    1       25.126 -24.010   7.348  0.00  0.00    +0.087 C 
ATOM     21  N   LIG    1       26.279 -24.155   6.417  0.00  0.00    -0.311 NA
ATOM     22  H   LIG    1       26.110 -23.544   5.615  0.00  0.00    +0.122 HD
ATOM     23  C   LIG    1       26.372 -25.524   5.899  0.00  0.00    +0.081 C 
ATOM     24  C   LIG    1       25.124 -25.896   5.104  0.00  0.00    +0.015 C 
ATOM     25  C   LIG    1       23.874 -25.741   5.960  0.00  0.00    +0.003 C 
ATOM     26  C   LIG    1       23.818 -24.356   6.604  0.00  0.00    +0.021 C 
ENDBRANCH  19  20
BRANCH  19  27
ATOM     27  O   LIG    1       25.788 -22.562   9.213  0.00  0.00    -0.386 OA
ATOM     28  H   LIG    1       26.342 -21.761   9.214  0.00  0.00    +0.210 HD
ENDBRANCH  19  27
ENDBRANCH   1  19
TORSDOF 5
ENDMDL
MODEL 5
REMARK VINA RESULT:      -7.8      7.214     10.412
REMARK  Name = *****
REMARK                            x       y       z     vdW  Elec       q    Type
REMARK                         _______ _______ _______ _____ _____    ______ ____
ROOT
ATOM      1  C   LIG    1       25.665 -28.095   7.375  0.00  0.00    -0.006 A 
ATOM      2  C   LIG    1       25.095 -29.381   7.150  0.00  0.00    +0.007 A 
ATOM      3  C   LIG    1       24.464 -29.756   5.939  0.00  0.00    +0.010 A 
ATOM      4  C   LIG    1       23.925 -31.027   5.764  0.00  0.00    +0.001 A 
ATOM      5  C   LIG    1       24.005 -31.946   6.797  0.00  0.00    +0.014 A 
ATOM      6  C   LIG    1       24.628 -31.607   8.013  0.00  0.00    +0.081 A 
ATOM      7  C   LIG    1       25.175 -30.338   8.197  0.00  0.00    +0.084 A 
ATOM      8  N   LIG    1       25.769 -30.051   9.363  0.00  0.00    -0.242 NA
ATOM      9  C   LIG    1       26.321 -28.830   9.581  0.00  0.00    +0.145 A 
ATOM     10  C   LIG    1       26.278 -27.841   8.612  0.00  0.00    +0.039 A 
ENDROOT
BRANCH   6  11
ATOM     11  C   LIG    1       24.673 -32.667   9.087  0.00  0.00    +0.419 C 
ATOM     12  F   LIG    1       25.955 -33.070   9.340  0.00  0.00    -0.166 F 
ATOM     13  F   LIG    1       24.022 -33.804   8.691  0.00  0.00    -0.166 F 
ATOM     14  F   LIG    1       24.147 -32.361  10.302  0.00  0.00    -0.166 F 
ENDBRANCH   6  11
BRANCH   9  15
ATOM     15  C   LIG    1       26.997 -28.567  10.919  0.00  0.00    +0.434 C 
ATOM     16  F   LIG    1       27.086 -27.241  11.224  0.00  0.00    -0.164 F 
ATOM     17  F   LIG    1       28.270 -29.056  10.981  0.00  0.00    -0.164 F 
ATOM     18  F   LIG    1       26.346 -29.137  11.978  0.00  0.00    -0.164 F 
ENDBRANCH   9  15
BRANCH   1  19
ATOM     19  C   LIG    1       25.638 -26.980   6.334  0.00  0.00    +0.162 C 
BRANCH  19  20
ATOM     20  C   LIG    1       25.063 -25.616   6.843  0.00  0.00    +0.087 C 
ATOM     21  N   LIG    1       23.781 -25.337   6.138  0.00  0.00    -0.311 NA
ATOM     22  H   LIG    1       23.997 -25.181   5.150  0.00  0.00    +0.122 HD
ATOM     23  C   LIG    1       23.159 -24.106   6.638  0.00  0.00    +0.081 C 
ATOM     24  C   LIG    1       24.059 -22.898   6.395  0.00  0.00    +0.015 C 
ATOM     25  C   LIG    1       25.420 -23.101   7.047  0.00  0.00    +0.003 C 
ATOM     26  C   LIG    1       26.036 -24.436   6.627  0.00  0.00    +0.021 C 
ENDBRANCH  19  20
BRANCH  19  27
ATOM     27  O   LIG    1       26.964 -26.776   5.816  0.00  0.00    -0.386 OA
ATOM     28  H   LIG    1       27.561 -27.051   6.534  0.00  0.00    +0.210 HD
ENDBRANCH  19  27
ENDBRANCH   1  19
TORSDOF 5
ENDMDL
MODEL 6
REMARK VINA RESULT:      -7.7      3.410      6.642
REMARK  Name = *****
REMARK                            x       y       z     vdW  Elec       q    Type
REMARK                         _______ _______ _______ _____ _____    ______ ____
ROOT
ATOM      1  C   LIG    1       27.726 -20.423   6.150  0.00  0.00    -0.006 A 
ATOM      2  C   LIG    1       26.874 -19.702   5.266  0.00  0.00    +0.007 A 
ATOM      3  C   LIG    1       27.339 -18.721   4.358  0.00  0.00    +0.010 A 
ATOM      4  C   LIG    1       26.467 -18.045   3.509  0.00  0.00    +0.001 A 
ATOM      5  C   LIG    1       25.114 -18.335   3.554  0.00  0.00    +0.014 A 
ATOM      6  C   LIG    1       24.618 -19.308   4.444  0.00  0.00    +0.081 A 
ATOM      7  C   LIG    1       25.483 -19.994   5.295  0.00  0.00    +0.084 A 
ATOM      8  N   LIG    1       24.980 -20.919   6.122  0.00  0.00    -0.242 NA
ATOM      9  C   LIG    1       25.787 -21.616   6.962  0.00  0.00    +0.145 A 
ATOM     10  C   LIG    1       27.153 -21.384   6.998  0.00  0.00    +0.039 A 
ENDROOT
BRANCH   6  11
ATOM     11  C   LIG    1       23.130 -19.564   4.430  0.00  0.00    +0.419 C 
ATOM     12  F   LIG    1       22.496 -18.781   3.505  0.00  0.00    -0.166 F 
ATOM     13  F   LIG    1       22.556 -19.228   5.625  0.00  0.00    -0.166 F 
ATOM     14  F   LIG    1       22.707 -20.831   4.176  0.00  0.00    -0.166 F 
ENDBRANCH   6  11
BRANCH   9  15
ATOM     15  C   LIG    1       25.162 -22.666   7.868  0.00  0.00    +0.434 C 
ATOM     16  F   LIG    1       25.629 -23.925   7.633  0.00  0.00    -0.164 F 
ATOM     17  F   LIG    1       23.804 -22.736   7.748  0.00  0.00    -0.164 F 
ATOM     18  F   LIG    1       25.389 -22.440   9.198  0.00  0.00    -0.164 F 
ENDBRANCH   9  15
BRANCH   1  19
ATOM     19  C   LIG    1       29.233 -20.197   6.219  0.00  0.00    +0.162 C 
BRANCH  19  20
ATOM     20  C   LIG    1       29.682 -19.018   7.147  0.00  0.00    +0.087 C 
ATOM     21  N   LIG    1       31.171 -18.965   7.176  0.00  0.00    -0.311 NA
ATOM     22  H   LIG    1       31.503 -19.811   7.644  0.00  0.00    +0.122 HD
ATOM     23  C   LIG    1       31.644 -17.825   7.968  0.00  0.00    +0.081 C 
ATOM     24  C   LIG    1       31.186 -17.936   9.419  0.00  0.00    +0.015 C 
ATOM     25  C   LIG    1       29.668 -18.038   9.498  0.00  0.00    +0.003 C 
ATOM     26  C   LIG    1       29.145 -19.149   8.588  0.00  0.00    +0.021 C 
ENDBRANCH  19  20
BRANCH  19  27
ATOM     27  O   LIG    1       29.881 -21.410   6.642  0.00  0.00    -0.386 OA
ATOM     28  H   LIG    1       30.361 -21.728   5.857  0.00  0.00    +0.210 HD
ENDBRANCH  19  27
ENDBRANCH   1  19
TORSDOF 5
ENDMDL
MODEL 7
REMARK VINA RESULT:      -7.6      2.446      5.858
REMARK  Name = *****
REMARK                            x       y       z     vdW  Elec       q    Type
REMARK                         _______ _______ _______ _____ _____    ______ ____
ROOT
ATOM      1  C   LIG    1       26.728 -20.960   6.476  0.00  0.00    -0.006 A 
ATOM      2  C   LIG    1       25.402 -21.476   6.535  0.00  0.00    +0.007 A 
ATOM      3  C   LIG    1       24.995 -22.485   7.441  0.00  0.00    +0.010 A 
ATOM      4  C   LIG    1       23.684 -22.954   7.465  0.00  0.00    +0.001 A 
ATOM      5  C   LIG    1       22.758 -22.427   6.581  0.00  0.00    +0.014 A 
ATOM      6  C   LIG    1       23.129 -21.421   5.668  0.00  0.00    +0.081 A 
ATOM      7  C   LIG    1       24.438 -20.940   5.640  0.00  0.00    +0.084 A 
ATOM      8  N   LIG    1       24.754 -19.976   4.765  0.00  0.00    -0.242 NA
ATOM      9  C   LIG    1       26.015 -19.474   4.709  0.00  0.00    +0.145 A 
ATOM     10  C   LIG    1       27.013 -19.950   5.544  0.00  0.00    +0.039 A 
ENDROOT
BRANCH   6  11
ATOM     11  C   LIG    1       22.058 -20.900   4.740  0.00  0.00    +0.419 C 
ATOM     12  F   LIG    1       20.902 -21.621   4.855  0.00  0.00    -0.166 F 
ATOM     13  F   LIG    1       22.427 -21.038   3.430  0.00  0.00    -0.166 F 
ATOM     14  F   LIG    1       21.684 -19.600   4.870  0.00  0.00    -0.166 F 
ENDBRANCH   6  11
BRANCH   9  15
ATOM     15  C   LIG    1       26.313 -18.368   3.707  0.00  0.00    +0.434 C 
ATOM     16  F   LIG    1       26.362 -18.810   2.418  0.00  0.00    -0.164 F 
ATOM     17  F   LIG    1       27.503 -17.743   3.939  0.00  0.00    -0.164 F 
ATOM     18  F   LIG    1       25.380 -17.368   3.709  0.00  0.00    -0.164 F 
ENDBRANCH   9  15
BRANCH   1  19
ATOM     19  C   LIG    1       27.854 -21.457   7.378  0.00  0.00    +0.162 C 
BRANCH  19  20
ATOM     20  C   LIG    1       29.137 -20.560   7.385  0.00  0.00    +0.087 C 
ATOM     21  N   LIG    1       30.184 -21.219   8.216  0.00  0.00    -0.311 NA
ATOM     22  H   LIG    1       29.856 -21.219   9.185  0.00  0.00    +0.122 HD
ATOM     23  C   LIG    1       31.437 -20.457   8.190  0.00  0.00    +0.081 C 
ATOM     24  C   LIG    1       31.243 -19.058   8.766  0.00  0.00    +0.015 C 
ATOM     25  C   LIG    1       30.156 -18.309   8.005  0.00  0.00    +0.003 C 
ATOM     26  C   LIG    1       28.874 -19.137   7.922  0.00  0.00    +0.021 C 
ENDBRANCH  19  20
BRANCH  19  27
ATOM     27  O   LIG    1       27.364 -21.599   8.723  0.00  0.00    -0.386 OA
ATOM     28  H   LIG    1       27.477 -22.542   8.935  0.00  0.00    +0.210 HD
ENDBRANCH  19  27
ENDBRANCH   1  19
TORSDOF 5
ENDMDL
MODEL 8
REMARK VINA RESULT:      -7.5      1.501      4.277
REMARK  Name = *****
REMARK                            x       y       z     vdW  Elec       q    Type
REMARK                         _______ _______ _______ _____ _____    ______ ____
ROOT
ATOM      1  C   LIG    1       25.435 -22.204   6.550  0.00  0.00    -0.006 A 
ATOM      2  C   LIG    1       24.288 -21.625   5.936  0.00  0.00    +0.007 A 
ATOM      3  C   LIG    1       22.998 -22.205   5.986  0.00  0.00    +0.010 A 
ATOM      4  C   LIG    1       21.904 -21.599   5.373  0.00  0.00    +0.001 A 
ATOM      5  C   LIG    1       22.082 -20.404   4.697  0.00  0.00    +0.014 A 
ATOM      6  C   LIG    1       23.351 -19.798   4.631  0.00  0.00    +0.081 A 
ATOM      7  C   LIG    1       24.451 -20.394   5.245  0.00  0.00    +0.084 A 
ATOM      8  N   LIG    1       25.643 -19.787   5.170  0.00  0.00    -0.242 NA
ATOM      9  C   LIG    1       26.739 -20.328   5.761  0.00  0.00    +0.145 A 
ATOM     10  C   LIG    1       26.662 -21.530   6.447  0.00  0.00    +0.039 A 
ENDROOT
BRANCH   6  11
ATOM     11  C   LIG    1       23.457 -18.495   3.875  0.00  0.00    +0.419 C 
ATOM     12  F   LIG    1       22.936 -17.455   4.594  0.00  0.00    -0.166 F 
ATOM     13  F   LIG    1       22.719 -18.528   2.723  0.00  0.00    -0.166 F 
ATOM     14  F   LIG    1       24.694 -18.082   3.494  0.00  0.00    -0.166 F 
ENDBRANCH   6  11
BRANCH   9  15
ATOM     15  C   LIG    1       28.063 -19.585   5.657  0.00  0.00    +0.434 C 
ATOM     16  F   LIG    1       28.012 -18.511   4.818  0.00  0.00    -0.164 F 
ATOM     17  F   LIG    1       29.083 -20.371   5.205  0.00  0.00    -0.164 F 
ATOM     18  F   LIG    1       28.501 -19.088   6.853  0.00  0.00    -0.164 F 
ENDBRANCH   9  15
BRANCH   1  19
ATOM     19  C   LIG    1       25.392 -23.523   7.314  0.00  0.00    +0.162 C 
BRANCH  19  20
ATOM     20  C   LIG    1       25.811 -24.782   6.483  0.00  0.00    +0.087 C 
ATOM     21  N   LIG    1       24.922 -24.894   5.293  0.00  0.00    -0.311 NA
ATOM     22  H   LIG    1       23.978 -25.102   5.629  0.00  0.00    +0.122 HD
ATOM     23  C   LIG    1       25.324 -26.014   4.435  0.00  0.00    +0.081 C 
ATOM     24  C   LIG    1       25.223 -27.341   5.180  0.00  0.00    +0.015 C 
ATOM     25  C   LIG    1       26.072 -27.316   6.444  0.00  0.00    +0.003 C 
ATOM     26  C   LIG    1       25.747 -26.091   7.298  0.00  0.00    +0.021 C 
ENDBRANCH  19  20
BRANCH  19  27
ATOM     27  O   LIG    1       26.222 -23.427   8.485  0.00  0.00    -0.386 OA
ATOM     28  H   LIG    1       27.055 -23.869   8.241  0.00  0.00    +0.210 HD
ENDBRANCH  19  27
ENDBRANCH   1  19
TORSDOF 5
ENDMDL
MODEL 9
REMARK VINA RESULT:      -7.3      7.877     10.525
REMARK  Name = *****
REMARK                            x       y       z     vdW  Elec       q    Type
REMARK                         _______ _______ _______ _____ _____    ______ ____
ROOT
ATOM      1  C   LIG    1       25.027 -29.208   6.662  0.00  0.00    -0.006 A 
ATOM      2  C   LIG    1       25.488 -29.236   8.009  0.00  0.00    +0.007 A 
ATOM      3  C   LIG    1       26.152 -28.152   8.632  0.00  0.00    +0.010 A 
ATOM      4  C   LIG    1       26.581 -28.225   9.954  0.00  0.00    +0.001 A 
ATOM      5  C   LIG    1       26.357 -29.385  10.677  0.00  0.00    +0.014 A 
ATOM      6  C   LIG    1       25.697 -30.481  10.089  0.00  0.00    +0.081 A 
ATOM      7  C   LIG    1       25.259 -30.416   8.767  0.00  0.00    +0.084 A 
ATOM      8  N   LIG    1       24.627 -31.474   8.242  0.00  0.00    -0.242 NA
ATOM      9  C   LIG    1       24.177 -31.451   6.961  0.00  0.00    +0.145 A 
ATOM     10  C   LIG    1       24.368 -30.339   6.156  0.00  0.00    +0.039 A 
ENDROOT
BRANCH   6  11
ATOM     11  C   LIG    1       25.493 -31.707  10.947  0.00  0.00    +0.419 C 
ATOM     12  F   LIG    1       24.164 -31.973  11.131  0.00  0.00    -0.166 F 
ATOM     13  F   LIG    1       25.989 -31.519  12.208  0.00  0.00    -0.166 F 
ATOM     14  F   LIG    1       26.037 -32.877  10.521  0.00  0.00    -0.166 F 
ENDBRANCH   6  11
BRANCH   9  15
ATOM     15  C   LIG    1       23.451 -32.675   6.423  0.00  0.00    +0.434 C 
ATOM     16  F   LIG    1       22.835 -32.451   5.227  0.00  0.00    -0.164 F 
ATOM     17  F   LIG    1       22.483 -33.136   7.267  0.00  0.00    -0.164 F 
ATOM     18  F   LIG    1       24.276 -33.744   6.209  0.00  0.00    -0.164 F 
ENDBRANCH   9  15
BRANCH   1  19
ATOM     19  C   LIG    1       25.217 -28.005   5.744  0.00  0.00    +0.162 C 
BRANCH  19  20
ATOM     20  C   LIG    1       24.973 -26.614   6.420  0.00  0.00    +0.087 C 
ATOM     21  N   LIG    1       23.765 -25.986   5.815  0.00  0.00    -0.311 NA
ATOM     22  H   LIG    1       23.983 -25.771   4.839  0.00  0.00    +0.122 HD
ATOM     23  C   LIG    1       23.446 -24.713   6.471  0.00  0.00    +0.081 C 
ATOM     24  C   LIG    1       24.583 -23.710   6.309  0.00  0.00    +0.015 C 
ATOM     25  C   LIG    1       25.884 -24.276   6.864  0.00  0.00    +0.003 C 
ATOM     26  C   LIG    1       26.176 -25.657   6.277  0.00  0.00    +0.021 C 
ENDBRANCH  19  20
BRANCH  19  27
ATOM     27  O   LIG    1       26.539 -28.036   5.180  0.00  0.00    -0.386 OA
ATOM     28  H   LIG    1       27.080 -27.485   5.772  0.00  0.00    +0.210 HD
ENDBRANCH  19  27
ENDBRANCH   1  19
TORSDOF 5
ENDMDL
