MODEL 1
REMARK VINA RESULT:      -7.9      0.000      0.000
REMARK  Name = *****
REMARK                            x       y       z     vdW  Elec       q    Type
REMARK                         _______ _______ _______ _____ _____    ______ ____
ROOT
ATOM      1  C   LIG    1       25.757 -20.340   9.068  0.00  0.00    +0.105 C 
ATOM      2  N   LIG    1       25.219 -21.696   8.892  0.00  0.00    -0.302 NA
ATOM      3  C   LIG    1       24.224 -21.677   7.796  0.00  0.00    +0.111 C 
ATOM      4  C   LIG    1       24.765 -21.496   6.301  0.00  0.00    +0.118 C 
ATOM      5  N   LIG    1       26.241 -21.842   6.231  0.00  0.00    -0.320 N 
ATOM      6  C   LIG    1       27.235 -20.862   6.167  0.00  0.00    +0.034 A 
ATOM      7  C   LIG    1       27.220 -19.890   5.159  0.00  0.00    -0.022 A 
ATOM      8  C   LIG    1       26.226 -20.004   4.037  0.00  0.00    +0.072 C 
ATOM      9  C   LIG    1       24.820 -19.667   4.445  0.00  0.00    -0.038 A 
ATOM     10  C   LIG    1       24.123 -18.725   3.656  0.00  0.00    +0.004 A 
ATOM     11  C   LIG    1       22.798 -18.398   3.917  0.00  0.00    +0.000 A 
ATOM     12  C   LIG    1       22.149 -19.002   4.981  0.00  0.00    +0.000 A 
ATOM     13  C   LIG    1       22.825 -19.945   5.757  0.00  0.00    +0.006 A 
ATOM     14  C   LIG    1       28.184 -18.855   5.123  0.00  0.00    +0.006 A 
ATOM     15  C   LIG    1       29.208 -18.798   6.065  0.00  0.00    +0.000 A 
ATOM     16  C   LIG    1       29.301 -19.800   7.019  0.00  0.00    +0.002 A 
ATOM     17  C   LIG    1       28.347 -20.820   7.038  0.00  0.00    +0.023 A 
ATOM     18  C   LIG    1       26.514 -23.015   7.089  0.00  0.00    +0.121 C 
ATOM     19  C   LIG    1       24.177 -20.306   5.521  0.00  0.00    -0.022 A 
ATOM     20  C   LIG    1       26.247 -22.714   8.590  0.00  0.00    +0.103 C 
ENDROOT
TORSDOF 0
ENDMDL
MODEL 2
REMARK VINA RESULT:      -7.0      1.557      2.071
REMARK  Name = *****
REMARK                            x       y       z     vdW  Elec       q    Type
REMARK                         _______ _______ _______ _____ _____    ______ ____
ROOT
ATOM      1  C   LIG    1       23.387 -22.098   8.069  0.00  0.00    +0.105 C 
ATOM      2  N   LIG    1       22.858 -23.067   7.100  0.00  0.00    -0.302 NA
ATOM      3  C   LIG    1       22.404 -22.338   5.894  0.00  0.00    +0.111 C 
ATOM      4  C   LIG    1       23.524 -21.711   4.937  0.00  0.00    +0.118 C 
ATOM      5  N   LIG    1       24.864 -22.375   5.191  0.00  0.00    -0.320 N 
ATOM      6  C   LIG    1       25.875 -21.756   5.931  0.00  0.00    +0.034 A 
ATOM      7  C   LIG    1       26.355 -20.491   5.572  0.00  0.00    -0.022 A 
ATOM      8  C   LIG    1       25.902 -19.868   4.281  0.00  0.00    +0.072 C 
ATOM      9  C   LIG    1       24.486 -19.368   4.321  0.00  0.00    -0.038 A 
ATOM     10  C   LIG    1       24.254 -18.038   3.906  0.00  0.00    +0.004 A 
ATOM     11  C   LIG    1       22.970 -17.508   3.848  0.00  0.00    +0.000 A 
ATOM     12  C   LIG    1       21.895 -18.300   4.214  0.00  0.00    +0.000 A 
ATOM     13  C   LIG    1       22.113 -19.621   4.612  0.00  0.00    +0.006 A 
ATOM     14  C   LIG    1       27.332 -19.828   6.352  0.00  0.00    +0.006 A 
ATOM     15  C   LIG    1       27.881 -20.436   7.479  0.00  0.00    +0.000 A 
ATOM     16  C   LIG    1       27.491 -21.726   7.804  0.00  0.00    +0.002 A 
ATOM     17  C   LIG    1       26.531 -22.371   7.021  0.00  0.00    +0.023 A 
ATOM     18  C   LIG    1       24.663 -23.823   5.415  0.00  0.00    +0.121 C 
ATOM     19  C   LIG    1       23.408 -20.197   4.684  0.00  0.00    -0.022 A 
ATOM     20  C   LIG    1       23.830 -24.105   6.696  0.00  0.00    +0.103 C 
ENDROOT
TORSDOF 0
ENDMDL
MODEL 3
REMARK VINA RESULT:      -6.9      2.301      4.829
REMARK  Name = *****
REMARK                            x       y       z     vdW  Elec       q    Type
REMARK                         _______ _______ _______ _____ _____    ______ ____
ROOT
ATOM      1  C   LIG    1       24.288 -21.162   4.040  0.00  0.00    +0.105 C 
ATOM      2  N   LIG    1       23.020 -21.077   4.778  0.00  0.00    -0.302 NA
ATOM      3  C   LIG    1       22.743 -22.390   5.404  0.00  0.00    +0.111 C 
ATOM      4  C   LIG    1       23.651 -22.830   6.645  0.00  0.00    +0.118 C 
ATOM      5  N   LIG    1       24.332 -21.619   7.254  0.00  0.00    -0.320 N 
ATOM      6  C   LIG    1       25.680 -21.327   7.025  0.00  0.00    +0.034 A 
ATOM      7  C   LIG    1       26.676 -22.268   7.311  0.00  0.00    -0.022 A 
ATOM      8  C   LIG    1       26.310 -23.537   8.030  0.00  0.00    +0.072 C 
ATOM      9  C   LIG    1       25.566 -24.519   7.170  0.00  0.00    -0.038 A 
ATOM     10  C   LIG    1       26.054 -25.844   7.126  0.00  0.00    +0.004 A 
ATOM     11  C   LIG    1       25.396 -26.837   6.411  0.00  0.00    +0.000 A 
ATOM     12  C   LIG    1       24.240 -26.518   5.718  0.00  0.00    +0.000 A 
ATOM     13  C   LIG    1       23.742 -25.215   5.768  0.00  0.00    +0.006 A 
ATOM     14  C   LIG    1       28.037 -22.007   7.022  0.00  0.00    +0.006 A 
ATOM     15  C   LIG    1       28.432 -20.783   6.486  0.00  0.00    +0.000 A 
ATOM     16  C   LIG    1       27.478 -19.800   6.280  0.00  0.00    +0.002 A 
ATOM     17  C   LIG    1       26.140 -20.068   6.576  0.00  0.00    +0.023 A 
ATOM     18  C   LIG    1       23.393 -20.477   7.261  0.00  0.00    +0.121 C 
ATOM     19  C   LIG    1       24.385 -24.174   6.487  0.00  0.00    -0.022 A 
ATOM     20  C   LIG    1       23.003 -20.033   5.824  0.00  0.00    +0.103 C 
ENDROOT
TORSDOF 0
ENDMDL
MODEL 4
REMARK VINA RESULT:      -6.0      1.976      4.117
REMARK  Name = *****
REMARK                            x       y       z     vdW  Elec       q    Type
REMARK                         _______ _______ _______ _____ _____    ______ ____
ROOT
ATOM      1  C   LIG    1       27.225 -21.554   5.862  0.00  0.00    +0.105 C 
ATOM      2  N   LIG    1       27.084 -20.771   7.097  0.00  0.00    -0.302 NA
ATOM      3  C   LIG    1       25.766 -20.097   7.088  0.00  0.00    +0.111 C 
ATOM      4  C   LIG    1       24.464 -21.004   7.295  0.00  0.00    +0.118 C 
ATOM      5  N   LIG    1       24.842 -22.330   7.926  0.00  0.00    -0.320 N 
ATOM      6  C   LIG    1       24.926 -23.513   7.186  0.00  0.00    +0.034 A 
ATOM      7  C   LIG    1       23.837 -23.967   6.433  0.00  0.00    -0.022 A 
ATOM      8  C   LIG    1       22.510 -23.268   6.558  0.00  0.00    +0.072 C 
ATOM      9  C   LIG    1       22.474 -21.926   5.885  0.00  0.00    -0.038 A 
ATOM     10  C   LIG    1       21.412 -21.677   4.987  0.00  0.00    +0.004 A 
ATOM     11  C   LIG    1       21.259 -20.443   4.367  0.00  0.00    +0.000 A 
ATOM     12  C   LIG    1       22.174 -19.437   4.628  0.00  0.00    +0.000 A 
ATOM     13  C   LIG    1       23.220 -19.669   5.525  0.00  0.00    +0.006 A 
ATOM     14  C   LIG    1       23.932 -25.127   5.630  0.00  0.00    +0.006 A 
ATOM     15  C   LIG    1       25.102 -25.882   5.600  0.00  0.00    +0.000 A 
ATOM     16  C   LIG    1       26.165 -25.508   6.407  0.00  0.00    +0.002 A 
ATOM     17  C   LIG    1       26.054 -24.364   7.201  0.00  0.00    +0.023 A 
ATOM     18  C   LIG    1       25.885 -22.109   8.952  0.00  0.00    +0.121 C 
ATOM     19  C   LIG    1       23.408 -20.915   6.177  0.00  0.00    -0.022 A 
ATOM     20  C   LIG    1       27.206 -21.572   8.333  0.00  0.00    +0.103 C 
ENDROOT
TORSDOF 0
ENDMDL
MODEL 5
REMARK VINA RESULT:      -5.9      8.076     10.511
REMARK  Name = *****
REMARK                            x       y       z     vdW  Elec       q    Type
REMARK                         _______ _______ _______ _____ _____    ______ ____
ROOT
ATOM      1  C   LIG    1       27.038 -31.381   9.256  0.00  0.00    +0.105 C 
ATOM      2  N   LIG    1       25.836 -31.044  10.030  0.00  0.00    -0.302 NA
ATOM      3  C   LIG    1       25.321 -29.735   9.568  0.00  0.00    +0.111 C 
ATOM      4  C   LIG    1       24.635 -29.671   8.123  0.00  0.00    +0.118 C 
ATOM      5  N   LIG    1       24.219 -31.060   7.678  0.00  0.00    -0.320 N 
ATOM      6  C   LIG    1       24.949 -31.793   6.738  0.00  0.00    +0.034 A 
ATOM      7  C   LIG    1       25.223 -31.263   5.472  0.00  0.00    -0.022 A 
ATOM      8  C   LIG    1       24.582 -29.967   5.058  0.00  0.00    +0.072 C 
ATOM      9  C   LIG    1       25.170 -28.764   5.739  0.00  0.00    -0.038 A 
ATOM     10  C   LIG    1       25.579 -27.688   4.919  0.00  0.00    +0.004 A 
ATOM     11  C   LIG    1       26.074 -26.508   5.462  0.00  0.00    +0.000 A 
ATOM     12  C   LIG    1       26.178 -26.388   6.838  0.00  0.00    +0.000 A 
ATOM     13  C   LIG    1       25.762 -27.440   7.657  0.00  0.00    +0.006 A 
ATOM     14  C   LIG    1       26.016 -31.969   4.537  0.00  0.00    +0.006 A 
ATOM     15  C   LIG    1       26.510 -33.238   4.831  0.00  0.00    +0.000 A 
ATOM     16  C   LIG    1       26.176 -33.825   6.041  0.00  0.00    +0.002 A 
ATOM     17  C   LIG    1       25.386 -33.119   6.952  0.00  0.00    +0.023 A 
ATOM     18  C   LIG    1       23.679 -31.808   8.834  0.00  0.00    +0.121 C 
ATOM     19  C   LIG    1       25.251 -28.659   7.140  0.00  0.00    -0.022 A 
ATOM     20  C   LIG    1       24.756 -32.047   9.928  0.00  0.00    +0.103 C 
ENDROOT
TORSDOF 0
ENDMDL
MODEL 6
REMARK VINA RESULT:      -5.9      7.942     10.584
REMARK  Name = *****
REMARK                            x       y       z     vdW  Elec       q    Type
REMARK                         _______ _______ _______ _____ _____    ______ ____
ROOT
ATOM      1  C   LIG    1       22.432 -31.274  10.036  0.00  0.00    +0.105 C 
ATOM      2  N   LIG    1       23.036 -32.378   9.277  0.00  0.00    -0.302 NA
ATOM      3  C   LIG    1       23.706 -31.824   8.078  0.00  0.00    +0.111 C 
ATOM      4  C   LIG    1       25.054 -30.990   8.296  0.00  0.00    +0.118 C 
ATOM      5  N   LIG    1       25.656 -31.309   9.651  0.00  0.00    -0.320 N 
ATOM      6  C   LIG    1       25.545 -30.441  10.740  0.00  0.00    +0.034 A 
ATOM      7  C   LIG    1       25.981 -29.114  10.648  0.00  0.00    -0.022 A 
ATOM      8  C   LIG    1       26.731 -28.667   9.424  0.00  0.00    +0.072 C 
ATOM      9  C   LIG    1       25.860 -28.513   8.209  0.00  0.00    -0.038 A 
ATOM     10  C   LIG    1       25.940 -27.292   7.502  0.00  0.00    +0.004 A 
ATOM     11  C   LIG    1       25.221 -27.083   6.332  0.00  0.00    +0.000 A 
ATOM     12  C   LIG    1       24.401 -28.090   5.852  0.00  0.00    +0.000 A 
ATOM     13  C   LIG    1       24.327 -29.305   6.536  0.00  0.00    +0.006 A 
ATOM     14  C   LIG    1       25.813 -28.210  11.722  0.00  0.00    +0.006 A 
ATOM     15  C   LIG    1       25.250 -28.626  12.927  0.00  0.00    +0.000 A 
ATOM     16  C   LIG    1       24.895 -29.957  13.078  0.00  0.00    +0.002 A 
ATOM     17  C   LIG    1       25.073 -30.841  12.011  0.00  0.00    +0.023 A 
ATOM     18  C   LIG    1       25.506 -32.754   9.930  0.00  0.00    +0.121 C 
ATOM     19  C   LIG    1       25.046 -29.557   7.733  0.00  0.00    -0.022 A 
ATOM     20  C   LIG    1       24.014 -33.173  10.049  0.00  0.00    +0.103 C 
ENDROOT
TORSDOF 0
ENDMDL
MODEL 7
REMARK VINA RESULT:      -5.8      9.599     11.077
REMARK  Name = *****
REMARK                            x       y       z     vdW  Elec       q    Type
REMARK                         _______ _______ _______ _____ _____    ______ ____
ROOT
ATOM      1  C   LIG    1       26.904 -27.475  11.693  0.00  0.00    +0.105 C 
ATOM      2  N   LIG    1       27.202 -27.987  13.037  0.00  0.00    -0.302 NA
ATOM      3  C   LIG    1       25.984 -27.874  13.872  0.00  0.00    +0.111 C 
ATOM      4  C   LIG    1       24.770 -28.869  13.559  0.00  0.00    +0.118 C 
ATOM      5  N   LIG    1       25.261 -30.063  12.762  0.00  0.00    -0.320 N 
ATOM      6  C   LIG    1       25.046 -30.182  11.387  0.00  0.00    +0.034 A 
ATOM      7  C   LIG    1       23.753 -30.119  10.855  0.00  0.00    -0.022 A 
ATOM      8  C   LIG    1       22.571 -30.095  11.785  0.00  0.00    +0.072 C 
ATOM      9  C   LIG    1       22.393 -28.783  12.493  0.00  0.00    -0.038 A 
ATOM     10  C   LIG    1       21.115 -28.182  12.437  0.00  0.00    +0.004 A 
ATOM     11  C   LIG    1       20.837 -27.001  13.115  0.00  0.00    +0.000 A 
ATOM     12  C   LIG    1       21.837 -26.394  13.855  0.00  0.00    +0.000 A 
ATOM     13  C   LIG    1       23.099 -26.988  13.929  0.00  0.00    +0.006 A 
ATOM     14  C   LIG    1       23.530 -30.173   9.459  0.00  0.00    +0.006 A 
ATOM     15  C   LIG    1       24.590 -30.339   8.571  0.00  0.00    +0.000 A 
ATOM     16  C   LIG    1       25.871 -30.497   9.076  0.00  0.00    +0.002 A 
ATOM     17  C   LIG    1       26.076 -30.449  10.456  0.00  0.00    +0.023 A 
ATOM     18  C   LIG    1       26.585 -30.484  13.271  0.00  0.00    +0.121 C 
ATOM     19  C   LIG    1       23.421 -28.193  13.251  0.00  0.00    -0.022 A 
ATOM     20  C   LIG    1       27.667 -29.390  13.055  0.00  0.00    +0.103 C 
ENDROOT
TORSDOF 0
ENDMDL
MODEL 8
REMARK VINA RESULT:      -5.7     10.212     12.231
REMARK  Name = *****
REMARK                            x       y       z     vdW  Elec       q    Type
REMARK                         _______ _______ _______ _____ _____    ______ ____
ROOT
ATOM      1  C   LIG    1       22.767 -30.625  15.141  0.00  0.00    +0.105 C 
ATOM      2  N   LIG    1       22.138 -31.511  14.153  0.00  0.00    -0.302 NA
ATOM      3  C   LIG    1       20.722 -31.111  13.986  0.00  0.00    +0.111 C 
ATOM      4  C   LIG    1       20.421 -29.737  13.221  0.00  0.00    +0.118 C 
ATOM      5  N   LIG    1       21.624 -29.321  12.397  0.00  0.00    -0.320 N 
ATOM      6  C   LIG    1       22.497 -28.310  12.808  0.00  0.00    +0.034 A 
ATOM      7  C   LIG    1       22.021 -27.029  13.107  0.00  0.00    -0.022 A 
ATOM      8  C   LIG    1       20.584 -26.689  12.820  0.00  0.00    +0.072 C 
ATOM      9  C   LIG    1       19.615 -27.322  13.778  0.00  0.00    -0.038 A 
ATOM     10  C   LIG    1       18.667 -26.477  14.397  0.00  0.00    +0.004 A 
ATOM     11  C   LIG    1       17.690 -26.982  15.247  0.00  0.00    +0.000 A 
ATOM     12  C   LIG    1       17.651 -28.342  15.500  0.00  0.00    +0.000 A 
ATOM     13  C   LIG    1       18.575 -29.187  14.881  0.00  0.00    +0.006 A 
ATOM     14  C   LIG    1       22.886 -26.017  13.587  0.00  0.00    +0.006 A 
ATOM     15  C   LIG    1       24.251 -26.253  13.731  0.00  0.00    +0.000 A 
ATOM     16  C   LIG    1       24.764 -27.484  13.353  0.00  0.00    +0.002 A 
ATOM     17  C   LIG    1       23.900 -28.471  12.875  0.00  0.00    +0.023 A 
ATOM     18  C   LIG    1       22.232 -30.516  11.772  0.00  0.00    +0.121 C 
ATOM     19  C   LIG    1       19.586 -28.710  14.007  0.00  0.00    -0.022 A 
ATOM     20  C   LIG    1       22.798 -31.503  12.831  0.00  0.00    +0.103 C 
ENDROOT
TORSDOF 0
ENDMDL
MODEL 9
REMARK VINA RESULT:      -5.7      9.238     10.711
REMARK  Name = *****
REMARK                            x       y       z     vdW  Elec       q    Type
REMARK                         _______ _______ _______ _____ _____    ______ ____
ROOT
ATOM      1  C   LIG    1       26.720 -25.764  12.872  0.00  0.00    +0.105 C 
ATOM      2  N   LIG    1       26.824 -26.061  14.306  0.00  0.00    -0.302 NA
ATOM      3  C   LIG    1       25.471 -26.355  14.833  0.00  0.00    +0.111 C 
ATOM      4  C   LIG    1       24.789 -27.738  14.405  0.00  0.00    +0.118 C 
ATOM      5  N   LIG    1       25.840 -28.712  13.909  0.00  0.00    -0.320 N 
ATOM      6  C   LIG    1       26.034 -28.973  12.550  0.00  0.00    +0.034 A 
ATOM      7  C   LIG    1       24.976 -29.413  11.747  0.00  0.00    -0.022 A 
ATOM      8  C   LIG    1       23.662 -29.772  12.386  0.00  0.00    +0.072 C 
ATOM      9  C   LIG    1       22.875 -28.579  12.848  0.00  0.00    -0.038 A 
ATOM     10  C   LIG    1       21.528 -28.488  12.432  0.00  0.00    +0.004 A 
ATOM     11  C   LIG    1       20.703 -27.455  12.862  0.00  0.00    +0.000 A 
ATOM     12  C   LIG    1       21.216 -26.488  13.709  0.00  0.00    +0.000 A 
ATOM     13  C   LIG    1       22.543 -26.577  14.137  0.00  0.00    +0.006 A 
ATOM     14  C   LIG    1       25.145 -29.618  10.357  0.00  0.00    +0.006 A 
ATOM     15  C   LIG    1       26.386 -29.433   9.752  0.00  0.00    +0.000 A 
ATOM     16  C   LIG    1       27.473 -29.088  10.541  0.00  0.00    +0.002 A 
ATOM     17  C   LIG    1       27.292 -28.896  11.912  0.00  0.00    +0.023 A 
ATOM     18  C   LIG    1       27.055 -28.595  14.746  0.00  0.00    +0.121 C 
ATOM     19  C   LIG    1       23.415 -27.616  13.721  0.00  0.00    -0.022 A 
ATOM     20  C   LIG    1       27.718 -27.195  14.621  0.00  0.00    +0.103 C 
ENDROOT
TORSDOF 0
ENDMDL
