MODEL 1
REMARK VINA RESULT:      -8.5      0.000      0.000
REMARK  Name = *****
REMARK                            x       y       z     vdW  Elec       q    Type
REMARK                         _______ _______ _______ _____ _____    ______ ____
ROOT
ATOM      1  N   LIG    1       25.774 -21.722   6.770  0.00  0.00    -0.298 N 
ATOM      2  C   LIG    1       27.090 -21.160   6.772  0.00  0.00    +0.049 A 
ATOM      3  C   LIG    1       27.470 -20.146   5.874  0.00  0.00    +0.034 A 
ATOM      4  C   LIG    1       28.771 -19.609   5.893  0.00  0.00    +0.018 A 
ATOM      5  C   LIG    1       29.719 -20.048   6.810  0.00  0.00    +0.021 A 
ATOM      6  C   LIG    1       29.359 -21.021   7.726  0.00  0.00    +0.043 A 
ATOM      7 CL   LIG    1       30.510 -21.573   8.881  0.00  0.00    -0.084 Cl
ATOM      8  S   LIG    1       26.391 -19.490   4.628  0.00  0.00    -0.086 S 
ATOM      9  C   LIG    1       24.823 -20.206   5.047  0.00  0.00    +0.034 A 
ATOM     10  C   LIG    1       23.720 -19.726   4.319  0.00  0.00    +0.017 A 
ATOM     11  C   LIG    1       22.439 -20.224   4.534  0.00  0.00    +0.001 A 
ATOM     12  C   LIG    1       22.251 -21.201   5.498  0.00  0.00    +0.002 A 
ATOM     13  C   LIG    1       23.345 -21.677   6.225  0.00  0.00    +0.024 A 
ATOM     14  C   LIG    1       28.070 -21.556   7.717  0.00  0.00    +0.044 A 
ATOM     15  C   LIG    1       24.673 -21.223   6.010  0.00  0.00    +0.048 A 
ENDROOT
BRANCH   1  16
ATOM     16  C   LIG    1       25.612 -23.082   7.383  0.00  0.00    +0.112 C 
BRANCH  16  17
ATOM     17  C   LIG    1       25.917 -24.202   6.379  0.00  0.00    +0.035 C 
BRANCH  17  18
ATOM     18  C   LIG    1       25.353 -25.561   6.846  0.00  0.00    +0.086 C 
BRANCH  18  22
ATOM     19  N   LIG    1       24.512 -29.200   5.871  0.00  0.00    -0.298 NA
ATOM     20  C   LIG    1       24.641 -28.630   7.231  0.00  0.00    +0.100 C 
ATOM     21  C   LIG    1       25.971 -27.878   7.468  0.00  0.00    +0.100 C 
ATOM     22  N   LIG    1       26.194 -26.737   6.561  0.00  0.00    -0.300 NA
ATOM     23  C   LIG    1       26.019 -27.215   5.165  0.00  0.00    +0.100 C 
ATOM     24  C   LIG    1       24.787 -28.129   4.889  0.00  0.00    +0.100 C 
BRANCH  19  25
ATOM     25  C   LIG    1       25.379 -30.387   5.740  0.00  0.00    +0.112 C 
BRANCH  25  26
ATOM     26  C   LIG    1       24.671 -31.749   5.765  0.00  0.00    +0.171 C 
BRANCH  26  27
ATOM     27  O   LIG    1       23.260 -31.533   5.697  0.00  0.00    -0.394 OA
ATOM     28  H   LIG    1       22.869 -31.948   6.485  0.00  0.00    +0.209 HD
ENDBRANCH  26  27
ENDBRANCH  25  26
ENDBRANCH  19  25
ENDBRANCH  18  22
ENDBRANCH  17  18
ENDBRANCH  16  17
ENDBRANCH   1  16
TORSDOF 7
ENDMDL
MODEL 2
REMARK VINA RESULT:      -8.5      0.971      1.127
REMARK  Name = *****
REMARK                            x       y       z     vdW  Elec       q    Type
REMARK                         _______ _______ _______ _____ _____    ______ ____
ROOT
ATOM      1  N   LIG    1       25.340 -20.998   6.583  0.00  0.00    -0.298 N 
ATOM      2  C   LIG    1       26.746 -20.735   6.586  0.00  0.00    +0.049 A 
ATOM      3  C   LIG    1       27.364 -19.963   5.584  0.00  0.00    +0.034 A 
ATOM      4  C   LIG    1       28.750 -19.718   5.607  0.00  0.00    +0.018 A 
ATOM      5  C   LIG    1       29.552 -20.214   6.628  0.00  0.00    +0.021 A 
ATOM      6  C   LIG    1       28.963 -20.948   7.643  0.00  0.00    +0.043 A 
ATOM      7 CL   LIG    1       29.933 -21.562   8.926  0.00  0.00    -0.084 Cl
ATOM      8  S   LIG    1       26.488 -19.276   4.203  0.00  0.00    -0.086 S 
ATOM      9  C   LIG    1       24.792 -19.575   4.621  0.00  0.00    +0.034 A 
ATOM     10  C   LIG    1       23.840 -18.980   3.774  0.00  0.00    +0.017 A 
ATOM     11  C   LIG    1       22.476 -19.158   3.979  0.00  0.00    +0.001 A 
ATOM     12  C   LIG    1       22.053 -19.925   5.051  0.00  0.00    +0.002 A 
ATOM     13  C   LIG    1       22.995 -20.515   5.897  0.00  0.00    +0.024 A 
ATOM     14  C   LIG    1       27.589 -21.192   7.630  0.00  0.00    +0.044 A 
ATOM     15  C   LIG    1       24.396 -20.390   5.701  0.00  0.00    +0.048 A 
ENDROOT
BRANCH   1  16
ATOM     16  C   LIG    1       24.867 -22.191   7.360  0.00  0.00    +0.112 C 
BRANCH  16  17
ATOM     17  C   LIG    1       24.829 -23.459   6.496  0.00  0.00    +0.035 C 
BRANCH  17  18
ATOM     18  C   LIG    1       25.975 -24.431   6.852  0.00  0.00    +0.086 C 
BRANCH  18  22
ATOM     19  N   LIG    1       24.489 -27.925   6.161  0.00  0.00    -0.298 NA
ATOM     20  C   LIG    1       25.598 -27.574   7.076  0.00  0.00    +0.100 C 
ATOM     21  C   LIG    1       26.722 -26.751   6.405  0.00  0.00    +0.100 C 
ATOM     22  N   LIG    1       26.278 -25.462   5.843  0.00  0.00    -0.300 NA
ATOM     23  C   LIG    1       25.116 -25.721   4.954  0.00  0.00    +0.100 C 
ATOM     24  C   LIG    1       24.023 -26.688   5.498  0.00  0.00    +0.100 C 
BRANCH  19  25
ATOM     25  C   LIG    1       24.921 -28.990   5.234  0.00  0.00    +0.112 C 
BRANCH  25  26
ATOM     26  C   LIG    1       24.740 -30.432   5.728  0.00  0.00    +0.171 C 
BRANCH  26  27
ATOM     27  O   LIG    1       23.342 -30.729   5.773  0.00  0.00    -0.394 OA
ATOM     28  H   LIG    1       22.923 -30.049   6.327  0.00  0.00    +0.209 HD
ENDBRANCH  26  27
ENDBRANCH  25  26
ENDBRANCH  19  25
ENDBRANCH  18  22
ENDBRANCH  17  18
ENDBRANCH  16  17
ENDBRANCH   1  16
TORSDOF 7
ENDMDL
MODEL 3
REMARK VINA RESULT:      -7.7      4.864      8.208
REMARK  Name = *****
REMARK                            x       y       z     vdW  Elec       q    Type
REMARK                         _______ _______ _______ _____ _____    ______ ____
ROOT
ATOM      1  N   LIG    1       25.278 -21.406   5.372  0.00  0.00    -0.298 N 
ATOM      2  C   LIG    1       24.839 -22.685   5.839  0.00  0.00    +0.049 A 
ATOM      3  C   LIG    1       23.481 -22.966   6.081  0.00  0.00    +0.034 A 
ATOM      4  C   LIG    1       23.073 -24.232   6.542  0.00  0.00    +0.018 A 
ATOM      5  C   LIG    1       23.991 -25.252   6.757  0.00  0.00    +0.021 A 
ATOM      6  C   LIG    1       25.329 -25.011   6.493  0.00  0.00    +0.043 A 
ATOM      7 CL   LIG    1       26.486 -26.262   6.738  0.00  0.00    -0.084 Cl
ATOM      8  S   LIG    1       22.186 -21.771   5.878  0.00  0.00    -0.086 S 
ATOM      9  C   LIG    1       23.016 -20.419   5.087  0.00  0.00    +0.034 A 
ATOM     10  C   LIG    1       22.189 -19.372   4.643  0.00  0.00    +0.017 A 
ATOM     11  C   LIG    1       22.720 -18.242   4.028  0.00  0.00    +0.001 A 
ATOM     12  C   LIG    1       24.089 -18.161   3.838  0.00  0.00    +0.002 A 
ATOM     13  C   LIG    1       24.912 -19.201   4.274  0.00  0.00    +0.024 A 
ATOM     14  C   LIG    1       25.743 -23.760   6.033  0.00  0.00    +0.044 A 
ATOM     15  C   LIG    1       24.416 -20.353   4.940  0.00  0.00    +0.048 A 
ENDROOT
BRANCH   1  16
ATOM     16  C   LIG    1       26.714 -21.047   5.617  0.00  0.00    +0.112 C 
BRANCH  16  17
ATOM     17  C   LIG    1       26.938 -20.521   7.042  0.00  0.00    +0.035 C 
BRANCH  17  18
ATOM     18  C   LIG    1       28.244 -21.069   7.657  0.00  0.00    +0.086 C 
BRANCH  18  22
ATOM     19  N   LIG    1       30.884 -18.934   9.492  0.00  0.00    -0.298 NA
ATOM     20  C   LIG    1       29.642 -18.473   8.833  0.00  0.00    +0.100 C 
ATOM     21  C   LIG    1       29.498 -18.951   7.370  0.00  0.00    +0.100 C 
ATOM     22  N   LIG    1       29.487 -20.417   7.207  0.00  0.00    -0.300 NA
ATOM     23  C   LIG    1       30.680 -20.967   7.901  0.00  0.00    +0.100 C 
ATOM     24  C   LIG    1       30.988 -20.399   9.318  0.00  0.00    +0.100 C 
BRANCH  19  25
ATOM     25  C   LIG    1       32.038 -18.173   8.973  0.00  0.00    +0.112 C 
BRANCH  25  26
ATOM     26  C   LIG    1       32.411 -16.899   9.743  0.00  0.00    +0.171 C 
BRANCH  26  27
ATOM     27  O   LIG    1       32.708 -15.865   8.802  0.00  0.00    -0.394 OA
ATOM     28  H   LIG    1       32.340 -16.142   7.946  0.00  0.00    +0.209 HD
ENDBRANCH  26  27
ENDBRANCH  25  26
ENDBRANCH  19  25
ENDBRANCH  18  22
ENDBRANCH  17  18
ENDBRANCH  16  17
ENDBRANCH   1  16
TORSDOF 7
ENDMDL
MODEL 4
REMARK VINA RESULT:      -7.2      2.369      4.627
REMARK  Name = *****
REMARK                            x       y       z     vdW  Elec       q    Type
REMARK                         _______ _______ _______ _____ _____    ______ ____
ROOT
ATOM      1  N   LIG    1       26.422 -20.688   6.897  0.00  0.00    -0.298 N 
ATOM      2  C   LIG    1       25.519 -20.390   5.829  0.00  0.00    +0.049 A 
ATOM      3  C   LIG    1       25.887 -19.569   4.746  0.00  0.00    +0.034 A 
ATOM      4  C   LIG    1       24.981 -19.288   3.706  0.00  0.00    +0.018 A 
ATOM      5  C   LIG    1       23.699 -19.824   3.703  0.00  0.00    +0.021 A 
ATOM      6  C   LIG    1       23.324 -20.662   4.740  0.00  0.00    +0.043 A 
ATOM      7 CL   LIG    1       21.746 -21.350   4.752  0.00  0.00    -0.084 Cl
ATOM      8  S   LIG    1       27.475 -18.790   4.608  0.00  0.00    -0.086 S 
ATOM      9  C   LIG    1       28.397 -19.537   5.925  0.00  0.00    +0.034 A 
ATOM     10  C   LIG    1       29.770 -19.231   5.958  0.00  0.00    +0.017 A 
ATOM     11  C   LIG    1       30.599 -19.734   6.955  0.00  0.00    +0.001 A 
ATOM     12  C   LIG    1       30.060 -20.566   7.922  0.00  0.00    +0.002 A 
ATOM     13  C   LIG    1       28.698 -20.875   7.889  0.00  0.00    +0.024 A 
ATOM     14  C   LIG    1       24.217 -20.949   5.773  0.00  0.00    +0.044 A 
ATOM     15  C   LIG    1       27.810 -20.353   6.912  0.00  0.00    +0.048 A 
ENDROOT
BRANCH   1  16
ATOM     16  C   LIG    1       25.818 -21.127   8.198  0.00  0.00    +0.112 C 
BRANCH  16  17
ATOM     17  C   LIG    1       26.022 -22.627   8.447  0.00  0.00    +0.035 C 
BRANCH  17  18
ATOM     18  C   LIG    1       26.023 -23.433   7.131  0.00  0.00    +0.086 C 
BRANCH  18  22
ATOM     19  N   LIG    1       25.722 -26.424   4.709  0.00  0.00    -0.298 NA
ATOM     20  C   LIG    1       25.072 -25.099   4.601  0.00  0.00    +0.100 C 
ATOM     21  C   LIG    1       24.293 -24.682   5.871  0.00  0.00    +0.100 C 
ATOM     22  N   LIG    1       25.119 -24.597   7.090  0.00  0.00    -0.300 NA
ATOM     23  C   LIG    1       25.860 -25.876   7.237  0.00  0.00    +0.100 C 
ATOM     24  C   LIG    1       26.526 -26.449   5.950  0.00  0.00    +0.100 C 
BRANCH  19  25
ATOM     25  C   LIG    1       24.706 -27.490   4.617  0.00  0.00    +0.112 C 
BRANCH  25  26
ATOM     26  C   LIG    1       24.800 -28.607   5.666  0.00  0.00    +0.171 C 
BRANCH  26  27
ATOM     27  O   LIG    1       23.549 -29.297   5.715  0.00  0.00    -0.394 OA
ATOM     28  H   LIG    1       23.551 -29.945   4.990  0.00  0.00    +0.209 HD
ENDBRANCH  26  27
ENDBRANCH  25  26
ENDBRANCH  19  25
ENDBRANCH  18  22
ENDBRANCH  17  18
ENDBRANCH  16  17
ENDBRANCH   1  16
TORSDOF 7
ENDMDL
MODEL 5
REMARK VINA RESULT:      -6.7      4.922      9.876
REMARK  Name = *****
REMARK                            x       y       z     vdW  Elec       q    Type
REMARK                         _______ _______ _______ _____ _____    ______ ____
ROOT
ATOM      1  N   LIG    1       25.006 -30.900   6.713  0.00  0.00    -0.298 N 
ATOM      2  C   LIG    1       25.831 -31.790   5.956  0.00  0.00    +0.049 A 
ATOM      3  C   LIG    1       26.784 -32.626   6.565  0.00  0.00    +0.034 A 
ATOM      4  C   LIG    1       27.586 -33.493   5.799  0.00  0.00    +0.018 A 
ATOM      5  C   LIG    1       27.453 -33.566   4.418  0.00  0.00    +0.021 A 
ATOM      6  C   LIG    1       26.498 -32.777   3.798  0.00  0.00    +0.043 A 
ATOM      7 CL   LIG    1       26.304 -32.859   2.089  0.00  0.00    -0.084 Cl
ATOM      8  S   LIG    1       27.095 -32.640   8.312  0.00  0.00    -0.086 S 
ATOM      9  C   LIG    1       25.783 -31.637   8.955  0.00  0.00    +0.034 A 
ATOM     10  C   LIG    1       25.672 -31.603  10.357  0.00  0.00    +0.017 A 
ATOM     11  C   LIG    1       24.700 -30.834  10.987  0.00  0.00    +0.001 A 
ATOM     12  C   LIG    1       23.816 -30.102  10.213  0.00  0.00    +0.002 A 
ATOM     13  C   LIG    1       23.921 -30.136   8.820  0.00  0.00    +0.024 A 
ATOM     14  C   LIG    1       25.696 -31.918   4.550  0.00  0.00    +0.044 A 
ATOM     15  C   LIG    1       24.922 -30.877   8.138  0.00  0.00    +0.048 A 
ENDROOT
BRANCH   1  16
ATOM     16  C   LIG    1       24.408 -29.735   5.982  0.00  0.00    +0.112 C 
BRANCH  16  17
ATOM     17  C   LIG    1       25.435 -28.619   5.745  0.00  0.00    +0.035 C 
BRANCH  17  18
ATOM     18  C   LIG    1       24.985 -27.281   6.371  0.00  0.00    +0.086 C 
BRANCH  18  22
ATOM     19  N   LIG    1       24.494 -23.512   7.042  0.00  0.00    -0.298 NA
ATOM     20  C   LIG    1       23.485 -24.492   6.581  0.00  0.00    +0.100 C 
ATOM     21  C   LIG    1       23.922 -25.298   5.336  0.00  0.00    +0.100 C 
ATOM     22  N   LIG    1       25.153 -26.088   5.523  0.00  0.00    -0.300 NA
ATOM     23  C   LIG    1       26.207 -25.182   6.049  0.00  0.00    +0.100 C 
ATOM     24  C   LIG    1       25.788 -24.212   7.193  0.00  0.00    +0.100 C 
BRANCH  19  25
ATOM     25  C   LIG    1       24.528 -22.358   6.122  0.00  0.00    +0.112 C 
BRANCH  25  26
ATOM     26  C   LIG    1       23.777 -21.102   6.584  0.00  0.00    +0.171 C 
BRANCH  26  27
ATOM     27  O   LIG    1       23.324 -21.306   7.925  0.00  0.00    -0.394 OA
ATOM     28  H   LIG    1       23.339 -22.264   8.089  0.00  0.00    +0.209 HD
ENDBRANCH  26  27
ENDBRANCH  25  26
ENDBRANCH  19  25
ENDBRANCH  18  22
ENDBRANCH  17  18
ENDBRANCH  16  17
ENDBRANCH   1  16
TORSDOF 7
ENDMDL
MODEL 6
REMARK VINA RESULT:      -5.9      4.252      9.166
REMARK  Name = *****
REMARK                            x       y       z     vdW  Elec       q    Type
REMARK                         _______ _______ _______ _____ _____    ______ ____
ROOT
ATOM      1  N   LIG    1       25.617 -29.801   7.648  0.00  0.00    -0.298 N 
ATOM      2  C   LIG    1       25.971 -29.809   9.033  0.00  0.00    +0.049 A 
ATOM      3  C   LIG    1       26.184 -31.006   9.743  0.00  0.00    +0.034 A 
ATOM      4  C   LIG    1       26.529 -30.990  11.107  0.00  0.00    +0.018 A 
ATOM      5  C   LIG    1       26.690 -29.794  11.796  0.00  0.00    +0.021 A 
ATOM      6  C   LIG    1       26.519 -28.603  11.112  0.00  0.00    +0.043 A 
ATOM      7 CL   LIG    1       26.725 -27.107  11.939  0.00  0.00    -0.084 Cl
ATOM      8  S   LIG    1       25.999 -32.615   9.020  0.00  0.00    -0.086 S 
ATOM      9  C   LIG    1       25.801 -32.253   7.295  0.00  0.00    +0.034 A 
ATOM     10  C   LIG    1       25.800 -33.366   6.435  0.00  0.00    +0.017 A 
ATOM     11  C   LIG    1       25.628 -33.219   5.062  0.00  0.00    +0.001 A 
ATOM     12  C   LIG    1       25.472 -31.947   4.537  0.00  0.00    +0.002 A 
ATOM     13  C   LIG    1       25.477 -30.840   5.389  0.00  0.00    +0.024 A 
ATOM     14  C   LIG    1       26.180 -28.609   9.758  0.00  0.00    +0.044 A 
ATOM     15  C   LIG    1       25.611 -30.949   6.798  0.00  0.00    +0.048 A 
ENDROOT
BRANCH   1  16
ATOM     16  C   LIG    1       24.942 -28.568   7.123  0.00  0.00    +0.112 C 
BRANCH  16  17
ATOM     17  C   LIG    1       25.932 -27.626   6.425  0.00  0.00    +0.035 C 
BRANCH  17  18
ATOM     18  C   LIG    1       25.893 -26.204   7.026  0.00  0.00    +0.086 C 
BRANCH  18  22
ATOM     19  N   LIG    1       23.827 -22.944   7.069  0.00  0.00    -0.298 NA
ATOM     20  C   LIG    1       23.406 -24.280   6.591  0.00  0.00    +0.100 C 
ATOM     21  C   LIG    1       24.374 -24.906   5.561  0.00  0.00    +0.100 C 
ATOM     22  N   LIG    1       25.748 -25.102   6.058  0.00  0.00    -0.300 NA
ATOM     23  C   LIG    1       26.226 -23.811   6.617  0.00  0.00    +0.100 C 
ATOM     24  C   LIG    1       25.230 -23.034   7.529  0.00  0.00    +0.100 C 
BRANCH  19  25
ATOM     25  C   LIG    1       23.594 -21.938   6.014  0.00  0.00    +0.112 C 
BRANCH  25  26
ATOM     26  C   LIG    1       24.685 -20.872   5.841  0.00  0.00    +0.171 C 
BRANCH  26  27
ATOM     27  O   LIG    1       25.316 -21.064   4.573  0.00  0.00    -0.394 OA
ATOM     28  H   LIG    1       26.187 -20.635   4.619  0.00  0.00    +0.209 HD
ENDBRANCH  26  27
ENDBRANCH  25  26
ENDBRANCH  19  25
ENDBRANCH  18  22
ENDBRANCH  17  18
ENDBRANCH  16  17
ENDBRANCH   1  16
TORSDOF 7
ENDMDL
MODEL 7
REMARK VINA RESULT:      -5.8      7.508      8.961
REMARK  Name = *****
REMARK                            x       y       z     vdW  Elec       q    Type
REMARK                         _______ _______ _______ _____ _____    ______ ____
ROOT
ATOM      1  N   LIG    1       25.131 -28.050  12.837  0.00  0.00    -0.298 N 
ATOM      2  C   LIG    1       23.766 -28.430  12.644  0.00  0.00    +0.049 A 
ATOM      3  C   LIG    1       22.700 -27.684  13.180  0.00  0.00    +0.034 A 
ATOM      4  C   LIG    1       21.364 -28.078  12.979  0.00  0.00    +0.018 A 
ATOM      5  C   LIG    1       21.050 -29.205  12.230  0.00  0.00    +0.021 A 
ATOM      6  C   LIG    1       22.079 -29.937  11.664  0.00  0.00    +0.043 A 
ATOM      7 CL   LIG    1       21.716 -31.331  10.720  0.00  0.00    -0.084 Cl
ATOM      8  S   LIG    1       22.929 -26.234  14.177  0.00  0.00    -0.086 S 
ATOM      9  C   LIG    1       24.666 -25.916  14.020  0.00  0.00    +0.034 A 
ATOM     10  C   LIG    1       25.118 -24.707  14.579  0.00  0.00    +0.017 A 
ATOM     11  C   LIG    1       26.462 -24.353  14.544  0.00  0.00    +0.001 A 
ATOM     12  C   LIG    1       27.366 -25.204  13.932  0.00  0.00    +0.002 A 
ATOM     13  C   LIG    1       26.920 -26.403  13.373  0.00  0.00    +0.024 A 
ATOM     14  C   LIG    1       23.407 -29.552  11.855  0.00  0.00    +0.044 A 
ATOM     15  C   LIG    1       25.564 -26.821  13.420  0.00  0.00    +0.048 A 
ENDROOT
BRANCH   1  16
ATOM     16  C   LIG    1       26.167 -29.124  12.676  0.00  0.00    +0.112 C 
BRANCH  16  17
ATOM     17  C   LIG    1       26.859 -29.052  11.308  0.00  0.00    +0.035 C 
BRANCH  17  18
ATOM     18  C   LIG    1       26.819 -30.409  10.572  0.00  0.00    +0.086 C 
BRANCH  18  22
ATOM     19  N   LIG    1       24.116 -31.177   7.927  0.00  0.00    -0.298 NA
ATOM     20  C   LIG    1       25.093 -32.114   8.526  0.00  0.00    +0.100 C 
ATOM     21  C   LIG    1       26.558 -31.630   8.432  0.00  0.00    +0.100 C 
ATOM     22  N   LIG    1       26.817 -30.341   9.100  0.00  0.00    -0.300 NA
ATOM     23  C   LIG    1       25.828 -29.353   8.597  0.00  0.00    +0.100 C 
ATOM     24  C   LIG    1       24.349 -29.833   8.497  0.00  0.00    +0.100 C 
BRANCH  19  25
ATOM     25  C   LIG    1       24.199 -31.240   6.455  0.00  0.00    +0.112 C 
BRANCH  25  26
ATOM     26  C   LIG    1       24.400 -29.901   5.731  0.00  0.00    +0.171 C 
BRANCH  26  27
ATOM     27  O   LIG    1       23.125 -29.413   5.308  0.00  0.00    -0.394 OA
ATOM     28  H   LIG    1       23.055 -28.493   5.615  0.00  0.00    +0.209 HD
ENDBRANCH  26  27
ENDBRANCH  25  26
ENDBRANCH  19  25
ENDBRANCH  18  22
ENDBRANCH  17  18
ENDBRANCH  16  17
ENDBRANCH   1  16
TORSDOF 7
ENDMDL
