MODEL 1
REMARK VINA RESULT:      -7.6      0.000      0.000
REMARK  Name = *****
REMARK                            x       y       z     vdW  Elec       q    Type
REMARK                         _______ _______ _______ _____ _____    ______ ____
ROOT
ATOM      1  C   LIG    1       25.975 -22.167   8.492  0.00  0.00    +0.033 C 
ATOM      2  C   LIG    1       26.212 -20.787   7.868  0.00  0.00    +0.106 C 
ENDROOT
BRANCH   2   3
ATOM      3  N   LIG    1       27.485 -20.266   8.409  0.00  0.00    -0.288 NA
ATOM      4  C   LIG    1       28.430 -20.118   7.545  0.00  0.00    +0.132 C 
BRANCH   4   5
ATOM      5  C   LIG    1       29.841 -19.652   7.870  0.00  0.00    +0.225 C 
ATOM      6 CL   LIG    1       30.608 -19.183   6.332  0.00  0.00    -0.077 Cl
ATOM      7 CL   LIG    1       30.708 -21.042   8.569  0.00  0.00    -0.077 Cl
ATOM      8 CL   LIG    1       29.855 -18.292   9.006  0.00  0.00    -0.077 Cl
ENDBRANCH   4   5
ENDBRANCH   2   3
BRANCH   2   9
ATOM      9  C   LIG    1       26.305 -20.874   6.327  0.00  0.00    +0.061 C 
BRANCH   9  10
ATOM     10  C   LIG    1       25.083 -20.350   5.595  0.00  0.00    -0.045 A 
ATOM     11  C   LIG    1       25.193 -19.752   4.331  0.00  0.00    +0.003 A 
ATOM     12  C   LIG    1       24.057 -19.266   3.672  0.00  0.00    +0.000 A 
ATOM     13  C   LIG    1       22.803 -19.360   4.274  0.00  0.00    +0.000 A 
ATOM     14  C   LIG    1       22.682 -19.944   5.532  0.00  0.00    +0.000 A 
ATOM     15  C   LIG    1       23.813 -20.440   6.186  0.00  0.00    +0.003 A 
ENDBRANCH   9  10
ENDBRANCH   2   9
TORSDOF 4
ENDMDL
MODEL 2
REMARK VINA RESULT:      -7.6      0.058      1.304
REMARK  Name = *****
REMARK                            x       y       z     vdW  Elec       q    Type
REMARK                         _______ _______ _______ _____ _____    ______ ____
ROOT
ATOM      1  C   LIG    1       25.949 -22.144   8.511  0.00  0.00    +0.033 C 
ATOM      2  C   LIG    1       26.209 -20.777   7.870  0.00  0.00    +0.106 C 
ENDROOT
BRANCH   2   3
ATOM      3  N   LIG    1       27.495 -20.275   8.398  0.00  0.00    -0.288 NA
ATOM      4  C   LIG    1       28.437 -20.150   7.527  0.00  0.00    +0.132 C 
BRANCH   4   5
ATOM      5  C   LIG    1       29.859 -19.708   7.839  0.00  0.00    +0.225 C 
ATOM      6 CL   LIG    1       30.686 -21.090   8.599  0.00  0.00    -0.077 Cl
ATOM      7 CL   LIG    1       29.748 -18.365   9.004  0.00  0.00    -0.077 Cl
ATOM      8 CL   LIG    1       30.734 -19.186   6.389  0.00  0.00    -0.077 Cl
ENDBRANCH   4   5
ENDBRANCH   2   3
BRANCH   2   9
ATOM      9  C   LIG    1       26.293 -20.884   6.329  0.00  0.00    +0.061 C 
BRANCH   9  10
ATOM     10  C   LIG    1       25.070 -20.359   5.598  0.00  0.00    -0.045 A 
ATOM     11  C   LIG    1       25.176 -19.778   4.326  0.00  0.00    +0.003 A 
ATOM     12  C   LIG    1       24.040 -19.291   3.669  0.00  0.00    +0.000 A 
ATOM     13  C   LIG    1       22.789 -19.369   4.278  0.00  0.00    +0.000 A 
ATOM     14  C   LIG    1       22.672 -19.937   5.544  0.00  0.00    +0.000 A 
ATOM     15  C   LIG    1       23.803 -20.433   6.198  0.00  0.00    +0.003 A 
ENDBRANCH   9  10
ENDBRANCH   2   9
TORSDOF 4
ENDMDL
MODEL 3
REMARK VINA RESULT:      -7.5      0.071      1.800
REMARK  Name = *****
REMARK                            x       y       z     vdW  Elec       q    Type
REMARK                         _______ _______ _______ _____ _____    ______ ____
ROOT
ATOM      1  C   LIG    1       26.027 -22.166   8.451  0.00  0.00    +0.033 C 
ATOM      2  C   LIG    1       26.232 -20.770   7.852  0.00  0.00    +0.106 C 
ENDROOT
BRANCH   2   3
ATOM      3  N   LIG    1       27.502 -20.237   8.389  0.00  0.00    -0.288 NA
ATOM      4  C   LIG    1       28.478 -20.189   7.547  0.00  0.00    +0.132 C 
BRANCH   4   5
ATOM      5  C   LIG    1       29.890 -19.733   7.879  0.00  0.00    +0.225 C 
ATOM      6 CL   LIG    1       29.749 -18.342   8.983  0.00  0.00    -0.077 Cl
ATOM      7 CL   LIG    1       30.646 -19.208   6.353  0.00  0.00    -0.077 Cl
ATOM      8 CL   LIG    1       30.854 -21.018   8.626  0.00  0.00    -0.077 Cl
ENDBRANCH   4   5
ENDBRANCH   2   3
BRANCH   2   9
ATOM      9  C   LIG    1       26.309 -20.826   6.308  0.00  0.00    +0.061 C 
BRANCH   9  10
ATOM     10  C   LIG    1       25.071 -20.306   5.600  0.00  0.00    -0.045 A 
ATOM     11  C   LIG    1       23.798 -20.432   6.174  0.00  0.00    +0.003 A 
ATOM     12  C   LIG    1       22.664 -19.955   5.504  0.00  0.00    +0.000 A 
ATOM     13  C   LIG    1       22.789 -19.360   4.250  0.00  0.00    +0.000 A 
ATOM     14  C   LIG    1       24.047 -19.236   3.666  0.00  0.00    +0.000 A 
ATOM     15  C   LIG    1       25.181 -19.701   4.338  0.00  0.00    +0.003 A 
ENDBRANCH   9  10
ENDBRANCH   2   9
TORSDOF 4
ENDMDL
MODEL 4
REMARK VINA RESULT:      -7.2      4.560      5.372
REMARK  Name = *****
REMARK                            x       y       z     vdW  Elec       q    Type
REMARK                         _______ _______ _______ _____ _____    ______ ____
ROOT
ATOM      1  C   LIG    1       25.913 -22.701   8.008  0.00  0.00    +0.033 C 
ATOM      2  C   LIG    1       25.137 -22.854   6.695  0.00  0.00    +0.106 C 
ENDROOT
BRANCH   2   3
ATOM      3  N   LIG    1       24.827 -24.289   6.526  0.00  0.00    -0.288 NA
ATOM      4  C   LIG    1       25.850 -25.075   6.507  0.00  0.00    +0.132 C 
BRANCH   4   5
ATOM      5  C   LIG    1       25.788 -26.579   6.290  0.00  0.00    +0.225 C 
ATOM      6 CL   LIG    1       24.090 -26.991   5.940  0.00  0.00    -0.077 Cl
ATOM      7 CL   LIG    1       26.287 -27.352   7.814  0.00  0.00    -0.077 Cl
ATOM      8 CL   LIG    1       26.837 -27.111   4.964  0.00  0.00    -0.077 Cl
ENDBRANCH   4   5
ENDBRANCH   2   3
BRANCH   2   9
ATOM      9  C   LIG    1       23.820 -22.043   6.722  0.00  0.00    +0.061 C 
BRANCH   9  10
ATOM     10  C   LIG    1       23.743 -20.941   5.680  0.00  0.00    -0.045 A 
ATOM     11  C   LIG    1       22.656 -20.056   5.637  0.00  0.00    +0.003 A 
ATOM     12  C   LIG    1       22.595 -19.050   4.664  0.00  0.00    +0.000 A 
ATOM     13  C   LIG    1       23.612 -18.926   3.718  0.00  0.00    +0.000 A 
ATOM     14  C   LIG    1       24.692 -19.804   3.746  0.00  0.00    +0.000 A 
ATOM     15  C   LIG    1       24.760 -20.802   4.723  0.00  0.00    +0.003 A 
ENDBRANCH   9  10
ENDBRANCH   2   9
TORSDOF 4
ENDMDL
MODEL 5
REMARK VINA RESULT:      -7.2      4.637      5.308
REMARK  Name = *****
REMARK                            x       y       z     vdW  Elec       q    Type
REMARK                         _______ _______ _______ _____ _____    ______ ____
ROOT
ATOM      1  C   LIG    1       26.138 -22.855   7.424  0.00  0.00    +0.033 C 
ATOM      2  C   LIG    1       25.305 -22.924   6.140  0.00  0.00    +0.106 C 
ENDROOT
BRANCH   2   3
ATOM      3  N   LIG    1       25.076 -24.352   5.834  0.00  0.00    -0.288 NA
ATOM      4  C   LIG    1       25.788 -25.182   6.519  0.00  0.00    +0.132 C 
BRANCH   4   5
ATOM      5  C   LIG    1       25.770 -26.693   6.344  0.00  0.00    +0.225 C 
ATOM      6 CL   LIG    1       26.918 -27.086   5.039  0.00  0.00    -0.077 Cl
ATOM      7 CL   LIG    1       24.122 -27.147   5.844  0.00  0.00    -0.077 Cl
ATOM      8 CL   LIG    1       26.213 -27.547   7.832  0.00  0.00    -0.077 Cl
ENDBRANCH   4   5
ENDBRANCH   2   3
BRANCH   2   9
ATOM      9  C   LIG    1       23.943 -22.212   6.314  0.00  0.00    +0.061 C 
BRANCH   9  10
ATOM     10  C   LIG    1       23.757 -20.992   5.428  0.00  0.00    -0.045 A 
ATOM     11  C   LIG    1       24.730 -20.620   4.489  0.00  0.00    +0.003 A 
ATOM     12  C   LIG    1       24.547 -19.488   3.686  0.00  0.00    +0.000 A 
ATOM     13  C   LIG    1       23.399 -18.709   3.821  0.00  0.00    +0.000 A 
ATOM     14  C   LIG    1       22.430 -19.064   4.755  0.00  0.00    +0.000 A 
ATOM     15  C   LIG    1       22.605 -20.200   5.550  0.00  0.00    +0.003 A 
ENDBRANCH   9  10
ENDBRANCH   2   9
TORSDOF 4
ENDMDL
MODEL 6
REMARK VINA RESULT:      -7.1      2.018      3.269
REMARK  Name = *****
REMARK                            x       y       z     vdW  Elec       q    Type
REMARK                         _______ _______ _______ _____ _____    ______ ____
ROOT
ATOM      1  C   LIG    1       27.039 -20.037   5.776  0.00  0.00    +0.033 C 
ATOM      2  C   LIG    1       27.112 -20.954   7.002  0.00  0.00    +0.106 C 
ENDROOT
BRANCH   2   3
ATOM      3  N   LIG    1       28.108 -20.377   7.930  0.00  0.00    -0.288 NA
ATOM      4  C   LIG    1       29.295 -20.237   7.447  0.00  0.00    +0.132 C 
BRANCH   4   5
ATOM      5  C   LIG    1       30.496 -19.720   8.224  0.00  0.00    +0.225 C 
ATOM      6 CL   LIG    1       29.922 -18.381   9.250  0.00  0.00    -0.077 Cl
ATOM      7 CL   LIG    1       31.666 -19.099   7.034  0.00  0.00    -0.077 Cl
ATOM      8 CL   LIG    1       31.247 -20.980   9.218  0.00  0.00    -0.077 Cl
ENDBRANCH   4   5
ENDBRANCH   2   3
BRANCH   2   9
ATOM      9  C   LIG    1       25.743 -21.053   7.714  0.00  0.00    +0.061 C 
BRANCH   9  10
ATOM     10  C   LIG    1       24.922 -22.271   7.325  0.00  0.00    -0.045 A 
ATOM     11  C   LIG    1       25.534 -23.500   7.041  0.00  0.00    +0.003 A 
ATOM     12  C   LIG    1       24.764 -24.611   6.676  0.00  0.00    +0.000 A 
ATOM     13  C   LIG    1       23.378 -24.503   6.579  0.00  0.00    +0.000 A 
ATOM     14  C   LIG    1       22.759 -23.285   6.852  0.00  0.00    +0.000 A 
ATOM     15  C   LIG    1       23.526 -22.178   7.227  0.00  0.00    +0.003 A 
ENDBRANCH   9  10
ENDBRANCH   2   9
TORSDOF 4
ENDMDL
MODEL 7
REMARK VINA RESULT:      -7.1      1.944      3.202
REMARK  Name = *****
REMARK                            x       y       z     vdW  Elec       q    Type
REMARK                         _______ _______ _______ _____ _____    ______ ____
ROOT
ATOM      1  C   LIG    1       26.551 -20.044   5.381  0.00  0.00    +0.033 C 
ATOM      2  C   LIG    1       27.000 -20.831   6.617  0.00  0.00    +0.106 C 
ENDROOT
BRANCH   2   3
ATOM      3  N   LIG    1       27.990 -20.003   7.337  0.00  0.00    -0.288 NA
ATOM      4  C   LIG    1       29.184 -20.487   7.384  0.00  0.00    +0.132 C 
BRANCH   4   5
ATOM      5  C   LIG    1       30.355 -19.847   8.112  0.00  0.00    +0.225 C 
ATOM      6 CL   LIG    1       31.474 -19.231   6.871  0.00  0.00    -0.077 Cl
ATOM      7 CL   LIG    1       31.156 -21.131   9.052  0.00  0.00    -0.077 Cl
ATOM      8 CL   LIG    1       29.842 -18.534   9.186  0.00  0.00    -0.077 Cl
ENDBRANCH   4   5
ENDBRANCH   2   3
BRANCH   2   9
ATOM      9  C   LIG    1       25.808 -21.138   7.553  0.00  0.00    +0.061 C 
BRANCH   9  10
ATOM     10  C   LIG    1       25.027 -22.387   7.184  0.00  0.00    -0.045 A 
ATOM     11  C   LIG    1       23.626 -22.377   7.124  0.00  0.00    +0.003 A 
ATOM     12  C   LIG    1       22.920 -23.539   6.790  0.00  0.00    +0.000 A 
ATOM     13  C   LIG    1       23.604 -24.725   6.525  0.00  0.00    +0.000 A 
ATOM     14  C   LIG    1       24.995 -24.748   6.589  0.00  0.00    +0.000 A 
ATOM     15  C   LIG    1       25.702 -23.587   6.911  0.00  0.00    +0.003 A 
ENDBRANCH   9  10
ENDBRANCH   2   9
TORSDOF 4
ENDMDL
MODEL 8
REMARK VINA RESULT:      -7.1      4.626      6.222
REMARK  Name = *****
REMARK                            x       y       z     vdW  Elec       q    Type
REMARK                         _______ _______ _______ _____ _____    ______ ____
ROOT
ATOM      1  C   LIG    1       25.848 -20.701   8.738  0.00  0.00    +0.033 C 
ATOM      2  C   LIG    1       26.484 -21.729   7.796  0.00  0.00    +0.106 C 
ENDROOT
BRANCH   2   3
ATOM      3  N   LIG    1       25.423 -22.670   7.381  0.00  0.00    -0.288 NA
ATOM      4  C   LIG    1       25.838 -23.759   6.829  0.00  0.00    +0.132 C 
BRANCH   4   5
ATOM      5  C   LIG    1       24.936 -24.850   6.272  0.00  0.00    +0.225 C 
ATOM      6 CL   LIG    1       25.079 -24.796   4.496  0.00  0.00    -0.077 Cl
ATOM      7 CL   LIG    1       23.267 -24.449   6.748  0.00  0.00    -0.077 Cl
ATOM      8 CL   LIG    1       25.374 -26.457   6.876  0.00  0.00    -0.077 Cl
ENDBRANCH   4   5
ENDBRANCH   2   3
BRANCH   2   9
ATOM      9  C   LIG    1       27.085 -21.048   6.544  0.00  0.00    +0.061 C 
BRANCH   9  10
ATOM     10  C   LIG    1       28.461 -20.443   6.760  0.00  0.00    -0.045 A 
ATOM     11  C   LIG    1       29.340 -20.959   7.723  0.00  0.00    +0.003 A 
ATOM     12  C   LIG    1       30.602 -20.385   7.916  0.00  0.00    +0.000 A 
ATOM     13  C   LIG    1       30.995 -19.282   7.158  0.00  0.00    +0.000 A 
ATOM     14  C   LIG    1       30.128 -18.756   6.203  0.00  0.00    +0.000 A 
ATOM     15  C   LIG    1       28.872 -19.335   6.002  0.00  0.00    +0.003 A 
ENDBRANCH   9  10
ENDBRANCH   2   9
TORSDOF 4
ENDMDL
MODEL 9
REMARK VINA RESULT:      -6.9      4.390      5.769
REMARK  Name = *****
REMARK                            x       y       z     vdW  Elec       q    Type
REMARK                         _______ _______ _______ _____ _____    ______ ____
ROOT
ATOM      1  C   LIG    1       27.482 -20.734   6.609  0.00  0.00    +0.033 C 
ATOM      2  C   LIG    1       26.007 -20.627   7.014  0.00  0.00    +0.106 C 
ENDROOT
BRANCH   2   3
ATOM      3  N   LIG    1       25.197 -20.765   5.785  0.00  0.00    -0.288 NA
ATOM      4  C   LIG    1       24.187 -19.968   5.700  0.00  0.00    +0.132 C 
BRANCH   4   5
ATOM      5  C   LIG    1       23.178 -19.961   4.561  0.00  0.00    +0.225 C 
ATOM      6 CL   LIG    1       21.937 -21.179   4.948  0.00  0.00    -0.077 Cl
ATOM      7 CL   LIG    1       24.048 -20.445   3.084  0.00  0.00    -0.077 Cl
ATOM      8 CL   LIG    1       22.431 -18.370   4.335  0.00  0.00    -0.077 Cl
ENDBRANCH   4   5
ENDBRANCH   2   3
BRANCH   2   9
ATOM      9  C   LIG    1       25.616 -21.738   8.015  0.00  0.00    +0.061 C 
BRANCH   9  10
ATOM     10  C   LIG    1       25.102 -23.012   7.368  0.00  0.00    -0.045 A 
ATOM     11  C   LIG    1       23.733 -23.212   7.143  0.00  0.00    +0.003 A 
ATOM     12  C   LIG    1       23.274 -24.396   6.553  0.00  0.00    +0.000 A 
ATOM     13  C   LIG    1       24.175 -25.396   6.193  0.00  0.00    +0.000 A 
ATOM     14  C   LIG    1       25.537 -25.212   6.419  0.00  0.00    +0.000 A 
ATOM     15  C   LIG    1       25.998 -24.026   6.998  0.00  0.00    +0.003 A 
ENDBRANCH   9  10
ENDBRANCH   2   9
TORSDOF 4
ENDMDL
