MODEL 1
REMARK VINA RESULT:      -3.8      0.000      0.000
REMARK  Name = *****
REMARK                            x       y       z     vdW  Elec       q    Type
REMARK                         _______ _______ _______ _____ _____    ______ ____
ROOT
ATOM      1  C   LIG    1       29.161 -20.507   6.885  0.00  0.00    +0.151 C 
ATOM      2  N   LIG    1       30.204 -19.874   7.655  0.00  0.00    -0.330 N 
ATOM      3  C   LIG    1       31.028 -20.487   8.623  0.00  0.00    +0.158 C 
ATOM      4  S   LIG    1       31.066 -22.049   9.159  0.00  0.00    -0.013 S 
ATOM      5  N   LIG    1       31.866 -19.455   9.080  0.00  0.00    -0.340 N 
ATOM      6  H   LIG    1       32.576 -19.573   9.787  0.00  0.00    +0.167 HD
ATOM      7  C   LIG    1       31.556 -18.294   8.418  0.00  0.00    +0.102 C 
ATOM      8  C   LIG    1       30.557 -18.542   7.560  0.00  0.00    +0.105 C 
ENDROOT
TORSDOF 0
ENDMDL
MODEL 2
REMARK VINA RESULT:      -3.8      4.540      5.435
REMARK  Name = *****
REMARK                            x       y       z     vdW  Elec       q    Type
REMARK                         _______ _______ _______ _____ _____    ______ ____
ROOT
ATOM      1  C   LIG    1       25.967 -20.668   8.346  0.00  0.00    +0.151 C 
ATOM      2  N   LIG    1       26.028 -20.525   6.912  0.00  0.00    -0.330 N 
ATOM      3  C   LIG    1       27.183 -20.287   6.135  0.00  0.00    +0.158 C 
ATOM      4  S   LIG    1       28.761 -20.109   6.595  0.00  0.00    -0.013 S 
ATOM      5  N   LIG    1       26.715 -20.225   4.812  0.00  0.00    -0.340 N 
ATOM      6  H   LIG    1       27.305 -20.062   4.009  0.00  0.00    +0.167 HD
ATOM      7  C   LIG    1       25.357 -20.416   4.804  0.00  0.00    +0.102 C 
ATOM      8  C   LIG    1       24.940 -20.597   6.064  0.00  0.00    +0.105 C 
ENDROOT
TORSDOF 0
ENDMDL
MODEL 3
REMARK VINA RESULT:      -3.8      4.291      4.827
REMARK  Name = *****
REMARK                            x       y       z     vdW  Elec       q    Type
REMARK                         _______ _______ _______ _____ _____    ______ ____
ROOT
ATOM      1  C   LIG    1       25.967 -20.680   8.461  0.00  0.00    +0.151 C 
ATOM      2  N   LIG    1       26.832 -20.425   7.336  0.00  0.00    -0.330 N 
ATOM      3  C   LIG    1       26.465 -20.419   5.973  0.00  0.00    +0.158 C 
ATOM      4  S   LIG    1       24.997 -20.685   5.261  0.00  0.00    -0.013 S 
ATOM      5  N   LIG    1       27.655 -20.128   5.285  0.00  0.00    -0.340 N 
ATOM      6  H   LIG    1       27.726 -20.054   4.281  0.00  0.00    +0.167 HD
ATOM      7  C   LIG    1       28.673 -19.969   6.191  0.00  0.00    +0.102 C 
ATOM      8  C   LIG    1       28.182 -20.146   7.424  0.00  0.00    +0.105 C 
ENDROOT
TORSDOF 0
ENDMDL
MODEL 4
REMARK VINA RESULT:      -3.7      0.914      2.374
REMARK  Name = *****
REMARK                            x       y       z     vdW  Elec       q    Type
REMARK                         _______ _______ _______ _____ _____    ______ ____
ROOT
ATOM      1  C   LIG    1       31.693 -18.470   8.666  0.00  0.00    +0.151 C 
ATOM      2  N   LIG    1       30.755 -19.262   7.909  0.00  0.00    -0.330 N 
ATOM      3  C   LIG    1       30.503 -20.643   8.057  0.00  0.00    +0.158 C 
ATOM      4  S   LIG    1       31.166 -21.744   9.096  0.00  0.00    -0.013 S 
ATOM      5  N   LIG    1       29.521 -20.930   7.094  0.00  0.00    -0.340 N 
ATOM      6  H   LIG    1       29.125 -21.846   6.943  0.00  0.00    +0.167 HD
ATOM      7  C   LIG    1       29.207 -19.782   6.412  0.00  0.00    +0.102 C 
ATOM      8  C   LIG    1       29.946 -18.777   6.899  0.00  0.00    +0.105 C 
ENDROOT
TORSDOF 0
ENDMDL
MODEL 5
REMARK VINA RESULT:      -3.7      1.942      2.460
REMARK  Name = *****
REMARK                            x       y       z     vdW  Elec       q    Type
REMARK                         _______ _______ _______ _____ _____    ______ ____
ROOT
ATOM      1  C   LIG    1       29.711 -18.792   6.714  0.00  0.00    +0.151 C 
ATOM      2  N   LIG    1       30.365 -19.612   7.704  0.00  0.00    -0.330 N 
ATOM      3  C   LIG    1       31.318 -19.187   8.655  0.00  0.00    +0.158 C 
ATOM      4  S   LIG    1       31.957 -17.689   8.932  0.00  0.00    -0.013 S 
ATOM      5  N   LIG    1       31.647 -20.350   9.372  0.00  0.00    -0.340 N 
ATOM      6  H   LIG    1       32.312 -20.380  10.131  0.00  0.00    +0.167 HD
ATOM      7  C   LIG    1       30.928 -21.407   8.874  0.00  0.00    +0.102 C 
ATOM      8  C   LIG    1       30.156 -20.967   7.872  0.00  0.00    +0.105 C 
ENDROOT
TORSDOF 0
ENDMDL
MODEL 6
REMARK VINA RESULT:      -3.7      5.769      6.689
REMARK  Name = *****
REMARK                            x       y       z     vdW  Elec       q    Type
REMARK                         _______ _______ _______ _____ _____    ______ ____
ROOT
ATOM      1  C   LIG    1       23.421 -20.839   6.737  0.00  0.00    +0.151 C 
ATOM      2  N   LIG    1       24.326 -20.530   5.657  0.00  0.00    -0.330 N 
ATOM      3  C   LIG    1       25.736 -20.515   5.716  0.00  0.00    +0.158 C 
ATOM      4  S   LIG    1       26.756 -20.835   6.976  0.00  0.00    -0.013 S 
ATOM      5  N   LIG    1       26.142 -20.153   4.420  0.00  0.00    -0.340 N 
ATOM      6  H   LIG    1       27.105 -20.052   4.134  0.00  0.00    +0.167 HD
ATOM      7  C   LIG    1       25.032 -19.964   3.635  0.00  0.00    +0.102 C 
ATOM      8  C   LIG    1       23.939 -20.190   4.375  0.00  0.00    +0.105 C 
ENDROOT
TORSDOF 0
ENDMDL
MODEL 7
REMARK VINA RESULT:      -3.7      1.295      1.500
REMARK  Name = *****
REMARK                            x       y       z     vdW  Elec       q    Type
REMARK                         _______ _______ _______ _____ _____    ______ ____
ROOT
ATOM      1  C   LIG    1       28.122 -21.424   7.823  0.00  0.00    +0.151 C 
ATOM      2  N   LIG    1       29.323 -20.677   7.540  0.00  0.00    -0.330 N 
ATOM      3  C   LIG    1       30.595 -20.872   8.120  0.00  0.00    +0.158 C 
ATOM      4  S   LIG    1       31.097 -21.968   9.251  0.00  0.00    -0.013 S 
ATOM      5  N   LIG    1       31.412 -19.898   7.521  0.00  0.00    -0.340 N 
ATOM      6  H   LIG    1       32.392 -19.774   7.729  0.00  0.00    +0.167 HD
ATOM      7  C   LIG    1       30.665 -19.165   6.634  0.00  0.00    +0.102 C 
ATOM      8  C   LIG    1       29.409 -19.631   6.642  0.00  0.00    +0.105 C 
ENDROOT
TORSDOF 0
ENDMDL
MODEL 8
REMARK VINA RESULT:      -3.7      5.449      6.247
REMARK  Name = *****
REMARK                            x       y       z     vdW  Elec       q    Type
REMARK                         _______ _______ _______ _____ _____    ______ ____
ROOT
ATOM      1  C   LIG    1       23.840 -20.914   6.903  0.00  0.00    +0.151 C 
ATOM      2  N   LIG    1       25.127 -20.630   6.317  0.00  0.00    -0.330 N 
ATOM      3  C   LIG    1       25.396 -20.368   4.955  0.00  0.00    +0.158 C 
ATOM      4  S   LIG    1       24.374 -20.302   3.659  0.00  0.00    -0.013 S 
ATOM      5  N   LIG    1       26.784 -20.162   4.901  0.00  0.00    -0.340 N 
ATOM      6  H   LIG    1       27.294 -19.953   4.055  0.00  0.00    +0.167 HD
ATOM      7  C   LIG    1       27.311 -20.293   6.161  0.00  0.00    +0.102 C 
ATOM      8  C   LIG    1       26.318 -20.574   7.015  0.00  0.00    +0.105 C 
ENDROOT
TORSDOF 0
ENDMDL
MODEL 9
REMARK VINA RESULT:      -3.7      6.219      7.350
REMARK  Name = *****
REMARK                            x       y       z     vdW  Elec       q    Type
REMARK                         _______ _______ _______ _____ _____    ______ ____
ROOT
ATOM      1  C   LIG    1       25.924 -22.199   8.191  0.00  0.00    +0.151 C 
ATOM      2  N   LIG    1       25.556 -22.911   6.992  0.00  0.00    -0.330 N 
ATOM      3  C   LIG    1       25.002 -22.357   5.817  0.00  0.00    +0.158 C 
ATOM      4  S   LIG    1       24.619 -20.791   5.453  0.00  0.00    -0.013 S 
ATOM      5  N   LIG    1       24.822 -23.453   4.958  0.00  0.00    -0.340 N 
ATOM      6  H   LIG    1       24.437 -23.388   4.027  0.00  0.00    +0.167 HD
ATOM      7  C   LIG    1       25.246 -24.596   5.587  0.00  0.00    +0.102 C 
ATOM      8  C   LIG    1       25.689 -24.274   6.810  0.00  0.00    +0.105 C 
ENDROOT
TORSDOF 0
ENDMDL
