MODEL 1
REMARK VINA RESULT:      -7.5      0.000      0.000
REMARK  Name = *****
REMARK                            x       y       z     vdW  Elec       q    Type
REMARK                         _______ _______ _______ _____ _____    ______ ____
ROOT
ATOM      1  C   LIG    1       26.156 -22.088   6.912  0.00  0.00    +0.243 C 
ATOM      2  N   LIG    1       25.355 -22.225   5.769  0.00  0.00    -0.268 N 
ATOM      3  O   LIG    1       26.602 -23.045   7.536  0.00  0.00    -0.270 OA
ENDROOT
BRANCH   2   4
ATOM      4  C   LIG    1       24.508 -21.180   5.300  0.00  0.00    +0.039 A 
ATOM      5  C   LIG    1       23.406 -20.710   6.042  0.00  0.00    -0.029 A 
ATOM      6  C   LIG    1       22.979 -21.316   7.349  0.00  0.00    +0.045 C 
ATOM      7  C   LIG    1       22.662 -19.630   5.536  0.00  0.00    +0.005 A 
ATOM      8  C   LIG    1       22.962 -19.074   4.292  0.00  0.00    +0.000 A 
ATOM      9  C   LIG    1       24.016 -19.583   3.539  0.00  0.00    +0.002 A 
ATOM     10  C   LIG    1       24.790 -20.630   4.042  0.00  0.00    +0.024 A 
ENDBRANCH   2   4
BRANCH   1  13
ATOM     11  C   LIG    1       28.934 -20.715   6.561  0.00  0.00    +0.035 C 
ATOM     12  C   LIG    1       27.703 -20.112   7.161  0.00  0.00    -0.025 C 
ATOM     13  C   LIG    1       26.498 -20.686   7.314  0.00  0.00    +0.063 C 
ENDBRANCH   1  13
BRANCH   2  14
ATOM     14  C   LIG    1       24.927 -23.585   5.414  0.00  0.00    +0.111 C 
ATOM     15  C   LIG    1       24.074 -24.253   6.484  0.00  0.00    +0.025 C 
ENDBRANCH   2  14
TORSDOF 3
ENDMDL
MODEL 2
REMARK VINA RESULT:      -7.5      1.594      4.127
REMARK  Name = *****
REMARK                            x       y       z     vdW  Elec       q    Type
REMARK                         _______ _______ _______ _____ _____    ______ ____
ROOT
ATOM      1  C   LIG    1       24.252 -22.805   6.654  0.00  0.00    +0.243 C 
ATOM      2  N   LIG    1       24.474 -21.441   6.415  0.00  0.00    -0.268 N 
ATOM      3  O   LIG    1       23.148 -23.268   6.917  0.00  0.00    -0.270 OA
ENDROOT
BRANCH   2   4
ATOM      4  C   LIG    1       25.763 -20.846   6.527  0.00  0.00    +0.039 A 
ATOM      5  C   LIG    1       26.413 -20.677   7.766  0.00  0.00    -0.029 A 
ATOM      6  C   LIG    1       25.777 -21.033   9.081  0.00  0.00    +0.045 C 
ATOM      7  C   LIG    1       27.712 -20.141   7.780  0.00  0.00    +0.005 A 
ATOM      8  C   LIG    1       28.326 -19.720   6.601  0.00  0.00    +0.000 A 
ATOM      9  C   LIG    1       27.655 -19.838   5.387  0.00  0.00    +0.002 A 
ATOM     10  C   LIG    1       26.379 -20.402   5.349  0.00  0.00    +0.024 A 
ENDBRANCH   2   4
BRANCH   1  13
ATOM     11  C   LIG    1       24.186 -25.813   5.832  0.00  0.00    +0.035 C 
ATOM     12  C   LIG    1       25.396 -24.999   6.164  0.00  0.00    -0.025 C 
ATOM     13  C   LIG    1       25.444 -23.702   6.513  0.00  0.00    +0.063 C 
ENDBRANCH   1  13
BRANCH   2  14
ATOM     14  C   LIG    1       23.342 -20.532   6.643  0.00  0.00    +0.111 C 
ATOM     15  C   LIG    1       22.720 -20.003   5.358  0.00  0.00    +0.025 C 
ENDBRANCH   2  14
TORSDOF 3
ENDMDL
MODEL 3
REMARK VINA RESULT:      -7.4      0.885      1.825
REMARK  Name = *****
REMARK                            x       y       z     vdW  Elec       q    Type
REMARK                         _______ _______ _______ _____ _____    ______ ____
ROOT
ATOM      1  C   LIG    1       25.536 -22.358   7.373  0.00  0.00    +0.243 C 
ATOM      2  N   LIG    1       25.094 -22.373   6.042  0.00  0.00    -0.268 N 
ATOM      3  O   LIG    1       25.906 -23.365   7.967  0.00  0.00    -0.270 OA
ENDROOT
BRANCH   2   4
ATOM      4  C   LIG    1       24.288 -21.335   5.493  0.00  0.00    +0.039 A 
ATOM      5  C   LIG    1       24.834 -20.262   4.760  0.00  0.00    -0.029 A 
ATOM      6  C   LIG    1       26.312 -20.074   4.558  0.00  0.00    +0.045 C 
ATOM      7  C   LIG    1       23.961 -19.316   4.197  0.00  0.00    +0.005 A 
ATOM      8  C   LIG    1       22.586 -19.392   4.412  0.00  0.00    +0.000 A 
ATOM      9  C   LIG    1       22.059 -20.423   5.185  0.00  0.00    +0.002 A 
ATOM     10  C   LIG    1       22.907 -21.394   5.723  0.00  0.00    +0.024 A 
ENDBRANCH   2   4
BRANCH   1  13
ATOM     11  C   LIG    1       28.088 -20.602   7.730  0.00  0.00    +0.035 C 
ATOM     12  C   LIG    1       26.701 -20.275   8.186  0.00  0.00    -0.025 C 
ATOM     13  C   LIG    1       25.591 -21.016   8.035  0.00  0.00    +0.063 C 
ENDBRANCH   1  13
BRANCH   2  14
ATOM     14  C   LIG    1       24.940 -23.689   5.406  0.00  0.00    +0.111 C 
ATOM     15  C   LIG    1       24.012 -24.627   6.166  0.00  0.00    +0.025 C 
ENDBRANCH   2  14
TORSDOF 3
ENDMDL
MODEL 4
REMARK VINA RESULT:      -7.4      1.495      3.227
REMARK  Name = *****
REMARK                            x       y       z     vdW  Elec       q    Type
REMARK                         _______ _______ _______ _____ _____    ______ ____
ROOT
ATOM      1  C   LIG    1       26.585 -20.321   5.956  0.00  0.00    +0.243 C 
ATOM      2  N   LIG    1       25.404 -20.783   5.358  0.00  0.00    -0.268 N 
ATOM      3  O   LIG    1       27.392 -19.600   5.378  0.00  0.00    -0.270 OA
ENDROOT
BRANCH   2   4
ATOM      4  C   LIG    1       24.697 -21.920   5.842  0.00  0.00    +0.039 A 
ATOM      5  C   LIG    1       23.539 -21.808   6.638  0.00  0.00    -0.029 A 
ATOM      6  C   LIG    1       22.994 -20.490   7.111  0.00  0.00    +0.045 C 
ATOM      7  C   LIG    1       22.865 -22.981   7.017  0.00  0.00    +0.005 A 
ATOM      8  C   LIG    1       23.363 -24.237   6.674  0.00  0.00    +0.000 A 
ATOM      9  C   LIG    1       24.539 -24.341   5.936  0.00  0.00    +0.002 A 
ATOM     10  C   LIG    1       25.203 -23.186   5.518  0.00  0.00    +0.024 A 
ENDBRANCH   2   4
BRANCH   1  13
ATOM     11  C   LIG    1       29.293 -21.201   7.229  0.00  0.00    +0.035 C 
ATOM     12  C   LIG    1       27.970 -21.093   7.918  0.00  0.00    -0.025 C 
ATOM     13  C   LIG    1       26.796 -20.710   7.387  0.00  0.00    +0.063 C 
ENDBRANCH   1  13
BRANCH   2  14
ATOM     14  C   LIG    1       25.225 -20.495   3.928  0.00  0.00    +0.111 C 
ATOM     15  C   LIG    1       24.202 -19.402   3.651  0.00  0.00    +0.025 C 
ENDBRANCH   2  14
TORSDOF 3
ENDMDL
MODEL 5
REMARK VINA RESULT:      -7.4      0.972      3.176
REMARK  Name = *****
REMARK                            x       y       z     vdW  Elec       q    Type
REMARK                         _______ _______ _______ _____ _____    ______ ____
ROOT
ATOM      1  C   LIG    1       25.546 -23.394   6.515  0.00  0.00    +0.243 C 
ATOM      2  N   LIG    1       25.630 -21.995   6.542  0.00  0.00    -0.268 N 
ATOM      3  O   LIG    1       26.478 -24.128   6.824  0.00  0.00    -0.270 OA
ENDROOT
BRANCH   2   4
ATOM      4  C   LIG    1       24.739 -21.162   5.808  0.00  0.00    +0.039 A 
ATOM      5  C   LIG    1       23.568 -20.622   6.377  0.00  0.00    -0.029 A 
ATOM      6  C   LIG    1       23.114 -20.937   7.774  0.00  0.00    +0.045 C 
ATOM      7  C   LIG    1       22.778 -19.756   5.602  0.00  0.00    +0.005 A 
ATOM      8  C   LIG    1       23.104 -19.484   4.274  0.00  0.00    +0.000 A 
ATOM      9  C   LIG    1       24.231 -20.067   3.701  0.00  0.00    +0.002 A 
ATOM     10  C   LIG    1       25.049 -20.901   4.466  0.00  0.00    +0.024 A 
ENDBRANCH   2   4
BRANCH   1  13
ATOM     11  C   LIG    1       24.839 -26.429   6.373  0.00  0.00    +0.035 C 
ATOM     12  C   LIG    1       23.929 -25.280   6.075  0.00  0.00    -0.025 C 
ATOM     13  C   LIG    1       24.214 -23.968   6.138  0.00  0.00    +0.063 C 
ENDBRANCH   1  13
BRANCH   2  14
ATOM     14  C   LIG    1       26.951 -21.413   6.814  0.00  0.00    +0.111 C 
ATOM     15  C   LIG    1       26.949 -20.406   7.956  0.00  0.00    +0.025 C 
ENDBRANCH   2  14
TORSDOF 3
ENDMDL
MODEL 6
REMARK VINA RESULT:      -7.3      1.560      4.096
REMARK  Name = *****
REMARK                            x       y       z     vdW  Elec       q    Type
REMARK                         _______ _______ _______ _____ _____    ______ ____
ROOT
ATOM      1  C   LIG    1       25.905 -20.332   5.001  0.00  0.00    +0.243 C 
ATOM      2  N   LIG    1       26.019 -21.243   6.061  0.00  0.00    -0.268 N 
ATOM      3  O   LIG    1       26.502 -19.262   4.971  0.00  0.00    -0.270 OA
ENDROOT
BRANCH   2   4
ATOM      4  C   LIG    1       25.045 -22.252   6.308  0.00  0.00    +0.039 A 
ATOM      5  C   LIG    1       23.754 -21.955   6.790  0.00  0.00    -0.029 A 
ATOM      6  C   LIG    1       23.315 -20.566   7.158  0.00  0.00    +0.045 C 
ATOM      7  C   LIG    1       22.832 -23.005   6.943  0.00  0.00    +0.005 A 
ATOM      8  C   LIG    1       23.202 -24.326   6.691  0.00  0.00    +0.000 A 
ATOM      9  C   LIG    1       24.497 -24.617   6.271  0.00  0.00    +0.002 A 
ATOM     10  C   LIG    1       25.416 -23.584   6.077  0.00  0.00    +0.024 A 
ENDBRANCH   2   4
BRANCH   1  13
ATOM     11  C   LIG    1       23.340 -18.868   3.999  0.00  0.00    +0.035 C 
ATOM     12  C   LIG    1       23.936 -20.119   3.438  0.00  0.00    -0.025 C 
ATOM     13  C   LIG    1       25.043 -20.759   3.853  0.00  0.00    +0.063 C 
ENDBRANCH   1  13
BRANCH   2  14
ATOM     14  C   LIG    1       26.779 -20.804   7.238  0.00  0.00    +0.111 C 
ATOM     15  C   LIG    1       28.197 -21.356   7.287  0.00  0.00    +0.025 C 
ENDBRANCH   2  14
TORSDOF 3
ENDMDL
MODEL 7
REMARK VINA RESULT:      -7.3      1.589      4.264
REMARK  Name = *****
REMARK                            x       y       z     vdW  Elec       q    Type
REMARK                         _______ _______ _______ _____ _____    ______ ____
ROOT
ATOM      1  C   LIG    1       24.026 -22.824   6.932  0.00  0.00    +0.243 C 
ATOM      2  N   LIG    1       24.336 -21.507   6.562  0.00  0.00    -0.268 N 
ATOM      3  O   LIG    1       22.882 -23.206   7.154  0.00  0.00    -0.270 OA
ENDROOT
BRANCH   2   4
ATOM      4  C   LIG    1       25.641 -20.959   6.713  0.00  0.00    +0.039 A 
ATOM      5  C   LIG    1       26.347 -20.381   5.638  0.00  0.00    -0.029 A 
ATOM      6  C   LIG    1       25.824 -20.361   4.230  0.00  0.00    +0.045 C 
ATOM      7  C   LIG    1       27.603 -19.804   5.889  0.00  0.00    +0.005 A 
ATOM      8  C   LIG    1       28.177 -19.857   7.159  0.00  0.00    +0.000 A 
ATOM      9  C   LIG    1       27.498 -20.481   8.202  0.00  0.00    +0.002 A 
ATOM     10  C   LIG    1       26.233 -21.028   7.982  0.00  0.00    +0.024 A 
ENDBRANCH   2   4
BRANCH   1  13
ATOM     11  C   LIG    1       24.861 -24.815   4.682  0.00  0.00    +0.035 C 
ATOM     12  C   LIG    1       25.518 -24.638   6.013  0.00  0.00    -0.025 C 
ATOM     13  C   LIG    1       25.177 -23.781   6.991  0.00  0.00    +0.063 C 
ENDBRANCH   1  13
BRANCH   2  14
ATOM     14  C   LIG    1       23.238 -20.531   6.593  0.00  0.00    +0.111 C 
ATOM     15  C   LIG    1       22.517 -20.385   5.260  0.00  0.00    +0.025 C 
ENDBRANCH   2  14
TORSDOF 3
ENDMDL
MODEL 8
REMARK VINA RESULT:      -7.1      1.642      3.962
REMARK  Name = *****
REMARK                            x       y       z     vdW  Elec       q    Type
REMARK                         _______ _______ _______ _____ _____    ______ ____
ROOT
ATOM      1  C   LIG    1       24.425 -21.372   4.210  0.00  0.00    +0.243 C 
ATOM      2  N   LIG    1       24.736 -22.053   5.396  0.00  0.00    -0.268 N 
ATOM      3  O   LIG    1       24.091 -21.942   3.177  0.00  0.00    -0.270 OA
ENDROOT
BRANCH   2   4
ATOM      4  C   LIG    1       25.508 -21.462   6.436  0.00  0.00    +0.039 A 
ATOM      5  C   LIG    1       24.925 -20.944   7.609  0.00  0.00    -0.029 A 
ATOM      6  C   LIG    1       23.440 -20.895   7.834  0.00  0.00    +0.045 C 
ATOM      7  C   LIG    1       25.766 -20.438   8.616  0.00  0.00    +0.005 A 
ATOM      8  C   LIG    1       27.147 -20.386   8.435  0.00  0.00    +0.000 A 
ATOM      9  C   LIG    1       27.712 -20.847   7.250  0.00  0.00    +0.002 A 
ATOM     10  C   LIG    1       26.896 -21.388   6.253  0.00  0.00    +0.024 A 
ENDBRANCH   2   4
BRANCH   1  13
ATOM     11  C   LIG    1       21.969 -19.498   4.637  0.00  0.00    +0.035 C 
ATOM     12  C   LIG    1       23.395 -19.083   4.457  0.00  0.00    -0.025 C 
ATOM     13  C   LIG    1       24.465 -19.876   4.279  0.00  0.00    +0.063 C 
ENDBRANCH   1  13
BRANCH   2  14
ATOM     14  C   LIG    1       24.798 -23.519   5.324  0.00  0.00    +0.111 C 
ATOM     15  C   LIG    1       23.979 -24.216   6.403  0.00  0.00    +0.025 C 
ENDBRANCH   2  14
TORSDOF 3
ENDMDL
MODEL 9
REMARK VINA RESULT:      -6.9      1.249      3.461
REMARK  Name = *****
REMARK                            x       y       z     vdW  Elec       q    Type
REMARK                         _______ _______ _______ _____ _____    ______ ____
ROOT
ATOM      1  C   LIG    1       25.396 -22.771   6.709  0.00  0.00    +0.243 C 
ATOM      2  N   LIG    1       24.791 -21.533   6.972  0.00  0.00    -0.268 N 
ATOM      3  O   LIG    1       26.124 -23.345   7.511  0.00  0.00    -0.270 OA
ENDROOT
BRANCH   2   4
ATOM      4  C   LIG    1       24.310 -20.682   5.936  0.00  0.00    +0.039 A 
ATOM      5  C   LIG    1       25.169 -20.067   5.003  0.00  0.00    -0.029 A 
ATOM      6  C   LIG    1       26.666 -20.187   5.063  0.00  0.00    +0.045 C 
ATOM      7  C   LIG    1       24.605 -19.296   3.973  0.00  0.00    +0.005 A 
ATOM      8  C   LIG    1       23.229 -19.084   3.907  0.00  0.00    +0.000 A 
ATOM      9  C   LIG    1       22.392 -19.648   4.866  0.00  0.00    +0.002 A 
ATOM     10  C   LIG    1       22.929 -20.448   5.876  0.00  0.00    +0.024 A 
ENDBRANCH   2   4
BRANCH   1  13
ATOM     11  C   LIG    1       24.276 -25.653   6.303  0.00  0.00    +0.035 C 
ATOM     12  C   LIG    1       24.583 -24.650   5.236  0.00  0.00    -0.025 C 
ATOM     13  C   LIG    1       25.059 -23.404   5.393  0.00  0.00    +0.063 C 
ENDBRANCH   1  13
BRANCH   2  14
ATOM     14  C   LIG    1       25.183 -20.850   8.212  0.00  0.00    +0.111 C 
ATOM     15  C   LIG    1       26.658 -20.475   8.260  0.00  0.00    +0.025 C 
ENDBRANCH   2  14
TORSDOF 3
ENDMDL
