MODEL 1
REMARK VINA RESULT:      -5.3      0.000      0.000
REMARK  Name = *****
REMARK                            x       y       z     vdW  Elec       q    Type
REMARK                         _______ _______ _______ _____ _____    ______ ____
ROOT
ATOM      1  C   LIG    1       25.803 -14.471   3.522  0.00  0.00    +0.036 C 
ATOM      2  C   LIG    1       25.872 -13.757   2.147  0.00  0.00    +0.018 C 
ENDROOT
BRANCH   1   3
ATOM      3  C   LIG    1       24.958 -13.562   4.480  0.00  0.00    +0.013 C 
BRANCH   3   5
ATOM      4  C   LIG    1       23.594 -11.451   4.824  0.00  0.00    +0.004 C 
ATOM      5  C   LIG    1       24.094 -12.479   3.814  0.00  0.00    -0.003 C 
ENDBRANCH   3   5
ENDBRANCH   1   3
BRANCH   1   6
ATOM      6  C   LIG    1       25.132 -15.854   3.375  0.00  0.00    +0.243 C 
BRANCH   6   7
ATOM      7  O   LIG    1       26.093 -16.891   3.090  0.00  0.00    -0.450 OA
BRANCH   7   8
ATOM      8  C   LIG    1       25.803 -18.121   3.579  0.00  0.00    +0.401 C 
ATOM      9  N   LIG    1       24.454 -18.314   3.578  0.00  0.00    -0.279 N 
ATOM     10  H   LIG    1       23.897 -17.558   3.204  0.00  0.00    +0.152 HD
ATOM     11  O   LIG    1       26.621 -18.928   4.001  0.00  0.00    -0.227 OA
BRANCH   9  12
ATOM     12  C   LIG    1       23.827 -19.439   4.250  0.00  0.00    +0.070 C 
ATOM     13  C   LIG    1       23.943 -20.730   3.438  0.00  0.00    +0.027 C 
ATOM     14  C   LIG    1       22.366 -19.132   4.549  0.00  0.00    +0.027 C 
ENDBRANCH   9  12
ENDBRANCH   7   8
ENDBRANCH   6   7
ENDBRANCH   1   6
BRANCH   1  15
ATOM     15  C   LIG    1       27.259 -14.662   4.020  0.00  0.00    +0.243 C 
BRANCH  15  16
ATOM     16  O   LIG    1       27.605 -13.507   4.800  0.00  0.00    -0.450 OA
BRANCH  16  17
ATOM     17  C   LIG    1       28.723 -12.855   4.433  0.00  0.00    +0.398 C 
ATOM     18  O   LIG    1       29.473 -13.138   3.515  0.00  0.00    -0.227 OA
ATOM     19  N   LIG    1       28.978 -11.893   5.345  0.00  0.00    -0.295 N 
ATOM     20  H   LIG    1       29.929 -11.555   5.370  0.00  0.00    +0.148 HD
ATOM     21  H   LIG    1       28.449 -11.938   6.201  0.00  0.00    +0.148 HD
ENDBRANCH  16  17
ENDBRANCH  15  16
ENDBRANCH   1  15
TORSDOF 9
ENDMDL
MODEL 2
REMARK VINA RESULT:      -4.7      2.527      7.087
REMARK  Name = *****
REMARK                            x       y       z     vdW  Elec       q    Type
REMARK                         _______ _______ _______ _____ _____    ______ ____
ROOT
ATOM      1  C   LIG    1       25.206 -19.392   3.917  0.00  0.00    +0.036 C 
ATOM      2  C   LIG    1       24.927 -20.430   2.800  0.00  0.00    +0.018 C 
ENDROOT
BRANCH   1   3
ATOM      3  C   LIG    1       25.943 -20.142   5.080  0.00  0.00    +0.013 C 
BRANCH   3   5
ATOM      4  C   LIG    1       27.925 -20.330   6.652  0.00  0.00    +0.004 C 
ATOM      5  C   LIG    1       27.394 -19.718   5.360  0.00  0.00    -0.003 C 
ENDBRANCH   3   5
ENDBRANCH   1   3
BRANCH   1   6
ATOM      6  C   LIG    1       26.091 -18.248   3.379  0.00  0.00    +0.243 C 
BRANCH   6   7
ATOM      7  O   LIG    1       25.334 -17.041   3.154  0.00  0.00    -0.450 OA
BRANCH   7   8
ATOM      8  C   LIG    1       25.981 -15.877   3.410  0.00  0.00    +0.401 C 
ATOM      9  N   LIG    1       25.096 -14.946   3.861  0.00  0.00    -0.279 N 
ATOM     10  H   LIG    1       24.138 -15.254   3.961  0.00  0.00    +0.152 HD
ATOM     11  O   LIG    1       27.174 -15.673   3.226  0.00  0.00    -0.227 OA
BRANCH   9  12
ATOM     12  C   LIG    1       25.446 -13.543   4.004  0.00  0.00    +0.070 C 
ATOM     13  C   LIG    1       26.330 -13.292   5.227  0.00  0.00    +0.027 C 
ATOM     14  C   LIG    1       24.189 -12.686   4.075  0.00  0.00    +0.027 C 
ENDBRANCH   9  12
ENDBRANCH   7   8
ENDBRANCH   6   7
ENDBRANCH   1   6
BRANCH   1  15
ATOM     15  C   LIG    1       23.838 -18.811   4.363  0.00  0.00    +0.243 C 
BRANCH  15  16
ATOM     16  O   LIG    1       22.854 -19.843   4.197  0.00  0.00    -0.450 OA
BRANCH  16  17
ATOM     17  C   LIG    1       22.498 -20.509   5.309  0.00  0.00    +0.398 C 
ATOM     18  O   LIG    1       22.877 -20.296   6.448  0.00  0.00    -0.227 OA
ATOM     19  N   LIG    1       21.744 -21.571   4.953  0.00  0.00    -0.295 N 
ATOM     20  H   LIG    1       21.683 -22.314   5.634  0.00  0.00    +0.148 HD
ATOM     21  H   LIG    1       21.732 -21.800   3.971  0.00  0.00    +0.148 HD
ENDBRANCH  16  17
ENDBRANCH  15  16
ENDBRANCH   1  15
TORSDOF 9
ENDMDL
MODEL 3
REMARK VINA RESULT:      -4.6      2.211      3.198
REMARK  Name = *****
REMARK                            x       y       z     vdW  Elec       q    Type
REMARK                         _______ _______ _______ _____ _____    ______ ____
ROOT
ATOM      1  C   LIG    1       26.286 -14.630   3.769  0.00  0.00    +0.036 C 
ATOM      2  C   LIG    1       26.671 -14.057   5.157  0.00  0.00    +0.018 C 
ENDROOT
BRANCH   1   3
ATOM      3  C   LIG    1       26.990 -13.742   2.685  0.00  0.00    +0.013 C 
BRANCH   3   5
ATOM      4  C   LIG    1       29.173 -12.925   3.686  0.00  0.00    +0.004 C 
ATOM      5  C   LIG    1       27.782 -12.529   3.200  0.00  0.00    -0.003 C 
ENDBRANCH   3   5
ENDBRANCH   1   3
BRANCH   1   6
ATOM      6  C   LIG    1       26.757 -16.095   3.643  0.00  0.00    +0.243 C 
BRANCH   6   7
ATOM      7  O   LIG    1       25.749 -16.935   3.047  0.00  0.00    -0.450 OA
BRANCH   7   8
ATOM      8  C   LIG    1       25.600 -18.166   3.597  0.00  0.00    +0.401 C 
ATOM      9  N   LIG    1       24.280 -18.503   3.627  0.00  0.00    -0.279 N 
ATOM     10  H   LIG    1       23.640 -17.829   3.229  0.00  0.00    +0.152 HD
ATOM     11  O   LIG    1       26.505 -18.860   4.040  0.00  0.00    -0.227 OA
BRANCH   9  12
ATOM     12  C   LIG    1       23.787 -19.656   4.359  0.00  0.00    +0.070 C 
ATOM     13  C   LIG    1       23.914 -20.948   3.551  0.00  0.00    +0.027 C 
ATOM     14  C   LIG    1       22.340 -19.437   4.783  0.00  0.00    +0.027 C 
ENDBRANCH   9  12
ENDBRANCH   7   8
ENDBRANCH   6   7
ENDBRANCH   1   6
BRANCH   1  15
ATOM     15  C   LIG    1       24.740 -14.581   3.659  0.00  0.00    +0.243 C 
BRANCH  15  16
ATOM     16  O   LIG    1       24.403 -13.512   2.762  0.00  0.00    -0.450 OA
BRANCH  16  17
ATOM     17  C   LIG    1       24.021 -12.355   3.333  0.00  0.00    +0.398 C 
ATOM     18  O   LIG    1       23.780 -12.160   4.512  0.00  0.00    -0.227 OA
ATOM     19  N   LIG    1       23.802 -11.447   2.359  0.00  0.00    -0.295 N 
ATOM     20  H   LIG    1       23.218 -10.664   2.614  0.00  0.00    +0.148 HD
ATOM     21  H   LIG    1       23.763 -11.803   1.416  0.00  0.00    +0.148 HD
ENDBRANCH  16  17
ENDBRANCH  15  16
ENDBRANCH   1  15
TORSDOF 9
ENDMDL
MODEL 4
REMARK VINA RESULT:      -4.5      1.940      2.484
REMARK  Name = *****
REMARK                            x       y       z     vdW  Elec       q    Type
REMARK                         _______ _______ _______ _____ _____    ______ ____
ROOT
ATOM      1  C   LIG    1       26.076 -14.816   3.495  0.00  0.00    +0.036 C 
ATOM      2  C   LIG    1       26.167 -13.944   2.216  0.00  0.00    +0.018 C 
ENDROOT
BRANCH   1   3
ATOM      3  C   LIG    1       24.946 -14.208   4.397  0.00  0.00    +0.013 C 
BRANCH   3   5
ATOM      4  C   LIG    1       22.799 -15.468   4.883  0.00  0.00    +0.004 C 
ATOM      5  C   LIG    1       23.498 -14.477   3.957  0.00  0.00    -0.003 C 
ENDBRANCH   3   5
ENDBRANCH   1   3
BRANCH   1   6
ATOM      6  C   LIG    1       25.734 -16.275   3.127  0.00  0.00    +0.243 C 
BRANCH   6   7
ATOM      7  O   LIG    1       26.839 -17.167   3.375  0.00  0.00    -0.450 OA
BRANCH   7   8
ATOM      8  C   LIG    1       26.520 -18.381   3.889  0.00  0.00    +0.401 C 
ATOM      9  N   LIG    1       27.436 -18.739   4.831  0.00  0.00    -0.279 N 
ATOM     10  H   LIG    1       28.168 -18.067   5.019  0.00  0.00    +0.152 HD
ATOM     11  O   LIG    1       25.577 -19.076   3.536  0.00  0.00    -0.227 OA
BRANCH   9  12
ATOM     12  C   LIG    1       27.492 -20.077   5.395  0.00  0.00    +0.070 C 
ATOM     13  C   LIG    1       26.339 -20.340   6.365  0.00  0.00    +0.027 C 
ATOM     14  C   LIG    1       28.829 -20.307   6.087  0.00  0.00    +0.027 C 
ENDBRANCH   9  12
ENDBRANCH   7   8
ENDBRANCH   6   7
ENDBRANCH   1   6
BRANCH   1  15
ATOM     15  C   LIG    1       27.466 -14.777   4.183  0.00  0.00    +0.243 C 
BRANCH  15  16
ATOM     16  O   LIG    1       27.628 -13.471   4.757  0.00  0.00    -0.450 OA
BRANCH  16  17
ATOM     17  C   LIG    1       28.738 -12.800   4.402  0.00  0.00    +0.398 C 
ATOM     18  O   LIG    1       29.475 -13.040   3.461  0.00  0.00    -0.227 OA
ATOM     19  N   LIG    1       29.005 -11.876   5.350  0.00  0.00    -0.295 N 
ATOM     20  H   LIG    1       29.955 -11.536   5.375  0.00  0.00    +0.148 HD
ATOM     21  H   LIG    1       28.488 -11.960   6.212  0.00  0.00    +0.148 HD
ENDBRANCH  16  17
ENDBRANCH  15  16
ENDBRANCH   1  15
TORSDOF 9
ENDMDL
MODEL 5
REMARK VINA RESULT:      -4.3      2.525      6.880
REMARK  Name = *****
REMARK                            x       y       z     vdW  Elec       q    Type
REMARK                         _______ _______ _______ _____ _____    ______ ____
ROOT
ATOM      1  C   LIG    1       24.697 -20.168   4.423  0.00  0.00    +0.036 C 
ATOM      2  C   LIG    1       24.073 -21.031   3.295  0.00  0.00    +0.018 C 
ENDROOT
BRANCH   1   3
ATOM      3  C   LIG    1       25.490 -21.137   5.368  0.00  0.00    +0.013 C 
BRANCH   3   5
ATOM      4  C   LIG    1       27.434 -20.454   6.848  0.00  0.00    +0.004 C 
ATOM      5  C   LIG    1       25.917 -20.569   6.731  0.00  0.00    -0.003 C 
ENDBRANCH   3   5
ENDBRANCH   1   3
BRANCH   1   6
ATOM      6  C   LIG    1       25.650 -19.111   3.826  0.00  0.00    +0.243 C 
BRANCH   6   7
ATOM      7  O   LIG    1       24.957 -17.896   3.478  0.00  0.00    -0.450 OA
BRANCH   7   8
ATOM      8  C   LIG    1       25.710 -16.769   3.448  0.00  0.00    +0.401 C 
ATOM      9  N   LIG    1       24.928 -15.684   3.706  0.00  0.00    -0.279 N 
ATOM     10  H   LIG    1       23.954 -15.873   3.899  0.00  0.00    +0.152 HD
ATOM     11  O   LIG    1       26.905 -16.720   3.188  0.00  0.00    -0.227 OA
BRANCH   9  12
ATOM     12  C   LIG    1       25.400 -14.322   3.521  0.00  0.00    +0.070 C 
ATOM     13  C   LIG    1       26.111 -13.786   4.765  0.00  0.00    +0.027 C 
ATOM     14  C   LIG    1       24.245 -13.407   3.137  0.00  0.00    +0.027 C 
ENDBRANCH   9  12
ENDBRANCH   7   8
ENDBRANCH   6   7
ENDBRANCH   1   6
BRANCH   1  15
ATOM     15  C   LIG    1       23.534 -19.450   5.155  0.00  0.00    +0.243 C 
BRANCH  15  16
ATOM     16  O   LIG    1       22.336 -19.680   4.397  0.00  0.00    -0.450 OA
BRANCH  16  17
ATOM     17  C   LIG    1       21.591 -18.596   4.121  0.00  0.00    +0.398 C 
ATOM     18  O   LIG    1       20.606 -18.542   3.404  0.00  0.00    -0.227 OA
ATOM     19  N   LIG    1       22.191 -17.513   4.658  0.00  0.00    -0.295 N 
ATOM     20  H   LIG    1       21.923 -16.623   4.264  0.00  0.00    +0.148 HD
ATOM     21  H   LIG    1       23.136 -17.642   4.985  0.00  0.00    +0.148 HD
ENDBRANCH  16  17
ENDBRANCH  15  16
ENDBRANCH   1  15
TORSDOF 9
ENDMDL
MODEL 6
REMARK VINA RESULT:      -3.9      2.564      6.343
REMARK  Name = *****
REMARK                            x       y       z     vdW  Elec       q    Type
REMARK                         _______ _______ _______ _____ _____    ______ ____
ROOT
ATOM      1  C   LIG    1       23.217 -19.218   4.224  0.00  0.00    +0.036 C 
ATOM      2  C   LIG    1       22.752 -19.408   5.691  0.00  0.00    +0.018 C 
ENDROOT
BRANCH   1   3
ATOM      3  C   LIG    1       21.938 -19.270   3.318  0.00  0.00    +0.013 C 
BRANCH   3   5
ATOM      4  C   LIG    1       19.489 -18.673   3.032  0.00  0.00    +0.004 C 
ATOM      5  C   LIG    1       20.825 -18.261   3.643  0.00  0.00    -0.003 C 
ENDBRANCH   3   5
ENDBRANCH   1   3
BRANCH   1   6
ATOM      6  C   LIG    1       23.930 -17.860   4.058  0.00  0.00    +0.243 C 
BRANCH   6   7
ATOM      7  O   LIG    1       25.114 -17.969   3.243  0.00  0.00    -0.450 OA
BRANCH   7   8
ATOM      8  C   LIG    1       26.089 -17.058   3.484  0.00  0.00    +0.401 C 
ATOM      9  N   LIG    1       25.576 -15.798   3.401  0.00  0.00    -0.279 N 
ATOM     10  H   LIG    1       24.585 -15.733   3.209  0.00  0.00    +0.152 HD
ATOM     11  O   LIG    1       27.264 -17.317   3.703  0.00  0.00    -0.227 OA
BRANCH   9  12
ATOM     12  C   LIG    1       26.417 -14.614   3.387  0.00  0.00    +0.070 C 
ATOM     13  C   LIG    1       26.416 -13.892   4.735  0.00  0.00    +0.027 C 
ATOM     14  C   LIG    1       25.979 -13.665   2.279  0.00  0.00    +0.027 C 
ENDBRANCH   9  12
ENDBRANCH   7   8
ENDBRANCH   6   7
ENDBRANCH   1   6
BRANCH   1  15
ATOM     15  C   LIG    1       24.215 -20.360   3.903  0.00  0.00    +0.243 C 
BRANCH  15  16
ATOM     16  O   LIG    1       24.612 -20.953   5.149  0.00  0.00    -0.450 OA
BRANCH  16  17
ATOM     17  C   LIG    1       25.812 -20.581   5.628  0.00  0.00    +0.398 C 
ATOM     18  O   LIG    1       26.117 -20.403   6.794  0.00  0.00    -0.227 OA
ATOM     19  N   LIG    1       26.620 -20.290   4.586  0.00  0.00    -0.295 N 
ATOM     20  H   LIG    1       27.416 -19.707   4.798  0.00  0.00    +0.148 HD
ATOM     21  H   LIG    1       26.174 -20.207   3.685  0.00  0.00    +0.148 HD
ENDBRANCH  16  17
ENDBRANCH  15  16
ENDBRANCH   1  15
TORSDOF 9
ENDMDL
MODEL 7
REMARK VINA RESULT:      -3.7      2.431      6.291
REMARK  Name = *****
REMARK                            x       y       z     vdW  Elec       q    Type
REMARK                         _______ _______ _______ _____ _____    ______ ____
ROOT
ATOM      1  C   LIG    1       24.825 -19.889   4.477  0.00  0.00    +0.036 C 
ATOM      2  C   LIG    1       24.446 -19.752   5.974  0.00  0.00    +0.018 C 
ENDROOT
BRANCH   1   3
ATOM      3  C   LIG    1       23.965 -21.057   3.881  0.00  0.00    +0.013 C 
BRANCH   3   5
ATOM      4  C   LIG    1       21.503 -20.842   4.452  0.00  0.00    +0.004 C 
ATOM      5  C   LIG    1       22.808 -21.572   4.753  0.00  0.00    -0.003 C 
ENDBRANCH   3   5
ENDBRANCH   1   3
BRANCH   1   6
ATOM      6  C   LIG    1       24.527 -18.574   3.725  0.00  0.00    +0.243 C 
BRANCH   6   7
ATOM      7  O   LIG    1       25.679 -18.094   3.002  0.00  0.00    -0.450 OA
BRANCH   7   8
ATOM      8  C   LIG    1       26.205 -16.921   3.433  0.00  0.00    +0.401 C 
ATOM      9  N   LIG    1       25.232 -15.968   3.483  0.00  0.00    -0.279 N 
ATOM     10  H   LIG    1       24.301 -16.270   3.230  0.00  0.00    +0.152 HD
ATOM     11  O   LIG    1       27.384 -16.727   3.698  0.00  0.00    -0.227 OA
BRANCH   9  12
ATOM     12  C   LIG    1       25.530 -14.561   3.688  0.00  0.00    +0.070 C 
ATOM     13  C   LIG    1       24.302 -13.775   4.149  0.00  0.00    +0.027 C 
ATOM     14  C   LIG    1       26.103 -13.949   2.416  0.00  0.00    +0.027 C 
ENDBRANCH   9  12
ENDBRANCH   7   8
ENDBRANCH   6   7
ENDBRANCH   1   6
BRANCH   1  15
ATOM     15  C   LIG    1       26.346 -20.181   4.409  0.00  0.00    +0.243 C 
BRANCH  15  16
ATOM     16  O   LIG    1       26.862 -20.110   5.747  0.00  0.00    -0.450 OA
BRANCH  16  17
ATOM     17  C   LIG    1       28.201 -20.059   5.866  0.00  0.00    +0.398 C 
ATOM     18  O   LIG    1       28.907 -20.774   6.555  0.00  0.00    -0.227 OA
ATOM     19  N   LIG    1       28.650 -18.975   5.198  0.00  0.00    -0.295 N 
ATOM     20  H   LIG    1       29.565 -18.644   5.466  0.00  0.00    +0.148 HD
ATOM     21  H   LIG    1       27.952 -18.309   4.905  0.00  0.00    +0.148 HD
ENDBRANCH  16  17
ENDBRANCH  15  16
ENDBRANCH   1  15
TORSDOF 9
ENDMDL
MODEL 8
REMARK VINA RESULT:      -3.4      2.601      6.425
REMARK  Name = *****
REMARK                            x       y       z     vdW  Elec       q    Type
REMARK                         _______ _______ _______ _____ _____    ______ ____
ROOT
ATOM      1  C   LIG    1       24.943 -19.119   3.876  0.00  0.00    +0.036 C 
ATOM      2  C   LIG    1       23.696 -18.252   4.189  0.00  0.00    +0.018 C 
ENDROOT
BRANCH   1   3
ATOM      3  C   LIG    1       24.438 -20.431   3.183  0.00  0.00    +0.013 C 
BRANCH   3   5
ATOM      4  C   LIG    1       22.713 -21.224   4.866  0.00  0.00    +0.004 C 
ATOM      5  C   LIG    1       23.994 -21.572   4.113  0.00  0.00    -0.003 C 
ENDBRANCH   3   5
ENDBRANCH   1   3
BRANCH   1   6
ATOM      6  C   LIG    1       25.904 -18.359   2.937  0.00  0.00    +0.243 C 
BRANCH   6   7
ATOM      7  O   LIG    1       26.728 -17.419   3.655  0.00  0.00    -0.450 OA
BRANCH   7   8
ATOM      8  C   LIG    1       26.510 -16.108   3.383  0.00  0.00    +0.401 C 
ATOM      9  N   LIG    1       27.458 -15.345   3.997  0.00  0.00    -0.279 N 
ATOM     10  H   LIG    1       28.165 -15.847   4.516  0.00  0.00    +0.152 HD
ATOM     11  O   LIG    1       25.581 -15.665   2.722  0.00  0.00    -0.227 OA
BRANCH   9  12
ATOM     12  C   LIG    1       27.360 -13.898   4.078  0.00  0.00    +0.070 C 
ATOM     13  C   LIG    1       28.678 -13.211   3.718  0.00  0.00    +0.027 C 
ATOM     14  C   LIG    1       26.905 -13.474   5.469  0.00  0.00    +0.027 C 
ENDBRANCH   9  12
ENDBRANCH   7   8
ENDBRANCH   6   7
ENDBRANCH   1   6
BRANCH   1  15
ATOM     15  C   LIG    1       25.661 -19.400   5.221  0.00  0.00    +0.243 C 
BRANCH  15  16
ATOM     16  O   LIG    1       26.828 -20.185   4.934  0.00  0.00    -0.450 OA
BRANCH  16  17
ATOM     17  C   LIG    1       27.882 -20.005   5.750  0.00  0.00    +0.398 C 
ATOM     18  O   LIG    1       28.099 -20.571   6.808  0.00  0.00    -0.227 OA
ATOM     19  N   LIG    1       28.617 -18.975   5.283  0.00  0.00    -0.295 N 
ATOM     20  H   LIG    1       29.233 -18.536   5.952  0.00  0.00    +0.148 HD
ATOM     21  H   LIG    1       28.190 -18.411   4.564  0.00  0.00    +0.148 HD
ENDBRANCH  16  17
ENDBRANCH  15  16
ENDBRANCH   1  15
TORSDOF 9
ENDMDL
MODEL 9
REMARK VINA RESULT:      -3.3      3.013      5.405
REMARK  Name = *****
REMARK                            x       y       z     vdW  Elec       q    Type
REMARK                         _______ _______ _______ _____ _____    ______ ____
ROOT
ATOM      1  C   LIG    1       24.223 -19.096   3.682  0.00  0.00    +0.036 C 
ATOM      2  C   LIG    1       24.149 -20.182   2.578  0.00  0.00    +0.018 C 
ENDROOT
BRANCH   1   3
ATOM      3  C   LIG    1       22.837 -18.363   3.710  0.00  0.00    +0.013 C 
BRANCH   3   5
ATOM      4  C   LIG    1       20.347 -18.843   3.629  0.00  0.00    +0.004 C 
ATOM      5  C   LIG    1       21.665 -19.133   4.341  0.00  0.00    -0.003 C 
ENDBRANCH   3   5
ENDBRANCH   1   3
BRANCH   1   6
ATOM      6  C   LIG    1       24.508 -19.743   5.054  0.00  0.00    +0.243 C 
BRANCH   6   7
ATOM      7  O   LIG    1       25.612 -20.668   4.994  0.00  0.00    -0.450 OA
BRANCH   7   8
ATOM      8  C   LIG    1       26.328 -20.816   6.137  0.00  0.00    +0.401 C 
ATOM      9  N   LIG    1       27.444 -20.036   6.088  0.00  0.00    -0.279 N 
ATOM     10  H   LIG    1       27.554 -19.469   5.258  0.00  0.00    +0.152 HD
ATOM     11  O   LIG    1       26.042 -21.566   7.061  0.00  0.00    -0.227 OA
BRANCH   9  12
ATOM     12  C   LIG    1       28.517 -20.150   7.061  0.00  0.00    +0.070 C 
ATOM     13  C   LIG    1       29.473 -18.958   7.004  0.00  0.00    +0.027 C 
ATOM     14  C   LIG    1       29.281 -21.452   6.858  0.00  0.00    +0.027 C 
ENDBRANCH   9  12
ENDBRANCH   7   8
ENDBRANCH   6   7
ENDBRANCH   1   6
BRANCH   1  15
ATOM     15  C   LIG    1       25.389 -18.141   3.316  0.00  0.00    +0.243 C 
BRANCH  15  16
ATOM     16  O   LIG    1       24.932 -16.797   3.530  0.00  0.00    -0.450 OA
BRANCH  16  17
ATOM     17  C   LIG    1       25.868 -15.834   3.466  0.00  0.00    +0.398 C 
ATOM     18  O   LIG    1       27.074 -15.985   3.375  0.00  0.00    -0.227 OA
ATOM     19  N   LIG    1       25.271 -14.640   3.665  0.00  0.00    -0.295 N 
ATOM     20  H   LIG    1       25.880 -13.889   3.958  0.00  0.00    +0.148 HD
ATOM     21  H   LIG    1       24.323 -14.666   4.005  0.00  0.00    +0.148 HD
ENDBRANCH  16  17
ENDBRANCH  15  16
ENDBRANCH   1  15
TORSDOF 9
ENDMDL
