MODEL 1
REMARK VINA RESULT:      -9.9      0.000      0.000
REMARK  Name = *****
REMARK                            x       y       z     vdW  Elec       q    Type
REMARK                         _______ _______ _______ _____ _____    ______ ____
ROOT
ATOM      1  C   LIG    1       26.647 -20.826   6.926  0.00  0.00    -0.016 C 
ATOM      2  C   LIG    1       25.612 -21.310   6.195  0.00  0.00    -0.011 C 
ATOM      3  C   LIG    1       25.065 -22.679   6.370  0.00  0.00    +0.024 A 
ATOM      4  C   LIG    1       23.703 -22.948   6.599  0.00  0.00    +0.129 A 
ATOM      5  C   LIG    1       23.279 -24.277   6.745  0.00  0.00    +0.046 A 
ATOM      6  C   LIG    1       24.174 -25.341   6.638  0.00  0.00    +0.008 A 
ATOM      7  C   LIG    1       25.512 -25.097   6.323  0.00  0.00    -0.036 A 
ATOM      8  O   LIG    1       22.657 -22.063   6.652  0.00  0.00    -0.487 OA
ATOM      9  C   LIG    1       22.909 -20.663   6.757  0.00  0.00    +0.265 C 
ATOM     10  C   LIG    1       23.572 -20.074   5.537  0.00  0.00    -0.003 A 
ATOM     11  C   LIG    1       22.868 -19.248   4.651  0.00  0.00    +0.007 A 
ATOM     12  C   LIG    1       23.510 -18.705   3.538  0.00  0.00    +0.000 A 
ATOM     13  C   LIG    1       24.857 -18.981   3.302  0.00  0.00    +0.001 A 
ATOM     14  C   LIG    1       25.565 -19.808   4.175  0.00  0.00    +0.009 A 
ATOM     15  C   LIG    1       25.938 -23.768   6.175  0.00  0.00    +0.016 A 
ATOM     16  C   LIG    1       24.926 -20.359   5.290  0.00  0.00    -0.011 A 
ENDROOT
BRANCH   1  17
ATOM     17  C   LIG    1       27.394 -21.478   8.072  0.00  0.00    +0.043 C 
BRANCH  17  18
ATOM     18  C   LIG    1       28.915 -21.620   7.834  0.00  0.00    +0.088 C 
BRANCH  18  20
ATOM     19  C   LIG    1       31.061 -21.205   8.879  0.00  0.00    +0.104 C 
ATOM     20  N   LIG    1       29.742 -20.638   8.575  0.00  0.00    -0.308 NA
ATOM     21  C   LIG    1       29.892 -19.371   7.860  0.00  0.00    +0.104 C 
ENDBRANCH  18  20
ENDBRANCH  17  18
ENDBRANCH   1  17
BRANCH   7  22
ATOM     22  C   LIG    1       26.482 -26.240   6.131  0.00  0.00    +0.155 C 
BRANCH  22  23
ATOM     23  C   LIG    1       26.227 -27.195   4.988  0.00  0.00    +0.309 C 
ATOM     24  O   LIG    1       26.033 -26.802   3.834  0.00  0.00    -0.251 OA
BRANCH  23  25
ATOM     25  O   LIG    1       26.229 -28.513   5.275  0.00  0.00    -0.480 OA
ATOM     26  H   LIG    1       25.452 -29.018   4.935  0.00  0.00    +0.295 HD
ENDBRANCH  23  25
ENDBRANCH  22  23
ENDBRANCH   7  22
TORSDOF 6
ENDMDL
MODEL 2
REMARK VINA RESULT:      -8.4      3.184      6.191
REMARK  Name = *****
REMARK                            x       y       z     vdW  Elec       q    Type
REMARK                         _______ _______ _______ _____ _____    ______ ____
ROOT
ATOM      1  C   LIG    1       24.928 -21.154   4.167  0.00  0.00    -0.016 C 
ATOM      2  C   LIG    1       25.262 -21.796   5.314  0.00  0.00    -0.011 C 
ATOM      3  C   LIG    1       25.983 -21.139   6.432  0.00  0.00    +0.024 A 
ATOM      4  C   LIG    1       25.523 -21.141   7.762  0.00  0.00    +0.129 A 
ATOM      5  C   LIG    1       26.279 -20.497   8.753  0.00  0.00    +0.046 A 
ATOM      6  C   LIG    1       27.493 -19.880   8.454  0.00  0.00    +0.008 A 
ATOM      7  C   LIG    1       28.008 -19.945   7.158  0.00  0.00    -0.036 A 
ATOM      8  O   LIG    1       24.412 -21.756   8.277  0.00  0.00    -0.487 OA
ATOM      9  C   LIG    1       23.403 -22.259   7.405  0.00  0.00    +0.265 C 
ATOM     10  C   LIG    1       23.862 -23.417   6.553  0.00  0.00    -0.003 A 
ATOM     11  C   LIG    1       23.422 -24.725   6.800  0.00  0.00    +0.007 A 
ATOM     12  C   LIG    1       23.851 -25.775   5.988  0.00  0.00    +0.000 A 
ATOM     13  C   LIG    1       24.720 -25.527   4.925  0.00  0.00    +0.001 A 
ATOM     14  C   LIG    1       25.168 -24.230   4.674  0.00  0.00    +0.009 A 
ATOM     15  C   LIG    1       27.254 -20.590   6.165  0.00  0.00    +0.016 A 
ATOM     16  C   LIG    1       24.746 -23.174   5.488  0.00  0.00    -0.011 A 
ENDROOT
BRANCH   1  17
ATOM     17  C   LIG    1       25.117 -19.696   3.799  0.00  0.00    +0.043 C 
BRANCH  17  18
ATOM     18  C   LIG    1       23.799 -18.941   3.516  0.00  0.00    +0.088 C 
BRANCH  18  20
ATOM     19  C   LIG    1       22.090 -17.629   4.624  0.00  0.00    +0.104 C 
ATOM     20  N   LIG    1       22.879 -18.865   4.675  0.00  0.00    -0.308 NA
ATOM     21  C   LIG    1       21.992 -20.025   4.769  0.00  0.00    +0.104 C 
ENDBRANCH  18  20
ENDBRANCH  17  18
ENDBRANCH   1  17
BRANCH   7  22
ATOM     22  C   LIG    1       29.356 -19.346   6.830  0.00  0.00    +0.155 C 
BRANCH  22  23
ATOM     23  C   LIG    1       30.587 -20.062   7.337  0.00  0.00    +0.309 C 
ATOM     24  O   LIG    1       31.716 -19.575   7.241  0.00  0.00    -0.251 OA
BRANCH  23  25
ATOM     25  O   LIG    1       30.403 -21.266   7.917  0.00  0.00    -0.480 OA
ATOM     26  H   LIG    1       29.969 -21.945   7.346  0.00  0.00    +0.295 HD
ENDBRANCH  23  25
ENDBRANCH  22  23
ENDBRANCH   7  22
TORSDOF 6
ENDMDL
MODEL 3
REMARK VINA RESULT:      -7.7      3.405      5.915
REMARK  Name = *****
REMARK                            x       y       z     vdW  Elec       q    Type
REMARK                         _______ _______ _______ _____ _____    ______ ____
ROOT
ATOM      1  C   LIG    1       25.422 -22.440   6.384  0.00  0.00    -0.016 C 
ATOM      2  C   LIG    1       25.584 -21.121   6.118  0.00  0.00    -0.011 C 
ATOM      3  C   LIG    1       26.899 -20.434   6.181  0.00  0.00    +0.024 A 
ATOM      4  C   LIG    1       27.430 -19.674   5.124  0.00  0.00    +0.129 A 
ATOM      5  C   LIG    1       28.680 -19.056   5.281  0.00  0.00    +0.046 A 
ATOM      6  C   LIG    1       29.394 -19.155   6.474  0.00  0.00    +0.008 A 
ATOM      7  C   LIG    1       28.842 -19.832   7.563  0.00  0.00    -0.036 A 
ATOM      8  O   LIG    1       26.858 -19.381   3.914  0.00  0.00    -0.487 OA
ATOM      9  C   LIG    1       25.705 -20.097   3.476  0.00  0.00    +0.265 C 
ATOM     10  C   LIG    1       24.478 -19.838   4.314  0.00  0.00    -0.003 A 
ATOM     11  C   LIG    1       23.413 -19.066   3.830  0.00  0.00    +0.007 A 
ATOM     12  C   LIG    1       22.283 -18.854   4.621  0.00  0.00    +0.000 A 
ATOM     13  C   LIG    1       22.208 -19.411   5.898  0.00  0.00    +0.001 A 
ATOM     14  C   LIG    1       23.265 -20.177   6.391  0.00  0.00    +0.009 A 
ATOM     15  C   LIG    1       27.592 -20.449   7.409  0.00  0.00    +0.016 A 
ATOM     16  C   LIG    1       24.402 -20.389   5.605  0.00  0.00    -0.011 A 
ENDROOT
BRANCH   1  17
ATOM     17  C   LIG    1       26.472 -23.485   6.708  0.00  0.00    +0.043 C 
BRANCH  17  18
ATOM     18  C   LIG    1       25.906 -24.912   6.891  0.00  0.00    +0.088 C 
BRANCH  18  20
ATOM     19  C   LIG    1       26.470 -26.791   5.470  0.00  0.00    +0.104 C 
ATOM     20  N   LIG    1       25.605 -25.616   5.622  0.00  0.00    -0.308 NA
ATOM     21  C   LIG    1       24.200 -26.009   5.513  0.00  0.00    +0.104 C 
ENDBRANCH  18  20
ENDBRANCH  17  18
ENDBRANCH   1  17
BRANCH   7  22
ATOM     22  C   LIG    1       29.568 -19.889   8.888  0.00  0.00    +0.155 C 
BRANCH  22  23
ATOM     23  C   LIG    1       31.041 -20.226   8.869  0.00  0.00    +0.309 C 
ATOM     24  O   LIG    1       31.894 -19.469   9.340  0.00  0.00    -0.251 OA
BRANCH  23  25
ATOM     25  O   LIG    1       31.396 -21.406   8.320  0.00  0.00    -0.480 OA
ATOM     26  H   LIG    1       30.903 -21.653   7.501  0.00  0.00    +0.295 HD
ENDBRANCH  23  25
ENDBRANCH  22  23
ENDBRANCH   7  22
TORSDOF 6
ENDMDL
