MODEL 1
REMARK VINA RESULT:      -4.4      0.000      0.000
REMARK  Name = *****
REMARK                            x       y       z     vdW  Elec       q    Type
REMARK                         _______ _______ _______ _____ _____    ______ ____
ROOT
ATOM      1  C   LIG    1       25.949 -21.549   7.062  0.00  0.00    +0.144 C 
ATOM      2  N   LIG    1       25.452 -20.738   5.982  0.00  0.00    -0.207 N 
ATOM      3  C   LIG    1       24.138 -20.513   5.729  0.00  0.00    +0.268 C 
ATOM      4  O   LIG    1       23.188 -20.760   6.454  0.00  0.00    -0.271 OA
ATOM      5  C   LIG    1       24.087 -19.988   4.317  0.00  0.00    +0.185 C 
ATOM      6  C   LIG    1       23.960 -21.183   3.370  0.00  0.00    +0.066 C 
ATOM      7  C   LIG    1       23.018 -18.944   4.061  0.00  0.00    +0.066 C 
ATOM      8  O   LIG    1       25.403 -19.426   4.187  0.00  0.00    -0.434 OA
ATOM      9  C   LIG    1       26.200 -20.006   5.134  0.00  0.00    +0.410 C 
ATOM     10  O   LIG    1       27.411 -19.832   5.183  0.00  0.00    -0.226 OA
ENDROOT
TORSDOF 0
ENDMDL
MODEL 2
REMARK VINA RESULT:      -4.3      1.537      1.670
REMARK  Name = *****
REMARK                            x       y       z     vdW  Elec       q    Type
REMARK                         _______ _______ _______ _____ _____    ______ ____
ROOT
ATOM      1  C   LIG    1       23.230 -21.544   7.062  0.00  0.00    +0.144 C 
ATOM      2  N   LIG    1       23.994 -20.853   6.058  0.00  0.00    -0.207 N 
ATOM      3  C   LIG    1       23.476 -19.963   5.173  0.00  0.00    +0.268 C 
ATOM      4  O   LIG    1       22.372 -19.446   5.199  0.00  0.00    -0.271 OA
ATOM      5  C   LIG    1       24.515 -19.827   4.089  0.00  0.00    +0.185 C 
ATOM      6  C   LIG    1       24.235 -20.892   3.026  0.00  0.00    +0.066 C 
ATOM      7  C   LIG    1       24.632 -18.441   3.486  0.00  0.00    +0.066 C 
ATOM      8  O   LIG    1       25.707 -20.184   4.806  0.00  0.00    -0.434 OA
ATOM      9  C   LIG    1       25.332 -20.899   5.910  0.00  0.00    +0.410 C 
ATOM     10  O   LIG    1       26.135 -21.459   6.645  0.00  0.00    -0.226 OA
ENDROOT
TORSDOF 0
ENDMDL
MODEL 3
REMARK VINA RESULT:      -4.2      6.420      7.275
REMARK  Name = *****
REMARK                            x       y       z     vdW  Elec       q    Type
REMARK                         _______ _______ _______ _____ _____    ______ ____
ROOT
ATOM      1  C   LIG    1       28.457 -13.232   3.467  0.00  0.00    +0.144 C 
ATOM      2  N   LIG    1       27.124 -13.514   3.929  0.00  0.00    -0.207 N 
ATOM      3  C   LIG    1       26.103 -13.924   3.133  0.00  0.00    +0.268 C 
ATOM      4  O   LIG    1       26.171 -14.320   1.981  0.00  0.00    -0.271 OA
ATOM      5  C   LIG    1       24.850 -13.690   3.938  0.00  0.00    +0.185 C 
ATOM      6  C   LIG    1       24.363 -12.267   3.656  0.00  0.00    +0.066 C 
ATOM      7  C   LIG    1       23.755 -14.717   3.728  0.00  0.00    +0.066 C 
ATOM      8  O   LIG    1       25.369 -13.750   5.276  0.00  0.00    -0.434 OA
ATOM      9  C   LIG    1       26.715 -13.517   5.212  0.00  0.00    +0.410 C 
ATOM     10  O   LIG    1       27.413 -13.368   6.208  0.00  0.00    -0.226 OA
ENDROOT
TORSDOF 0
ENDMDL
MODEL 4
REMARK VINA RESULT:      -4.2      5.810      6.591
REMARK  Name = *****
REMARK                            x       y       z     vdW  Elec       q    Type
REMARK                         _______ _______ _______ _____ _____    ______ ____
ROOT
ATOM      1  C   LIG    1       25.953 -16.515   3.333  0.00  0.00    +0.144 C 
ATOM      2  N   LIG    1       25.771 -15.112   3.593  0.00  0.00    -0.207 N 
ATOM      3  C   LIG    1       24.576 -14.527   3.861  0.00  0.00    +0.268 C 
ATOM      4  O   LIG    1       23.522 -15.077   4.131  0.00  0.00    -0.271 OA
ATOM      5  C   LIG    1       24.799 -13.051   3.650  0.00  0.00    +0.185 C 
ATOM      6  C   LIG    1       24.512 -12.731   2.182  0.00  0.00    +0.066 C 
ATOM      7  C   LIG    1       24.025 -12.147   4.589  0.00  0.00    +0.066 C 
ATOM      8  O   LIG    1       26.213 -12.952   3.882  0.00  0.00    -0.434 OA
ATOM      9  C   LIG    1       26.752 -14.197   3.714  0.00  0.00    +0.410 C 
ATOM     10  O   LIG    1       27.959 -14.406   3.711  0.00  0.00    -0.226 OA
ENDROOT
TORSDOF 0
ENDMDL
MODEL 5
REMARK VINA RESULT:      -4.1      6.494      7.056
REMARK  Name = *****
REMARK                            x       y       z     vdW  Elec       q    Type
REMARK                         _______ _______ _______ _____ _____    ______ ____
ROOT
ATOM      1  C   LIG    1       27.932 -14.675   4.551  0.00  0.00    +0.144 C 
ATOM      2  N   LIG    1       26.727 -14.042   4.087  0.00  0.00    -0.207 N 
ATOM      3  C   LIG    1       25.877 -13.332   4.873  0.00  0.00    +0.268 C 
ATOM      4  O   LIG    1       26.073 -12.935   6.010  0.00  0.00    -0.271 OA
ATOM      5  C   LIG    1       24.597 -13.227   4.085  0.00  0.00    +0.185 C 
ATOM      6  C   LIG    1       23.730 -14.442   4.421  0.00  0.00    +0.066 C 
ATOM      7  C   LIG    1       23.842 -11.925   4.263  0.00  0.00    +0.066 C 
ATOM      8  O   LIG    1       25.091 -13.361   2.742  0.00  0.00    -0.434 OA
ATOM      9  C   LIG    1       26.316 -13.965   2.807  0.00  0.00    +0.410 C 
ATOM     10  O   LIG    1       26.927 -14.339   1.814  0.00  0.00    -0.226 OA
ENDROOT
TORSDOF 0
ENDMDL
MODEL 6
REMARK VINA RESULT:      -3.9      6.090      7.278
REMARK  Name = *****
REMARK                            x       y       z     vdW  Elec       q    Type
REMARK                         _______ _______ _______ _____ _____    ______ ____
ROOT
ATOM      1  C   LIG    1       23.295 -15.067   4.197  0.00  0.00    +0.144 C 
ATOM      2  N   LIG    1       24.474 -14.291   3.921  0.00  0.00    -0.207 N 
ATOM      3  C   LIG    1       25.697 -14.817   3.652  0.00  0.00    +0.268 C 
ATOM      4  O   LIG    1       25.966 -15.978   3.393  0.00  0.00    -0.271 OA
ATOM      5  C   LIG    1       26.670 -13.682   3.844  0.00  0.00    +0.185 C 
ATOM      6  C   LIG    1       27.109 -13.674   5.310  0.00  0.00    +0.066 C 
ATOM      7  C   LIG    1       27.854 -13.689   2.898  0.00  0.00    +0.066 C 
ATOM      8  O   LIG    1       25.820 -12.549   3.604  0.00  0.00    -0.434 OA
ATOM      9  C   LIG    1       24.527 -12.953   3.784  0.00  0.00    +0.410 C 
ATOM     10  O   LIG    1       23.580 -12.175   3.784  0.00  0.00    -0.226 OA
ENDROOT
TORSDOF 0
ENDMDL
MODEL 7
REMARK VINA RESULT:      -3.8      1.654      1.833
REMARK  Name = *****
REMARK                            x       y       z     vdW  Elec       q    Type
REMARK                         _______ _______ _______ _____ _____    ______ ____
ROOT
ATOM      1  C   LIG    1       27.261 -19.782   5.184  0.00  0.00    +0.144 C 
ATOM      2  N   LIG    1       25.876 -19.725   4.801  0.00  0.00    -0.207 N 
ATOM      3  C   LIG    1       24.882 -20.430   5.399  0.00  0.00    +0.268 C 
ATOM      4  O   LIG    1       24.934 -21.043   6.452  0.00  0.00    -0.271 OA
ATOM      5  C   LIG    1       23.724 -20.384   4.434  0.00  0.00    +0.185 C 
ATOM      6  C   LIG    1       23.854 -21.572   3.479  0.00  0.00    +0.066 C 
ATOM      7  C   LIG    1       22.355 -20.323   5.081  0.00  0.00    +0.066 C 
ATOM      8  O   LIG    1       24.014 -19.173   3.717  0.00  0.00    -0.434 OA
ATOM      9  C   LIG    1       25.344 -18.900   3.879  0.00  0.00    +0.410 C 
ATOM     10  O   LIG    1       25.919 -18.005   3.272  0.00  0.00    -0.226 OA
ENDROOT
TORSDOF 0
ENDMDL
MODEL 8
REMARK VINA RESULT:      -3.8      6.484      7.588
REMARK  Name = *****
REMARK                            x       y       z     vdW  Elec       q    Type
REMARK                         _______ _______ _______ _____ _____    ______ ____
ROOT
ATOM      1  C   LIG    1       23.510 -11.677   4.098  0.00  0.00    +0.144 C 
ATOM      2  N   LIG    1       24.468 -12.643   3.630  0.00  0.00    -0.207 N 
ATOM      3  C   LIG    1       24.588 -13.905   4.114  0.00  0.00    +0.268 C 
ATOM      4  O   LIG    1       23.811 -14.500   4.842  0.00  0.00    -0.271 OA
ATOM      5  C   LIG    1       25.939 -14.385   3.648  0.00  0.00    +0.185 C 
ATOM      6  C   LIG    1       26.974 -13.991   4.704  0.00  0.00    +0.066 C 
ATOM      7  C   LIG    1       26.011 -15.860   3.305  0.00  0.00    +0.066 C 
ATOM      8  O   LIG    1       26.130 -13.571   2.479  0.00  0.00    -0.434 OA
ATOM      9  C   LIG    1       25.308 -12.484   2.589  0.00  0.00    +0.410 C 
ATOM     10  O   LIG    1       25.346 -11.539   1.812  0.00  0.00    -0.226 OA
ENDROOT
TORSDOF 0
ENDMDL
MODEL 9
REMARK VINA RESULT:      -3.7      5.919      7.124
REMARK  Name = *****
REMARK                            x       y       z     vdW  Elec       q    Type
REMARK                         _______ _______ _______ _____ _____    ______ ____
ROOT
ATOM      1  C   LIG    1       24.219 -12.196   5.035  0.00  0.00    +0.144 C 
ATOM      2  N   LIG    1       24.896 -13.369   4.551  0.00  0.00    -0.207 N 
ATOM      3  C   LIG    1       26.234 -13.577   4.635  0.00  0.00    +0.268 C 
ATOM      4  O   LIG    1       27.044 -12.946   5.293  0.00  0.00    -0.271 OA
ATOM      5  C   LIG    1       26.528 -14.688   3.660  0.00  0.00    +0.185 C 
ATOM      6  C   LIG    1       26.815 -14.060   2.295  0.00  0.00    +0.066 C 
ATOM      7  C   LIG    1       27.628 -15.640   4.089  0.00  0.00    +0.066 C 
ATOM      8  O   LIG    1       25.256 -15.353   3.612  0.00  0.00    -0.434 OA
ATOM      9  C   LIG    1       24.307 -14.469   4.044  0.00  0.00    +0.410 C 
ATOM     10  O   LIG    1       23.105 -14.701   3.985  0.00  0.00    -0.226 OA
ENDROOT
TORSDOF 0
ENDMDL
