MODEL 1
REMARK VINA RESULT:      65.7      0.000      0.000
REMARK  Name = *****
REMARK                            x       y       z     vdW  Elec       q    Type
REMARK                         _______ _______ _______ _____ _____    ______ ____
ROOT
ATOM      1  C   LIG    1       24.266 -17.876   3.597  0.00  0.00    +0.064 C 
ATOM      2  C   LIG    1       22.798 -17.665   4.061  0.00  0.00    +0.119 C 
ATOM      3  C   LIG    1       22.439 -16.301   4.623  0.00  0.00    +0.074 C 
ATOM      4  C   LIG    1       22.745 -16.443   6.091  0.00  0.00    +0.239 C 
ATOM      5  O   LIG    1       22.378 -17.793   6.381  0.00  0.00    -0.464 OA
ATOM      6  C   LIG    1       23.076 -15.127   3.906  0.00  0.00    +0.159 C 
ATOM      7  C   LIG    1       24.565 -15.327   3.712  0.00  0.00    -0.011 A 
ATOM      8  C   LIG    1       25.446 -14.231   3.785  0.00  0.00    +0.056 A 
ATOM      9  C   LIG    1       26.758 -14.413   3.390  0.00  0.00    +0.167 A 
ATOM     10  O   LIG    1       27.739 -13.471   3.406  0.00  0.00    -0.453 OA
ATOM     11  C   LIG    1       28.820 -14.193   2.776  0.00  0.00    +0.466 C 
ATOM     12  O   LIG    1       28.500 -15.571   2.498  0.00  0.00    -0.453 OA
ATOM     13  C   LIG    1       27.201 -15.612   2.894  0.00  0.00    +0.167 A 
ATOM     14  C   LIG    1       26.386 -16.716   2.858  0.00  0.00    +0.054 A 
ATOM     15  C   LIG    1       22.359 -18.531   5.217  0.00  0.00    +0.312 C 
ATOM     16  O   LIG    1       22.009 -19.684   5.141  0.00  0.00    -0.251 OA
ATOM     17  C   LIG    1       25.070 -16.600   3.355  0.00  0.00    -0.030 A 
ENDROOT
BRANCH   1  22
ATOM     18  C   LIG    1       25.215 -20.595   6.191  0.00  0.00    +0.165 A 
ATOM     19  C   LIG    1       26.591 -20.668   5.977  0.00  0.00    +0.201 A 
ATOM     20  C   LIG    1       27.222 -19.820   5.050  0.00  0.00    +0.165 A 
ATOM     21  C   LIG    1       26.465 -18.914   4.307  0.00  0.00    +0.053 A 
ATOM     22  C   LIG    1       25.075 -18.850   4.466  0.00  0.00    -0.032 A 
ATOM     23  C   LIG    1       24.478 -19.669   5.442  0.00  0.00    +0.053 A 
BRANCH  18  25
ATOM     24  C   LIG    1       23.090 -21.551   6.696  0.00  0.00    +0.277 C 
ATOM     25  O   LIG    1       24.447 -21.330   7.055  0.00  0.00    -0.491 OA
ENDBRANCH  18  25
BRANCH  19  26
ATOM     26  O   LIG    1       27.385 -21.564   6.647  0.00  0.00    -0.501 OA
ATOM     27  H   LIG    1       28.185 -21.060   6.891  0.00  0.00    +0.292 HD
ENDBRANCH  19  26
BRANCH  20  28
ATOM     28  O   LIG    1       28.583 -19.988   4.955  0.00  0.00    -0.491 OA
ATOM     29  C   LIG    1       29.388 -18.957   5.516  0.00  0.00    +0.277 C 
ENDBRANCH  20  28
ENDBRANCH   1  22
BRANCH   6  30
ATOM     30  O   LIG    1       22.549 -14.966   2.573  0.00  0.00    -0.340 OA
BRANCH  30  31
ATOM     31  C   LIG    1       22.630 -13.669   1.970  0.00  0.00    +0.282 C 
ATOM     32  C   LIG    1       21.831 -12.570   2.703  0.00  0.00    +0.201 C 
ATOM     33  C   LIG    1       22.563 -12.096   3.962  0.00  0.00    +0.179 C 
ATOM     34  C   LIG    1       23.815 -12.921   4.301  0.00  0.00    +0.184 C 
ATOM     35  C   LIG    1       24.704 -13.057   3.071  0.00  0.00    +0.178 C 
ATOM     36  C   LIG    1       25.541 -11.789   2.948  0.00  0.00    +0.197 C 
ATOM     37  O   LIG    1       26.276 -11.447   4.111  0.00  0.00    -0.344 OA
ATOM     38  C   LIG    1       25.782 -11.933   5.353  0.00  0.00    +0.289 C 
ATOM     39  O   LIG    1       24.406 -12.276   5.431  0.00  0.00    -0.338 OA
ATOM     40  O   LIG    1       24.005 -13.274   1.841  0.00  0.00    -0.341 OA
BRANCH  38  41
ATOM     41  C   LIG    1       26.658 -13.065   5.827  0.00  0.00    +0.045 A 
ATOM     42  S   LIG    1       28.373 -12.927   5.793  0.00  0.00    -0.097 S 
ATOM     43  C   LIG    1       28.585 -14.521   6.379  0.00  0.00    +0.045 A 
ATOM     44  C   LIG    1       27.383 -15.165   6.565  0.00  0.00    +0.008 A 
ATOM     45  C   LIG    1       26.279 -14.335   6.226  0.00  0.00    +0.016 A 
ENDBRANCH  38  41
BRANCH  32  46
ATOM     46  O   LIG    1       21.632 -11.447   1.822  0.00  0.00    -0.384 OA
ATOM     47  H   LIG    1       22.316 -10.787   2.040  0.00  0.00    +0.210 HD
ENDBRANCH  32  46
BRANCH  33  48
ATOM     48  O   LIG    1       21.653 -12.135   5.074  0.00  0.00    -0.386 OA
ATOM     49  H   LIG    1       21.835 -11.321   5.588  0.00  0.00    +0.210 HD
ENDBRANCH  33  48
ENDBRANCH  30  31
ENDBRANCH   6  30
TORSDOF 9
ENDMDL
