MODEL 1
REMARK VINA RESULT:      -9.2      0.000      0.000
REMARK  Name = *****
REMARK                            x       y       z     vdW  Elec       q    Type
REMARK                         _______ _______ _______ _____ _____    ______ ____
ROOT
ATOM      1  C   LIG    1       23.383 -19.253   3.501  0.00  0.00    +0.105 C 
ATOM      2  N   LIG    1       23.708 -20.224   4.528  0.00  0.00    -0.302 NA
ATOM      3  C   LIG    1       25.163 -20.409   4.779  0.00  0.00    +0.111 C 
ATOM      4  C   LIG    1       25.632 -20.344   6.275  0.00  0.00    +0.118 C 
ATOM      5  N   LIG    1       24.663 -21.091   7.121  0.00  0.00    -0.320 N 
ATOM      6  C   LIG    1       24.698 -22.478   6.902  0.00  0.00    +0.034 A 
ATOM      7  C   LIG    1       25.761 -23.193   7.490  0.00  0.00    -0.022 A 
ATOM      8  C   LIG    1       26.730 -22.433   8.354  0.00  0.00    +0.072 C 
ATOM      9  C   LIG    1       27.610 -21.473   7.579  0.00  0.00    -0.038 A 
ATOM     10  C   LIG    1       28.975 -21.444   7.936  0.00  0.00    +0.004 A 
ATOM     11  C   LIG    1       29.861 -20.556   7.335  0.00  0.00    +0.000 A 
ATOM     12  C   LIG    1       29.402 -19.694   6.351  0.00  0.00    +0.000 A 
ATOM     13  C   LIG    1       28.052 -19.706   5.983  0.00  0.00    +0.006 A 
ATOM     14  C   LIG    1       25.913 -24.568   7.259  0.00  0.00    +0.006 A 
ATOM     15  C   LIG    1       25.031 -25.251   6.433  0.00  0.00    +0.000 A 
ATOM     16  C   LIG    1       23.976 -24.559   5.842  0.00  0.00    +0.002 A 
ATOM     17  C   LIG    1       23.812 -23.196   6.094  0.00  0.00    +0.023 A 
ATOM     18  C   LIG    1       23.368 -20.400   7.109  0.00  0.00    +0.121 C 
ATOM     19  C   LIG    1       27.119 -20.574   6.597  0.00  0.00    -0.022 A 
ATOM     20  C   LIG    1       22.808 -20.138   5.693  0.00  0.00    +0.103 C 
ENDROOT
TORSDOF 0
ENDMDL
MODEL 2
REMARK VINA RESULT:      -9.0      1.587      4.876
REMARK  Name = *****
REMARK                            x       y       z     vdW  Elec       q    Type
REMARK                         _______ _______ _______ _____ _____    ______ ____
ROOT
ATOM      1  C   LIG    1       28.543 -20.380   7.314  0.00  0.00    +0.105 C 
ATOM      2  N   LIG    1       27.127 -20.685   7.243  0.00  0.00    -0.302 NA
ATOM      3  C   LIG    1       26.793 -21.955   6.543  0.00  0.00    +0.111 C 
ATOM      4  C   LIG    1       25.816 -22.932   7.289  0.00  0.00    +0.118 C 
ATOM      5  N   LIG    1       24.713 -22.143   7.899  0.00  0.00    -0.320 N 
ATOM      6  C   LIG    1       23.842 -21.589   6.946  0.00  0.00    +0.034 A 
ATOM      7  C   LIG    1       22.898 -22.457   6.361  0.00  0.00    -0.022 A 
ATOM      8  C   LIG    1       22.851 -23.880   6.845  0.00  0.00    +0.072 C 
ATOM      9  C   LIG    1       24.065 -24.696   6.447  0.00  0.00    -0.038 A 
ATOM     10  C   LIG    1       23.819 -26.006   5.986  0.00  0.00    +0.004 A 
ATOM     11  C   LIG    1       24.862 -26.865   5.655  0.00  0.00    +0.000 A 
ATOM     12  C   LIG    1       26.171 -26.422   5.762  0.00  0.00    +0.000 A 
ATOM     13  C   LIG    1       26.437 -25.127   6.219  0.00  0.00    +0.006 A 
ATOM     14  C   LIG    1       22.042 -22.003   5.346  0.00  0.00    +0.006 A 
ATOM     15  C   LIG    1       22.117 -20.696   4.885  0.00  0.00    +0.000 A 
ATOM     16  C   LIG    1       23.047 -19.825   5.452  0.00  0.00    +0.002 A 
ATOM     17  C   LIG    1       23.880 -20.273   6.479  0.00  0.00    +0.023 A 
ATOM     18  C   LIG    1       25.253 -21.281   8.957  0.00  0.00    +0.121 C 
ATOM     19  C   LIG    1       25.401 -24.240   6.594  0.00  0.00    -0.022 A 
ATOM     20  C   LIG    1       26.417 -20.375   8.497  0.00  0.00    +0.103 C 
ENDROOT
TORSDOF 0
ENDMDL
MODEL 3
REMARK VINA RESULT:      -6.6      7.080      9.546
REMARK  Name = *****
REMARK                            x       y       z     vdW  Elec       q    Type
REMARK                         _______ _______ _______ _____ _____    ______ ____
ROOT
ATOM      1  C   LIG    1       21.377 -32.286   9.883  0.00  0.00    +0.105 C 
ATOM      2  N   LIG    1       22.522 -31.578   9.344  0.00  0.00    -0.302 NA
ATOM      3  C   LIG    1       23.002 -30.439  10.172  0.00  0.00    +0.111 C 
ATOM      4  C   LIG    1       24.541 -30.394  10.482  0.00  0.00    +0.118 C 
ATOM      5  N   LIG    1       25.294 -30.746   9.248  0.00  0.00    -0.320 N 
ATOM      6  C   LIG    1       25.205 -29.761   8.251  0.00  0.00    +0.034 A 
ATOM      7  C   LIG    1       26.006 -28.612   8.413  0.00  0.00    -0.022 A 
ATOM      8  C   LIG    1       26.935 -28.559   9.593  0.00  0.00    +0.072 C 
ATOM      9  C   LIG    1       26.219 -28.426  10.923  0.00  0.00    -0.038 A 
ATOM     10  C   LIG    1       26.771 -27.513  11.846  0.00  0.00    +0.004 A 
ATOM     11  C   LIG    1       26.234 -27.357  13.120  0.00  0.00    +0.000 A 
ATOM     12  C   LIG    1       25.121 -28.098  13.487  0.00  0.00    +0.000 A 
ATOM     13  C   LIG    1       24.558 -29.009  12.586  0.00  0.00    +0.006 A 
ATOM     14  C   LIG    1       25.921 -27.548   7.503  0.00  0.00    +0.006 A 
ATOM     15  C   LIG    1       25.036 -27.595   6.434  0.00  0.00    +0.000 A 
ATOM     16  C   LIG    1       24.235 -28.722   6.262  0.00  0.00    +0.002 A 
ATOM     17  C   LIG    1       24.340 -29.791   7.154  0.00  0.00    +0.023 A 
ATOM     18  C   LIG    1       25.029 -32.145   8.894  0.00  0.00    +0.121 C 
ATOM     19  C   LIG    1       25.100 -29.215  11.296  0.00  0.00    -0.022 A 
ATOM     20  C   LIG    1       23.527 -32.487   8.764  0.00  0.00    +0.103 C 
ENDROOT
TORSDOF 0
ENDMDL
