MODEL 1
REMARK VINA RESULT:      26.3      0.000      0.000
REMARK  Name = *****
REMARK                            x       y       z     vdW  Elec       q    Type
REMARK                         _______ _______ _______ _____ _____    ______ ____
ROOT
ATOM      1  O   LIG    1       25.317 -16.420   3.053  0.00  0.00    -0.340 OA
ENDROOT
BRANCH   1   3
ATOM      2  C   LIG    1       26.142 -13.975   3.406  0.00  0.00    +0.178 C 
ATOM      3  C   LIG    1       26.181 -15.489   3.724  0.00  0.00    +0.184 C 
ATOM      4  C   LIG    1       27.569 -15.898   4.253  0.00  0.00    +0.183 C 
ATOM      5  C   LIG    1       27.825 -15.174   5.562  0.00  0.00    +0.205 C 
ATOM      6  C   LIG    1       27.832 -13.612   5.163  0.00  0.00    +0.282 C 
ATOM      7  O   LIG    1       27.343 -13.314   3.833  0.00  0.00    -0.341 OA
BRANCH   4   8
ATOM      8  O   LIG    1       28.607 -15.463   3.374  0.00  0.00    -0.369 OA
BRANCH   8   9
ATOM      9  C   LIG    1       29.368 -14.275   3.497  0.00  0.00    +0.191 C 
BRANCH   9  10
ATOM     10  C   LIG    1       28.986 -12.781   3.472  0.00  0.00    +0.137 C 
ATOM     11  C   LIG    1       29.126 -11.907   2.262  0.00  0.00    +0.040 C 
BRANCH  10  12
ATOM     12  O   LIG    1       29.470 -12.100   4.640  0.00  0.00    -0.390 OA
ATOM     13  H   LIG    1       28.658 -11.811   5.132  0.00  0.00    +0.210 HD
ENDBRANCH  10  12
ENDBRANCH   9  10
ENDBRANCH   8   9
ENDBRANCH   4   8
BRANCH   6  14
ATOM     14  O   LIG    1       27.124 -12.794   6.108  0.00  0.00    -0.346 OA
BRANCH  14  15
ATOM     15  C   LIG    1       25.815 -13.312   6.441  0.00  0.00    +0.194 C 
BRANCH  15  16
ATOM     16  C   LIG    1       24.674 -12.931   5.465  0.00  0.00    +0.137 C 
ATOM     17  C   LIG    1       23.415 -12.512   6.224  0.00  0.00    +0.040 C 
BRANCH  16  18
ATOM     18  O   LIG    1       24.332 -14.009   4.597  0.00  0.00    -0.390 OA
ATOM     19  H   LIG    1       25.088 -14.223   4.010  0.00  0.00    +0.210 HD
ENDBRANCH  16  18
ENDBRANCH  15  16
ENDBRANCH  14  15
ENDBRANCH   6  14
BRANCH   2  20
ATOM     20  C   LIG    1       25.843 -13.481   1.985  0.00  0.00    +0.194 C 
BRANCH  20  21
ATOM     21  O   LIG    1       25.853 -12.064   1.817  0.00  0.00    -0.375 OA
BRANCH  21  22
ATOM     22  C   LIG    1       24.554 -11.459   1.943  0.00  0.00    +0.190 C 
BRANCH  22  24
ATOM     23  C   LIG    1       22.586 -12.108   3.185  0.00  0.00    +0.040 C 
ATOM     24  C   LIG    1       23.397 -12.469   1.974  0.00  0.00    +0.137 C 
BRANCH  24  25
ATOM     25  O   LIG    1       23.794 -13.815   2.074  0.00  0.00    -0.390 OA
ATOM     26  H   LIG    1       22.948 -14.327   2.044  0.00  0.00    +0.210 HD
ENDBRANCH  24  25
ENDBRANCH  22  24
ENDBRANCH  21  22
ENDBRANCH  20  21
ENDBRANCH   2  20
BRANCH   5  27
ATOM     27  O   LIG    1       29.061 -15.711   6.119  0.00  0.00    -0.366 OA
BRANCH  27  28
ATOM     28  C   LIG    1       29.031 -16.865   7.055  0.00  0.00    +0.191 C 
BRANCH  28  29
ATOM     29  C   LIG    1       29.380 -18.364   6.533  0.00  0.00    +0.137 C 
ATOM     30  C   LIG    1       29.458 -18.674   5.060  0.00  0.00    +0.040 C 
BRANCH  29  31
ATOM     31  O   LIG    1       28.472 -19.410   6.948  0.00  0.00    -0.390 OA
ATOM     32  H   LIG    1       27.631 -19.259   6.445  0.00  0.00    +0.210 HD
ENDBRANCH  29  31
ENDBRANCH  28  29
ENDBRANCH  27  28
ENDBRANCH   5  27
ENDBRANCH   1   3
BRANCH   1  33
ATOM     33  C   LIG    1       25.012 -17.799   3.352  0.00  0.00    +0.282 C 
ATOM     34  C   LIG    1       24.543 -18.624   2.123  0.00  0.00    +0.205 C 
ATOM     35  C   LIG    1       23.025 -19.012   2.134  0.00  0.00    +0.183 C 
ATOM     36  C   LIG    1       22.580 -19.590   3.472  0.00  0.00    +0.181 C 
ATOM     37  C   LIG    1       23.249 -18.909   4.696  0.00  0.00    +0.178 C 
ATOM     38  O   LIG    1       23.973 -17.708   4.350  0.00  0.00    -0.341 OA
BRANCH  34  39
ATOM     39  O   LIG    1       25.318 -19.863   1.906  0.00  0.00    -0.366 OA
BRANCH  39  40
ATOM     40  C   LIG    1       26.514 -19.934   2.701  0.00  0.00    +0.191 C 
BRANCH  40  41
ATOM     41  C   LIG    1       26.354 -20.271   4.237  0.00  0.00    +0.137 C 
ATOM     42  C   LIG    1       26.089 -19.011   5.012  0.00  0.00    +0.040 C 
BRANCH  41  43
ATOM     43  O   LIG    1       27.550 -20.779   4.910  0.00  0.00    -0.390 OA
ATOM     44  H   LIG    1       28.285 -20.301   4.720  0.00  0.00    +0.210 HD
ENDBRANCH  41  43
ENDBRANCH  40  41
ENDBRANCH  39  40
ENDBRANCH  34  39
BRANCH  37  45
ATOM     45  C   LIG    1       22.173 -18.414   5.733  0.00  0.00    +0.194 C 
BRANCH  45  46
ATOM     46  O   LIG    1       22.481 -17.189   6.414  0.00  0.00    -0.375 OA
BRANCH  46  47
ATOM     47  C   LIG    1       23.158 -16.199   5.618  0.00  0.00    +0.190 C 
BRANCH  47  48
ATOM     48  C   LIG    1       22.172 -15.158   5.072  0.00  0.00    +0.137 C 
ATOM     49  C   LIG    1       21.082 -14.786   6.083  0.00  0.00    +0.040 C 
BRANCH  48  50
ATOM     50  O   LIG    1       21.540 -15.653   3.894  0.00  0.00    -0.390 OA
ATOM     51  H   LIG    1       21.934 -16.522   3.719  0.00  0.00    +0.210 HD
ENDBRANCH  48  50
ENDBRANCH  47  48
ENDBRANCH  46  47
ENDBRANCH  45  46
ENDBRANCH  37  45
BRANCH  35  52
ATOM     52  O   LIG    1       22.096 -17.953   1.820  0.00  0.00    -0.369 OA
BRANCH  52  53
ATOM     53  C   LIG    1       20.659 -18.213   1.878  0.00  0.00    +0.191 C 
BRANCH  53  54
ATOM     54  C   LIG    1       20.087 -18.031   3.320  0.00  0.00    +0.137 C 
ATOM     55  C   LIG    1       19.368 -19.242   3.864  0.00  0.00    +0.040 C 
BRANCH  54  56
ATOM     56  O   LIG    1       19.352 -16.819   3.349  0.00  0.00    -0.390 OA
ATOM     57  H   LIG    1       20.020 -16.168   3.031  0.00  0.00    +0.210 HD
ENDBRANCH  54  56
ENDBRANCH  53  54
ENDBRANCH  52  53
ENDBRANCH  35  52
BRANCH  36  58
ATOM     58  O   LIG    1       22.533 -21.038   3.525  0.00  0.00    -0.369 OA
BRANCH  58  59
ATOM     59  C   LIG    1       22.099 -21.569   4.807  0.00  0.00    +0.191 C 
BRANCH  59  60
ATOM     60  C   LIG    1       23.204 -21.552   5.877  0.00  0.00    +0.137 C 
ATOM     61  C   LIG    1       22.957 -20.567   7.008  0.00  0.00    +0.040 C 
BRANCH  60  62
ATOM     62  O   LIG    1       24.454 -21.236   5.273  0.00  0.00    -0.390 OA
ATOM     63  H   LIG    1       24.270 -20.528   4.628  0.00  0.00    +0.210 HD
ENDBRANCH  60  62
ENDBRANCH  59  60
ENDBRANCH  58  59
ENDBRANCH  36  58
ENDBRANCH   1  33
TORSDOF 36
ENDMDL
