MODEL 1
REMARK VINA RESULT:       4.9      0.000      0.000
REMARK  Name = *****
REMARK                            x       y       z     vdW  Elec       q    Type
REMARK                         _______ _______ _______ _____ _____    ______ ____
ROOT
ATOM      1  C   LIG    1       27.056 -17.491   3.857  0.00  0.00    -0.017 C 
ATOM      2  C   LIG    1       26.551 -18.399   4.734  0.00  0.00    -0.013 C 
ATOM      3  C   LIG    1       25.149 -18.876   4.645  0.00  0.00    -0.003 A 
ATOM      4  C   LIG    1       24.912 -20.260   4.564  0.00  0.00    +0.021 A 
ATOM      5  C   LIG    1       23.608 -20.730   4.362  0.00  0.00    +0.016 A 
ATOM      6  C   LIG    1       22.536 -19.838   4.270  0.00  0.00    +0.013 A 
ATOM      7  C   LIG    1       22.745 -18.463   4.425  0.00  0.00    +0.056 A 
ATOM      8  S   LIG    1       26.232 -21.465   4.709  0.00  0.00    -0.088 S 
ATOM      9  C   LIG    1       27.476 -20.536   5.610  0.00  0.00    +0.021 A 
ATOM     10  C   LIG    1       28.429 -21.251   6.347  0.00  0.00    +0.015 A 
ATOM     11  C   LIG    1       29.428 -20.578   7.055  0.00  0.00    +0.001 A 
ATOM     12  C   LIG    1       29.475 -19.187   7.040  0.00  0.00    +0.001 A 
ATOM     13  C   LIG    1       28.532 -18.465   6.308  0.00  0.00    +0.009 A 
ATOM     14  C   LIG    1       24.052 -18.000   4.649  0.00  0.00    +0.022 A 
ATOM     15  C   LIG    1       27.539 -19.130   5.569  0.00  0.00    -0.004 A 
ENDROOT
BRANCH   7  16
ATOM     16  C   LIG    1       21.608 -17.477   4.323  0.00  0.00    +0.417 C 
ATOM     17  F   LIG    1       21.424 -16.788   5.486  0.00  0.00    -0.166 F 
ATOM     18  F   LIG    1       20.416 -18.073   4.047  0.00  0.00    -0.166 F 
ATOM     19  F   LIG    1       21.788 -16.532   3.359  0.00  0.00    -0.166 F 
ENDBRANCH   7  16
BRANCH   1  20
ATOM     20  C   LIG    1       26.349 -16.766   2.743  0.00  0.00    +0.043 C 
BRANCH  20  21
ATOM     21  C   LIG    1       26.921 -15.353   2.499  0.00  0.00    +0.088 C 
BRANCH  21  25
ATOM     22  N   LIG    1       24.228 -12.541   2.583  0.00  0.00    -0.298 NA
ATOM     23  C   LIG    1       25.627 -12.358   2.128  0.00  0.00    +0.100 C 
ATOM     24  C   LIG    1       26.721 -12.978   3.045  0.00  0.00    +0.100 C 
ATOM     25  N   LIG    1       26.487 -14.368   3.507  0.00  0.00    -0.300 NA
ATOM     26  C   LIG    1       25.075 -14.515   3.916  0.00  0.00    +0.100 C 
ATOM     27  C   LIG    1       24.047 -13.970   2.902  0.00  0.00    +0.100 C 
BRANCH  22  28
ATOM     28  C   LIG    1       23.915 -11.653   3.722  0.00  0.00    +0.112 C 
BRANCH  28  29
ATOM     29  C   LIG    1       23.917 -12.361   5.090  0.00  0.00    +0.171 C 
BRANCH  29  30
ATOM     30  O   LIG    1       24.308 -11.447   6.112  0.00  0.00    -0.394 OA
ATOM     31  H   LIG    1       24.753 -10.706   5.666  0.00  0.00    +0.209 HD
ENDBRANCH  29  30
ENDBRANCH  28  29
ENDBRANCH  22  28
ENDBRANCH  21  25
ENDBRANCH  20  21
ENDBRANCH   1  20
TORSDOF 7
ENDMDL
MODEL 2
REMARK VINA RESULT:       5.6      3.113      5.378
REMARK  Name = *****
REMARK                            x       y       z     vdW  Elec       q    Type
REMARK                         _______ _______ _______ _____ _____    ______ ____
ROOT
ATOM      1  C   LIG    1       23.434 -17.551   4.373  0.00  0.00    -0.017 C 
ATOM      2  C   LIG    1       23.689 -18.873   4.567  0.00  0.00    -0.013 C 
ATOM      3  C   LIG    1       24.933 -19.340   5.229  0.00  0.00    -0.003 A 
ATOM      4  C   LIG    1       24.823 -20.185   6.348  0.00  0.00    +0.021 A 
ATOM      5  C   LIG    1       25.974 -20.546   7.060  0.00  0.00    +0.016 A 
ATOM      6  C   LIG    1       27.234 -20.098   6.652  0.00  0.00    +0.013 A 
ATOM      7  C   LIG    1       27.367 -19.320   5.496  0.00  0.00    +0.056 A 
ATOM      8  S   LIG    1       23.246 -20.828   6.909  0.00  0.00    -0.088 S 
ATOM      9  C   LIG    1       22.257 -20.722   5.414  0.00  0.00    +0.021 A 
ATOM     10  C   LIG    1       21.148 -21.570   5.294  0.00  0.00    +0.015 A 
ATOM     11  C   LIG    1       20.336 -21.519   4.159  0.00  0.00    +0.001 A 
ATOM     12  C   LIG    1       20.633 -20.628   3.131  0.00  0.00    +0.001 A 
ATOM     13  C   LIG    1       21.733 -19.778   3.240  0.00  0.00    +0.009 A 
ATOM     14  C   LIG    1       26.211 -18.980   4.774  0.00  0.00    +0.022 A 
ATOM     15  C   LIG    1       22.542 -19.799   4.389  0.00  0.00    -0.004 A 
ENDROOT
BRANCH   7  16
ATOM     16  C   LIG    1       28.713 -18.816   5.037  0.00  0.00    +0.417 C 
ATOM     17  F   LIG    1       29.473 -19.812   4.496  0.00  0.00    -0.166 F 
ATOM     18  F   LIG    1       29.452 -18.288   6.049  0.00  0.00    -0.166 F 
ATOM     19  F   LIG    1       28.638 -17.849   4.081  0.00  0.00    -0.166 F 
ENDBRANCH   7  16
BRANCH   1  20
ATOM     20  C   LIG    1       24.312 -16.369   4.685  0.00  0.00    +0.043 C 
BRANCH  20  21
ATOM     21  C   LIG    1       23.579 -15.022   4.506  0.00  0.00    +0.088 C 
BRANCH  21  25
ATOM     22  N   LIG    1       27.356 -14.091   4.321  0.00  0.00    -0.298 NA
ATOM     23  C   LIG    1       26.382 -13.491   5.264  0.00  0.00    +0.100 C 
ATOM     24  C   LIG    1       25.024 -13.054   4.644  0.00  0.00    +0.100 C 
ATOM     25  N   LIG    1       24.363 -14.031   3.744  0.00  0.00    -0.300 NA
ATOM     26  C   LIG    1       25.372 -14.630   2.849  0.00  0.00    +0.100 C 
ATOM     27  C   LIG    1       26.648 -15.135   3.556  0.00  0.00    +0.100 C 
BRANCH  22  28
ATOM     28  C   LIG    1       27.970 -13.061   3.457  0.00  0.00    +0.112 C 
BRANCH  28  29
ATOM     29  C   LIG    1       29.298 -12.499   3.996  0.00  0.00    +0.171 C 
BRANCH  29  30
ATOM     30  O   LIG    1       29.084 -11.854   5.250  0.00  0.00    -0.394 OA
ATOM     31  H   LIG    1       29.815 -12.127   5.830  0.00  0.00    +0.209 HD
ENDBRANCH  29  30
ENDBRANCH  28  29
ENDBRANCH  22  28
ENDBRANCH  21  25
ENDBRANCH  20  21
ENDBRANCH   1  20
TORSDOF 7
ENDMDL
MODEL 3
REMARK VINA RESULT:       5.8      2.846      5.379
REMARK  Name = *****
REMARK                            x       y       z     vdW  Elec       q    Type
REMARK                         _______ _______ _______ _____ _____    ______ ____
ROOT
ATOM      1  C   LIG    1       22.347 -16.814   4.729  0.00  0.00    -0.017 C 
ATOM      2  C   LIG    1       22.662 -18.088   4.372  0.00  0.00    -0.013 C 
ATOM      3  C   LIG    1       24.012 -18.657   4.614  0.00  0.00    -0.003 A 
ATOM      4  C   LIG    1       24.116 -19.858   5.338  0.00  0.00    +0.021 A 
ATOM      5  C   LIG    1       25.381 -20.354   5.679  0.00  0.00    +0.016 A 
ATOM      6  C   LIG    1       26.541 -19.683   5.282  0.00  0.00    +0.013 A 
ATOM      7  C   LIG    1       26.455 -18.528   4.496  0.00  0.00    +0.056 A 
ATOM      8  S   LIG    1       22.675 -20.794   5.850  0.00  0.00    -0.088 S 
ATOM      9  C   LIG    1       21.440 -20.235   4.673  0.00  0.00    +0.021 A 
ATOM     10  C   LIG    1       20.347 -21.072   4.414  0.00  0.00    +0.015 A 
ATOM     11  C   LIG    1       19.350 -20.679   3.518  0.00  0.00    +0.001 A 
ATOM     12  C   LIG    1       19.444 -19.453   2.866  0.00  0.00    +0.001 A 
ATOM     13  C   LIG    1       20.528 -18.610   3.117  0.00  0.00    +0.009 A 
ATOM     14  C   LIG    1       25.184 -18.047   4.139  0.00  0.00    +0.022 A 
ATOM     15  C   LIG    1       21.523 -18.981   4.037  0.00  0.00    -0.004 A 
ENDROOT
BRANCH   7  16
ATOM     16  C   LIG    1       27.688 -17.778   4.060  0.00  0.00    +0.417 C 
ATOM     17  F   LIG    1       28.800 -18.569   4.079  0.00  0.00    -0.166 F 
ATOM     18  F   LIG    1       27.971 -16.715   4.862  0.00  0.00    -0.166 F 
ATOM     19  F   LIG    1       27.610 -17.283   2.794  0.00  0.00    -0.166 F 
ENDBRANCH   7  16
BRANCH   1  20
ATOM     20  C   LIG    1       23.239 -15.757   5.324  0.00  0.00    +0.043 C 
BRANCH  20  21
ATOM     21  C   LIG    1       23.243 -14.453   4.498  0.00  0.00    +0.088 C 
BRANCH  21  25
ATOM     22  N   LIG    1       26.408 -13.308   2.538  0.00  0.00    -0.298 NA
ATOM     23  C   LIG    1       26.333 -14.519   3.390  0.00  0.00    +0.100 C 
ATOM     24  C   LIG    1       25.669 -14.323   4.783  0.00  0.00    +0.100 C 
ATOM     25  N   LIG    1       24.388 -13.575   4.806  0.00  0.00    -0.300 NA
ATOM     26  C   LIG    1       24.494 -12.400   3.917  0.00  0.00    +0.100 C 
ATOM     27  C   LIG    1       25.065 -12.697   2.515  0.00  0.00    +0.100 C 
BRANCH  22  28
ATOM     28  C   LIG    1       27.454 -12.381   3.015  0.00  0.00    +0.112 C 
BRANCH  28  29
ATOM     29  C   LIG    1       28.625 -13.072   3.738  0.00  0.00    +0.171 C 
BRANCH  29  30
ATOM     30  O   LIG    1       29.148 -12.217   4.752  0.00  0.00    -0.394 OA
ATOM     31  H   LIG    1       30.113 -12.342   4.749  0.00  0.00    +0.209 HD
ENDBRANCH  29  30
ENDBRANCH  28  29
ENDBRANCH  22  28
ENDBRANCH  21  25
ENDBRANCH  20  21
ENDBRANCH   1  20
TORSDOF 7
ENDMDL
MODEL 4
REMARK VINA RESULT:       7.6      4.020      7.114
REMARK  Name = *****
REMARK                            x       y       z     vdW  Elec       q    Type
REMARK                         _______ _______ _______ _____ _____    ______ ____
ROOT
ATOM      1  C   LIG    1       25.324 -17.558   2.695  0.00  0.00    -0.017 C 
ATOM      2  C   LIG    1       25.872 -16.815   3.694  0.00  0.00    -0.013 C 
ATOM      3  C   LIG    1       27.071 -17.272   4.441  0.00  0.00    -0.003 A 
ATOM      4  C   LIG    1       28.190 -16.424   4.502  0.00  0.00    +0.021 A 
ATOM      5  C   LIG    1       29.372 -16.878   5.102  0.00  0.00    +0.016 A 
ATOM      6  C   LIG    1       29.441 -18.155   5.664  0.00  0.00    +0.013 A 
ATOM      7  C   LIG    1       28.312 -18.982   5.679  0.00  0.00    +0.056 A 
ATOM      8  S   LIG    1       28.166 -14.760   3.835  0.00  0.00    -0.088 S 
ATOM      9  C   LIG    1       26.409 -14.390   3.841  0.00  0.00    +0.021 A 
ATOM     10  C   LIG    1       26.017 -13.045   3.871  0.00  0.00    +0.015 A 
ATOM     11  C   LIG    1       24.664 -12.701   3.863  0.00  0.00    +0.001 A 
ATOM     12  C   LIG    1       23.692 -13.699   3.836  0.00  0.00    +0.001 A 
ATOM     13  C   LIG    1       24.071 -15.041   3.803  0.00  0.00    +0.009 A 
ATOM     14  C   LIG    1       27.123 -18.513   5.096  0.00  0.00    +0.022 A 
ATOM     15  C   LIG    1       25.429 -15.400   3.783  0.00  0.00    -0.004 A 
ENDROOT
BRANCH   7  16
ATOM     16  C   LIG    1       28.358 -20.368   6.272  0.00  0.00    +0.417 C 
ATOM     17  F   LIG    1       27.275 -20.622   7.062  0.00  0.00    -0.166 F 
ATOM     18  F   LIG    1       29.451 -20.569   7.058  0.00  0.00    -0.166 F 
ATOM     19  F   LIG    1       28.377 -21.362   5.342  0.00  0.00    -0.166 F 
ENDBRANCH   7  16
BRANCH   1  20
ATOM     20  C   LIG    1       25.723 -18.928   2.216  0.00  0.00    +0.043 C 
BRANCH  20  21
ATOM     21  C   LIG    1       26.004 -19.904   3.379  0.00  0.00    +0.088 C 
BRANCH  21  25
ATOM     22  N   LIG    1       22.913 -20.142   5.735  0.00  0.00    -0.298 NA
ATOM     23  C   LIG    1       24.267 -20.649   6.062  0.00  0.00    +0.100 C 
ATOM     24  C   LIG    1       24.968 -21.471   4.944  0.00  0.00    +0.100 C 
ATOM     25  N   LIG    1       24.931 -20.896   3.577  0.00  0.00    -0.300 NA
ATOM     26  C   LIG    1       23.577 -20.371   3.306  0.00  0.00    +0.100 C 
ATOM     27  C   LIG    1       22.993 -19.477   4.421  0.00  0.00    +0.100 C 
BRANCH  22  28
ATOM     28  C   LIG    1       21.911 -21.228   5.769  0.00  0.00    +0.112 C 
BRANCH  28  29
ATOM     29  C   LIG    1       21.038 -21.318   4.504  0.00  0.00    +0.171 C 
BRANCH  29  30
ATOM     30  O   LIG    1       20.485 -20.040   4.199  0.00  0.00    -0.394 OA
ATOM     31  H   LIG    1       21.191 -19.529   3.767  0.00  0.00    +0.209 HD
ENDBRANCH  29  30
ENDBRANCH  28  29
ENDBRANCH  22  28
ENDBRANCH  21  25
ENDBRANCH  20  21
ENDBRANCH   1  20
TORSDOF 7
ENDMDL
