MODEL 1
REMARK VINA RESULT:      -2.4      0.000      0.000
REMARK  Name = *****
REMARK                            x       y       z     vdW  Elec       q    Type
REMARK                         _______ _______ _______ _____ _____    ______ ____
ROOT
ATOM      1  C   LIG    1       26.890 -17.500   4.043  0.00  0.00    +0.265 C 
ATOM      2  N   LIG    1       25.696 -18.091   3.686  0.00  0.00    -0.307 N 
ATOM      3  H   LIG    1       24.946 -17.431   3.494  0.00  0.00    +0.149 HD
ATOM      4  O   LIG    1       27.870 -18.130   4.421  0.00  0.00    -0.268 OA
ENDROOT
BRANCH   1  12
ATOM      5  C   LIG    1       28.558 -12.983   3.607  0.00  0.00    +0.173 C 
ATOM      6  N   LIG    1       27.577 -14.030   3.769  0.00  0.00    -0.266 N 
ATOM      7  C   LIG    1       26.214 -13.888   3.755  0.00  0.00    +0.069 A 
ATOM      8  C   LIG    1       25.714 -15.186   3.829  0.00  0.00    +0.032 A 
ATOM      9  C   LIG    1       24.318 -15.379   3.802  0.00  0.00    +0.012 A 
ATOM     10  C   LIG    1       23.473 -14.267   3.718  0.00  0.00    +0.001 A 
ATOM     11  C   LIG    1       23.997 -12.978   3.658  0.00  0.00    +0.002 A 
ATOM     12  C   LIG    1       26.863 -16.027   3.928  0.00  0.00    +0.155 A 
ATOM     13  C   LIG    1       25.379 -12.761   3.673  0.00  0.00    +0.028 A 
ATOM     14  N   LIG    1       28.003 -15.301   3.916  0.00  0.00    -0.166 NA
ENDBRANCH   1  12
BRANCH   2  15
ATOM     15  C   LIG    1       25.455 -19.528   3.689  0.00  0.00    +0.076 C 
ATOM     16  C   LIG    1       24.365 -19.976   2.699  0.00  0.00    +0.041 C 
ATOM     17  C   LIG    1       22.954 -20.171   3.284  0.00  0.00    +0.058 C 
ATOM     18  N   LIG    1       23.070 -21.005   4.489  0.00  0.00    -0.299 NA
ATOM     19  C   LIG    1       23.764 -20.256   5.542  0.00  0.00    +0.058 C 
ATOM     20  C   LIG    1       23.044 -18.950   5.924  0.00  0.00    +0.019 C 
ATOM     21  C   LIG    1       22.641 -18.069   4.746  0.00  0.00    +0.003 C 
ATOM     22  C   LIG    1       21.796 -21.572   4.924  0.00  0.00    +0.105 C 
ATOM     23  C   LIG    1       22.186 -18.862   3.527  0.00  0.00    +0.019 C 
ATOM     24  C   LIG    1       25.232 -20.066   5.111  0.00  0.00    +0.041 C 
ENDBRANCH   2  15
TORSDOF 2
ENDMDL
MODEL 2
REMARK VINA RESULT:      -1.7      1.625      6.244
REMARK  Name = *****
REMARK                            x       y       z     vdW  Elec       q    Type
REMARK                         _______ _______ _______ _____ _____    ______ ____
ROOT
ATOM      1  C   LIG    1       26.187 -17.623   3.370  0.00  0.00    +0.265 C 
ATOM      2  N   LIG    1       26.225 -16.437   4.074  0.00  0.00    -0.307 N 
ATOM      3  H   LIG    1       25.814 -16.491   5.003  0.00  0.00    +0.149 HD
ATOM      4  O   LIG    1       26.527 -17.725   2.198  0.00  0.00    -0.268 OA
ENDROOT
BRANCH   1  12
ATOM      5  C   LIG    1       26.291 -21.401   6.386  0.00  0.00    +0.173 C 
ATOM      6  N   LIG    1       25.714 -20.440   5.474  0.00  0.00    -0.266 N 
ATOM      7  C   LIG    1       24.385 -20.279   5.183  0.00  0.00    +0.069 A 
ATOM      8  C   LIG    1       24.329 -19.162   4.354  0.00  0.00    +0.032 A 
ATOM      9  C   LIG    1       23.072 -18.714   3.902  0.00  0.00    +0.012 A 
ATOM     10  C   LIG    1       21.918 -19.408   4.282  0.00  0.00    +0.001 A 
ATOM     11  C   LIG    1       22.001 -20.531   5.102  0.00  0.00    +0.002 A 
ATOM     12  C   LIG    1       25.686 -18.756   4.176  0.00  0.00    +0.155 A 
ATOM     13  C   LIG    1       23.237 -20.988   5.573  0.00  0.00    +0.028 A 
ATOM     14  N   LIG    1       26.531 -19.567   4.850  0.00  0.00    -0.166 NA
ENDBRANCH   1  12
BRANCH   2  15
ATOM     15  C   LIG    1       26.694 -15.170   3.527  0.00  0.00    +0.076 C 
ATOM     16  C   LIG    1       26.784 -14.042   4.569  0.00  0.00    +0.041 C 
ATOM     17  C   LIG    1       25.584 -13.078   4.634  0.00  0.00    +0.058 C 
ATOM     18  N   LIG    1       25.284 -12.630   3.267  0.00  0.00    -0.299 NA
ATOM     19  C   LIG    1       24.763 -13.755   2.483  0.00  0.00    +0.058 C 
ATOM     20  C   LIG    1       23.484 -14.366   3.084  0.00  0.00    +0.019 C 
ATOM     21  C   LIG    1       23.560 -14.676   4.575  0.00  0.00    +0.003 C 
ATOM     22  C   LIG    1       24.428 -11.447   3.221  0.00  0.00    +0.105 C 
ATOM     23  C   LIG    1       24.358 -13.647   5.367  0.00  0.00    +0.019 C 
ATOM     24  C   LIG    1       25.907 -14.766   2.271  0.00  0.00    +0.041 C 
ENDBRANCH   2  15
TORSDOF 2
ENDMDL
MODEL 3
REMARK VINA RESULT:      -1.6      2.134      6.886
REMARK  Name = *****
REMARK                            x       y       z     vdW  Elec       q    Type
REMARK                         _______ _______ _______ _____ _____    ______ ____
ROOT
ATOM      1  C   LIG    1       22.934 -15.810   4.736  0.00  0.00    +0.265 C 
ATOM      2  N   LIG    1       23.947 -15.228   4.003  0.00  0.00    -0.307 N 
ATOM      3  H   LIG    1       24.482 -15.883   3.437  0.00  0.00    +0.149 HD
ATOM      4  O   LIG    1       22.260 -15.205   5.559  0.00  0.00    -0.268 OA
ENDROOT
BRANCH   1  12
ATOM      5  C   LIG    1       20.644 -20.012   4.037  0.00  0.00    +0.173 C 
ATOM      6  N   LIG    1       21.767 -19.109   4.148  0.00  0.00    -0.266 N 
ATOM      7  C   LIG    1       23.078 -19.389   3.862  0.00  0.00    +0.069 A 
ATOM      8  C   LIG    1       23.747 -18.177   4.009  0.00  0.00    +0.032 A 
ATOM      9  C   LIG    1       25.131 -18.128   3.747  0.00  0.00    +0.012 A 
ATOM     10  C   LIG    1       25.798 -19.297   3.365  0.00  0.00    +0.001 A 
ATOM     11  C   LIG    1       25.109 -20.501   3.237  0.00  0.00    +0.002 A 
ATOM     12  C   LIG    1       22.750 -17.244   4.428  0.00  0.00    +0.155 A 
ATOM     13  C   LIG    1       23.733 -20.572   3.481  0.00  0.00    +0.028 A 
ATOM     14  N   LIG    1       21.541 -17.837   4.534  0.00  0.00    -0.166 NA
ENDBRANCH   1  12
BRANCH   2  15
ATOM     15  C   LIG    1       24.327 -13.824   4.095  0.00  0.00    +0.076 C 
ATOM     16  C   LIG    1       24.855 -13.237   2.775  0.00  0.00    +0.041 C 
ATOM     17  C   LIG    1       26.386 -13.197   2.611  0.00  0.00    +0.058 C 
ATOM     18  N   LIG    1       26.959 -12.596   3.824  0.00  0.00    -0.299 NA
ATOM     19  C   LIG    1       26.771 -13.504   4.961  0.00  0.00    +0.058 C 
ATOM     20  C   LIG    1       27.427 -14.880   4.747  0.00  0.00    +0.019 C 
ATOM     21  C   LIG    1       27.111 -15.541   3.409  0.00  0.00    +0.003 C 
ATOM     22  C   LIG    1       28.343 -12.160   3.654  0.00  0.00    +0.105 C 
ATOM     23  C   LIG    1       27.017 -14.553   2.253  0.00  0.00    +0.019 C 
ATOM     24  C   LIG    1       25.265 -13.564   5.285  0.00  0.00    +0.041 C 
ENDBRANCH   2  15
TORSDOF 2
ENDMDL
MODEL 4
REMARK VINA RESULT:      -1.4      1.726      6.690
REMARK  Name = *****
REMARK                            x       y       z     vdW  Elec       q    Type
REMARK                         _______ _______ _______ _____ _____    ______ ____
ROOT
ATOM      1  C   LIG    1       26.088 -17.726   3.320  0.00  0.00    +0.265 C 
ATOM      2  N   LIG    1       26.210 -16.544   4.020  0.00  0.00    -0.307 N 
ATOM      3  H   LIG    1       25.788 -16.562   4.945  0.00  0.00    +0.149 HD
ATOM      4  O   LIG    1       26.430 -17.858   2.152  0.00  0.00    -0.268 OA
ENDROOT
BRANCH   1  12
ATOM      5  C   LIG    1       22.752 -20.824   4.948  0.00  0.00    +0.173 C 
ATOM      6  N   LIG    1       24.035 -20.164   4.878  0.00  0.00    -0.266 N 
ATOM      7  C   LIG    1       25.172 -20.504   5.564  0.00  0.00    +0.069 A 
ATOM      8  C   LIG    1       26.160 -19.654   5.071  0.00  0.00    +0.032 A 
ATOM      9  C   LIG    1       27.474 -19.781   5.563  0.00  0.00    +0.012 A 
ATOM     10  C   LIG    1       27.749 -20.742   6.543  0.00  0.00    +0.001 A 
ATOM     11  C   LIG    1       26.742 -21.571   7.029  0.00  0.00    +0.002 A 
ATOM     12  C   LIG    1       25.496 -18.815   4.125  0.00  0.00    +0.155 A 
ATOM     13  C   LIG    1       25.433 -21.472   6.548  0.00  0.00    +0.028 A 
ATOM     14  N   LIG    1       24.183 -19.122   4.035  0.00  0.00    -0.166 NA
ENDBRANCH   1  12
BRANCH   2  15
ATOM     15  C   LIG    1       26.779 -15.318   3.474  0.00  0.00    +0.076 C 
ATOM     16  C   LIG    1       26.928 -14.189   4.508  0.00  0.00    +0.041 C 
ATOM     17  C   LIG    1       25.797 -13.142   4.541  0.00  0.00    +0.058 C 
ATOM     18  N   LIG    1       25.557 -12.687   3.164  0.00  0.00    -0.299 NA
ATOM     19  C   LIG    1       24.975 -13.780   2.378  0.00  0.00    +0.058 C 
ATOM     20  C   LIG    1       23.644 -14.293   2.956  0.00  0.00    +0.019 C 
ATOM     21  C   LIG    1       23.667 -14.594   4.452  0.00  0.00    +0.003 C 
ATOM     22  C   LIG    1       24.789 -11.447   3.091  0.00  0.00    +0.105 C 
ATOM     23  C   LIG    1       24.520 -13.617   5.252  0.00  0.00    +0.019 C 
ATOM     24  C   LIG    1       26.049 -14.871   2.198  0.00  0.00    +0.041 C 
ENDBRANCH   2  15
TORSDOF 2
ENDMDL
MODEL 5
REMARK VINA RESULT:      -0.2      1.220      2.276
REMARK  Name = *****
REMARK                            x       y       z     vdW  Elec       q    Type
REMARK                         _______ _______ _______ _____ _____    ______ ____
ROOT
ATOM      1  C   LIG    1       26.410 -17.113   3.631  0.00  0.00    +0.265 C 
ATOM      2  N   LIG    1       25.292 -17.876   3.369  0.00  0.00    -0.307 N 
ATOM      3  H   LIG    1       24.473 -17.337   3.098  0.00  0.00    +0.149 HD
ATOM      4  O   LIG    1       27.452 -17.571   4.080  0.00  0.00    -0.268 OA
ENDROOT
BRANCH   1  12
ATOM      5  C   LIG    1       24.158 -13.070   2.228  0.00  0.00    +0.173 C 
ATOM      6  N   LIG    1       25.255 -13.896   2.675  0.00  0.00    -0.266 N 
ATOM      7  C   LIG    1       26.502 -13.473   3.053  0.00  0.00    +0.069 A 
ATOM      8  C   LIG    1       27.151 -14.618   3.509  0.00  0.00    +0.032 A 
ATOM      9  C   LIG    1       28.464 -14.502   4.006  0.00  0.00    +0.012 A 
ATOM     10  C   LIG    1       29.088 -13.249   4.014  0.00  0.00    +0.001 A 
ATOM     11  C   LIG    1       28.423 -12.121   3.540  0.00  0.00    +0.002 A 
ATOM     12  C   LIG    1       26.217 -15.681   3.320  0.00  0.00    +0.155 A 
ATOM     13  C   LIG    1       27.114 -12.208   3.052  0.00  0.00    +0.028 A 
ATOM     14  N   LIG    1       25.063 -15.228   2.781  0.00  0.00    -0.166 NA
ENDBRANCH   1  12
BRANCH   2  15
ATOM     15  C   LIG    1       25.215 -19.318   3.567  0.00  0.00    +0.076 C 
ATOM     16  C   LIG    1       24.165 -20.010   2.680  0.00  0.00    +0.041 C 
ATOM     17  C   LIG    1       22.795 -20.280   3.332  0.00  0.00    +0.058 C 
ATOM     18  N   LIG    1       23.027 -20.927   4.630  0.00  0.00    -0.299 NA
ATOM     19  C   LIG    1       23.651 -19.973   5.553  0.00  0.00    +0.058 C 
ATOM     20  C   LIG    1       22.795 -18.715   5.786  0.00  0.00    +0.019 C 
ATOM     21  C   LIG    1       22.273 -18.048   4.517  0.00  0.00    +0.003 C 
ATOM     22  C   LIG    1       21.833 -21.568   5.178  0.00  0.00    +0.105 C 
ATOM     23  C   LIG    1       21.889 -19.041   3.427  0.00  0.00    +0.019 C 
ATOM     24  C   LIG    1       25.079 -19.683   5.054  0.00  0.00    +0.041 C 
ENDBRANCH   2  15
TORSDOF 2
ENDMDL
MODEL 6
REMARK VINA RESULT:       0.1      1.945      6.527
REMARK  Name = *****
REMARK                            x       y       z     vdW  Elec       q    Type
REMARK                         _______ _______ _______ _____ _____    ______ ____
ROOT
ATOM      1  C   LIG    1       25.706 -18.097   3.388  0.00  0.00    +0.265 C 
ATOM      2  N   LIG    1       25.418 -16.825   3.836  0.00  0.00    -0.307 N 
ATOM      3  H   LIG    1       25.347 -16.745   4.848  0.00  0.00    +0.149 HD
ATOM      4  O   LIG    1       25.717 -18.411   2.205  0.00  0.00    -0.268 OA
ENDROOT
BRANCH   1  12
ATOM      5  C   LIG    1       28.291 -20.575   6.637  0.00  0.00    +0.173 C 
ATOM      6  N   LIG    1       27.118 -20.168   5.900  0.00  0.00    -0.266 N 
ATOM      7  C   LIG    1       25.823 -20.543   6.144  0.00  0.00    +0.069 A 
ATOM      8  C   LIG    1       25.056 -19.800   5.250  0.00  0.00    +0.032 A 
ATOM      9  C   LIG    1       23.654 -19.940   5.277  0.00  0.00    +0.012 A 
ATOM     10  C   LIG    1       23.071 -20.830   6.186  0.00  0.00    +0.001 A 
ATOM     11  C   LIG    1       23.860 -21.571   7.061  0.00  0.00    +0.002 A 
ATOM     12  C   LIG    1       25.996 -19.044   4.486  0.00  0.00    +0.155 A 
ATOM     13  C   LIG    1       25.253 -21.441   7.061  0.00  0.00    +0.028 A 
ATOM     14  N   LIG    1       27.263 -19.299   4.879  0.00  0.00    -0.166 NA
ENDBRANCH   1  12
BRANCH   2  15
ATOM     15  C   LIG    1       25.115 -15.695   2.967  0.00  0.00    +0.076 C 
ATOM     16  C   LIG    1       26.313 -15.222   2.125  0.00  0.00    +0.041 C 
ATOM     17  C   LIG    1       27.109 -14.027   2.685  0.00  0.00    +0.058 C 
ATOM     18  N   LIG    1       26.153 -12.970   3.043  0.00  0.00    -0.299 NA
ATOM     19  C   LIG    1       25.349 -13.400   4.192  0.00  0.00    +0.058 C 
ATOM     20  C   LIG    1       26.201 -13.723   5.433  0.00  0.00    +0.019 C 
ATOM     21  C   LIG    1       27.392 -14.641   5.174  0.00  0.00    +0.003 C 
ATOM     22  C   LIG    1       26.780 -11.664   3.230  0.00  0.00    +0.105 C 
ATOM     23  C   LIG    1       28.067 -14.390   3.831  0.00  0.00    +0.019 C 
ATOM     24  C   LIG    1       24.433 -14.552   3.736  0.00  0.00    +0.041 C 
ENDBRANCH   2  15
TORSDOF 2
ENDMDL
