MODEL 1
REMARK VINA RESULT:      -5.7      0.000      0.000
REMARK  Name = *****
REMARK                            x       y       z     vdW  Elec       q    Type
REMARK                         _______ _______ _______ _____ _____    ______ ____
ROOT
ATOM      1  C   LIG    1       30.387 -19.472   7.546  0.00  0.00    +0.077 A 
ATOM      2  C   LIG    1       30.029 -18.648   6.487  0.00  0.00    +0.125 A 
ATOM      3  N   LIG    1       28.980 -18.888   5.660  0.00  0.00    -0.262 NA
ATOM      4  C   LIG    1       28.256 -20.001   5.905  0.00  0.00    +0.111 A 
ATOM      5  C   LIG    1       28.534 -20.889   6.933  0.00  0.00    +0.020 A 
ATOM      6  C   LIG    1       29.617 -20.618   7.767  0.00  0.00    +0.018 A 
ENDROOT
BRANCH   1   7
ATOM      7  C   LIG    1       31.544 -19.083   8.386  0.00  0.00    +0.340 C 
ATOM      8  O   LIG    1       32.051 -19.818   9.215  0.00  0.00    -0.245 OA
BRANCH   7  10
ATOM      9  C   LIG    1       32.134 -16.966   9.209  0.00  0.00    +0.280 C 
ATOM     10  O   LIG    1       31.938 -17.822   8.081  0.00  0.00    -0.464 OA
ENDBRANCH   7  10
ENDBRANCH   1   7
TORSDOF 2
ENDMDL
MODEL 2
REMARK VINA RESULT:      -5.7      0.932      1.528
REMARK  Name = *****
REMARK                            x       y       z     vdW  Elec       q    Type
REMARK                         _______ _______ _______ _____ _____    ______ ____
ROOT
ATOM      1  C   LIG    1       30.467 -19.388   7.600  0.00  0.00    +0.077 A 
ATOM      2  C   LIG    1       29.864 -20.614   7.847  0.00  0.00    +0.125 A 
ATOM      3  N   LIG    1       28.819 -21.103   7.133  0.00  0.00    -0.262 NA
ATOM      4  C   LIG    1       28.358 -20.331   6.125  0.00  0.00    +0.111 A 
ATOM      5  C   LIG    1       28.887 -19.092   5.801  0.00  0.00    +0.020 A 
ATOM      6  C   LIG    1       29.960 -18.613   6.551  0.00  0.00    +0.018 A 
ENDROOT
BRANCH   1   7
ATOM      7  C   LIG    1       31.616 -18.981   8.442  0.00  0.00    +0.340 C 
ATOM      8  O   LIG    1       32.128 -19.705   9.278  0.00  0.00    -0.245 OA
BRANCH   7  10
ATOM      9  C   LIG    1       32.118 -16.836   9.252  0.00  0.00    +0.280 C 
ATOM     10  O   LIG    1       31.996 -17.717   8.132  0.00  0.00    -0.464 OA
ENDBRANCH   7  10
ENDBRANCH   1   7
TORSDOF 2
ENDMDL
MODEL 3
REMARK VINA RESULT:      -5.5      2.133      2.723
REMARK  Name = *****
REMARK                            x       y       z     vdW  Elec       q    Type
REMARK                         _______ _______ _______ _____ _____    ______ ____
ROOT
ATOM      1  C   LIG    1       30.822 -18.132   9.132  0.00  0.00    +0.077 A 
ATOM      2  C   LIG    1       31.908 -18.433   8.320  0.00  0.00    +0.125 A 
ATOM      3  N   LIG    1       31.811 -19.104   7.143  0.00  0.00    -0.262 NA
ATOM      4  C   LIG    1       30.573 -19.488   6.763  0.00  0.00    +0.111 A 
ATOM      5  C   LIG    1       29.428 -19.239   7.505  0.00  0.00    +0.020 A 
ATOM      6  C   LIG    1       29.557 -18.549   8.709  0.00  0.00    +0.018 A 
ENDROOT
BRANCH   1   7
ATOM      7  C   LIG    1       31.063 -17.375  10.382  0.00  0.00    +0.340 C 
ATOM      8  O   LIG    1       30.241 -16.632  10.890  0.00  0.00    -0.245 OA
BRANCH   7  10
ATOM      9  C   LIG    1       32.987 -16.521  11.421  0.00  0.00    +0.280 C 
ATOM     10  O   LIG    1       32.304 -17.644  10.859  0.00  0.00    -0.464 OA
ENDBRANCH   7  10
ENDBRANCH   1   7
TORSDOF 2
ENDMDL
MODEL 4
REMARK VINA RESULT:      -5.4      5.005      6.109
REMARK  Name = *****
REMARK                            x       y       z     vdW  Elec       q    Type
REMARK                         _______ _______ _______ _____ _____    ______ ____
ROOT
ATOM      1  C   LIG    1       25.053 -22.027   7.678  0.00  0.00    +0.077 A 
ATOM      2  C   LIG    1       25.710 -23.210   7.366  0.00  0.00    +0.125 A 
ATOM      3  N   LIG    1       25.100 -24.296   6.827  0.00  0.00    -0.262 NA
ATOM      4  C   LIG    1       23.774 -24.193   6.589  0.00  0.00    +0.111 A 
ATOM      5  C   LIG    1       23.029 -23.058   6.869  0.00  0.00    +0.020 A 
ATOM      6  C   LIG    1       23.680 -21.958   7.422  0.00  0.00    +0.018 A 
ENDROOT
BRANCH   1   7
ATOM      7  C   LIG    1       25.842 -20.908   8.243  0.00  0.00    +0.340 C 
ATOM      8  O   LIG    1       25.855 -20.623   9.428  0.00  0.00    -0.245 OA
BRANCH   7  10
ATOM      9  C   LIG    1       27.947 -20.211   7.471  0.00  0.00    +0.280 C 
ATOM     10  O   LIG    1       26.534 -20.282   7.259  0.00  0.00    -0.464 OA
ENDBRANCH   7  10
ENDBRANCH   1   7
TORSDOF 2
ENDMDL
MODEL 5
REMARK VINA RESULT:      -5.4      6.871      7.917
REMARK  Name = *****
REMARK                            x       y       z     vdW  Elec       q    Type
REMARK                         _______ _______ _______ _____ _____    ______ ____
ROOT
ATOM      1  C   LIG    1       23.461 -20.663   5.752  0.00  0.00    +0.077 A 
ATOM      2  C   LIG    1       24.619 -20.779   4.994  0.00  0.00    +0.125 A 
ATOM      3  N   LIG    1       24.907 -19.994   3.925  0.00  0.00    -0.262 NA
ATOM      4  C   LIG    1       23.996 -19.051   3.600  0.00  0.00    +0.111 A 
ATOM      5  C   LIG    1       22.809 -18.858   4.291  0.00  0.00    +0.020 A 
ATOM      6  C   LIG    1       22.539 -19.679   5.384  0.00  0.00    +0.018 A 
ENDROOT
BRANCH   1   7
ATOM      7  C   LIG    1       23.280 -21.570   6.909  0.00  0.00    +0.340 C 
ATOM      8  O   LIG    1       23.605 -21.283   8.048  0.00  0.00    -0.245 OA
BRANCH   7  10
ATOM      9  C   LIG    1       23.494 -23.899   6.713  0.00  0.00    +0.280 C 
ATOM     10  O   LIG    1       22.700 -22.728   6.507  0.00  0.00    -0.464 OA
ENDBRANCH   7  10
ENDBRANCH   1   7
TORSDOF 2
ENDMDL
MODEL 6
REMARK VINA RESULT:      -5.4      4.290      5.401
REMARK  Name = *****
REMARK                            x       y       z     vdW  Elec       q    Type
REMARK                         _______ _______ _______ _____ _____    ______ ____
ROOT
ATOM      1  C   LIG    1       25.218 -20.665   7.051  0.00  0.00    +0.077 A 
ATOM      2  C   LIG    1       25.675 -20.652   5.740  0.00  0.00    +0.125 A 
ATOM      3  N   LIG    1       24.864 -20.721   4.654  0.00  0.00    -0.262 NA
ATOM      4  C   LIG    1       23.537 -20.806   4.891  0.00  0.00    +0.111 A 
ATOM      5  C   LIG    1       22.983 -20.830   6.161  0.00  0.00    +0.020 A 
ATOM      6  C   LIG    1       23.838 -20.759   7.259  0.00  0.00    +0.018 A 
ENDROOT
BRANCH   1   7
ATOM      7  C   LIG    1       26.210 -20.562   8.147  0.00  0.00    +0.340 C 
ATOM      8  O   LIG    1       25.936 -20.737   9.322  0.00  0.00    -0.245 OA
BRANCH   7  10
ATOM      9  C   LIG    1       28.430 -21.265   7.853  0.00  0.00    +0.280 C 
ATOM     10  O   LIG    1       27.432 -20.262   7.643  0.00  0.00    -0.464 OA
ENDBRANCH   7  10
ENDBRANCH   1   7
TORSDOF 2
ENDMDL
MODEL 7
REMARK VINA RESULT:      -5.4      4.938      6.021
REMARK  Name = *****
REMARK                            x       y       z     vdW  Elec       q    Type
REMARK                         _______ _______ _______ _____ _____    ______ ____
ROOT
ATOM      1  C   LIG    1       25.213 -22.124   7.648  0.00  0.00    +0.077 A 
ATOM      2  C   LIG    1       23.844 -22.055   7.424  0.00  0.00    +0.125 A 
ATOM      3  N   LIG    1       23.109 -23.070   6.905  0.00  0.00    -0.262 NA
ATOM      4  C   LIG    1       23.772 -24.205   6.596  0.00  0.00    +0.111 A 
ATOM      5  C   LIG    1       25.136 -24.372   6.778  0.00  0.00    +0.020 A 
ATOM      6  C   LIG    1       25.868 -23.314   7.313  0.00  0.00    +0.018 A 
ENDROOT
BRANCH   1   7
ATOM      7  C   LIG    1       25.894 -20.950   8.242  0.00  0.00    +0.340 C 
ATOM      8  O   LIG    1       25.839 -20.667   9.426  0.00  0.00    -0.245 OA
BRANCH   7  10
ATOM      9  C   LIG    1       27.989 -20.217   7.481  0.00  0.00    +0.280 C 
ATOM     10  O   LIG    1       26.574 -20.272   7.285  0.00  0.00    -0.464 OA
ENDBRANCH   7  10
ENDBRANCH   1   7
TORSDOF 2
ENDMDL
MODEL 8
REMARK VINA RESULT:      -5.3      5.509      6.798
REMARK  Name = *****
REMARK                            x       y       z     vdW  Elec       q    Type
REMARK                         _______ _______ _______ _____ _____    ______ ____
ROOT
ATOM      1  C   LIG    1       24.015 -20.668   5.988  0.00  0.00    +0.077 A 
ATOM      2  C   LIG    1       24.990 -20.509   5.011  0.00  0.00    +0.125 A 
ATOM      3  N   LIG    1       24.828 -19.757   3.893  0.00  0.00    -0.262 NA
ATOM      4  C   LIG    1       23.637 -19.136   3.746  0.00  0.00    +0.111 A 
ATOM      5  C   LIG    1       22.600 -19.235   4.660  0.00  0.00    +0.020 A 
ATOM      6  C   LIG    1       22.793 -20.014   5.799  0.00  0.00    +0.018 A 
ENDROOT
BRANCH   1   7
ATOM      7  C   LIG    1       24.328 -21.500   7.172  0.00  0.00    +0.340 C 
ATOM      8  O   LIG    1       24.316 -22.719   7.162  0.00  0.00    -0.245 OA
BRANCH   7  10
ATOM      9  C   LIG    1       26.027 -20.635   8.542  0.00  0.00    +0.280 C 
ATOM     10  O   LIG    1       24.633 -20.709   8.230  0.00  0.00    -0.464 OA
ENDBRANCH   7  10
ENDBRANCH   1   7
TORSDOF 2
ENDMDL
MODEL 9
REMARK VINA RESULT:      -5.3      1.783      2.356
REMARK  Name = *****
REMARK                            x       y       z     vdW  Elec       q    Type
REMARK                         _______ _______ _______ _____ _____    ______ ____
ROOT
ATOM      1  C   LIG    1       30.790 -19.051   8.455  0.00  0.00    +0.077 A 
ATOM      2  C   LIG    1       30.883 -20.356   8.920  0.00  0.00    +0.125 A 
ATOM      3  N   LIG    1       30.092 -21.372   8.490  0.00  0.00    -0.262 NA
ATOM      4  C   LIG    1       29.168 -21.069   7.553  0.00  0.00    +0.111 A 
ATOM      5  C   LIG    1       28.993 -19.797   7.029  0.00  0.00    +0.020 A 
ATOM      6  C   LIG    1       29.819 -18.773   7.488  0.00  0.00    +0.018 A 
ENDROOT
BRANCH   1   7
ATOM      7  C   LIG    1       31.730 -18.040   8.992  0.00  0.00    +0.340 C 
ATOM      8  O   LIG    1       32.228 -17.156   8.316  0.00  0.00    -0.245 OA
BRANCH   7  10
ATOM      9  C   LIG    1       31.122 -17.437  11.177  0.00  0.00    +0.280 C 
ATOM     10  O   LIG    1       31.929 -18.246  10.317  0.00  0.00    -0.464 OA
ENDBRANCH   7  10
ENDBRANCH   1   7
TORSDOF 2
ENDMDL
