MODEL 1
REMARK VINA RESULT:      -8.0      0.000      0.000
REMARK  Name = *****
REMARK                            x       y       z     vdW  Elec       q    Type
REMARK                         _______ _______ _______ _____ _____    ______ ____
ROOT
ATOM      1  C   LIG    1       27.729 -20.494   7.298  0.00  0.00    +0.006 C 
ATOM      2  C   LIG    1       27.337 -21.569   8.307  0.00  0.00    +0.107 C 
ATOM      3  S   LIG    1       26.376 -22.937   7.603  0.00  0.00    -0.131 S 
ATOM      4  C   LIG    1       25.206 -21.831   6.796  0.00  0.00    +0.169 C 
ATOM      5  N   LIG    1       25.926 -20.997   5.850  0.00  0.00    -0.249 N 
ATOM      6  C   LIG    1       25.100 -21.231   4.814  0.00  0.00    +0.244 C 
ATOM      7  O   LIG    1       25.100 -20.745   3.696  0.00  0.00    -0.273 OA
ATOM      8  CA  LIG    1       24.408 -22.403   5.579  0.00  0.00    +0.191 C 
ATOM      9  CA  LIG    1       27.048 -20.257   6.138  0.00  0.00    +0.125 C 
ENDROOT
BRANCH   8  10
ATOM     10  N   LIG    1       24.740 -23.781   5.091  0.00  0.00    -0.301 N 
ATOM     11  H   LIG    1       25.296 -23.898   4.246  0.00  0.00    +0.149 HD
ATOM     12  C   LIG    1       24.128 -24.902   5.622  0.00  0.00    +0.218 C 
ATOM     13  O   LIG    1       23.298 -24.829   6.525  0.00  0.00    -0.275 OA
BRANCH  12  14
ATOM     14  C   LIG    1       24.612 -26.242   5.094  0.00  0.00    +0.138 C 
BRANCH  14  15
ATOM     15  C   LIG    1       25.060 -27.121   6.219  0.00  0.00    -0.002 A 
ATOM     16  S   LIG    1       24.361 -28.671   6.435  0.00  0.00    -0.101 S 
ATOM     17  C   LIG    1       25.323 -28.977   7.813  0.00  0.00    +0.045 A 
ATOM     18  C   LIG    1       26.165 -27.927   8.102  0.00  0.00    +0.008 A 
ATOM     19  C   LIG    1       26.019 -26.856   7.175  0.00  0.00    +0.012 A 
ENDBRANCH  14  15
ENDBRANCH  12  14
ENDBRANCH   8  10
BRANCH   9  20
ATOM     20  C   LIG    1       27.538 -19.216   5.144  0.00  0.00    +0.351 C 
ATOM     21  O   LIG    1       28.684 -18.793   5.118  0.00  0.00    -0.244 OA
BRANCH  20  22
ATOM     22  OXT LIG    1       26.651 -18.746   4.250  0.00  0.00    -0.476 OA
ATOM     23  HXT LIG    1       25.691 -18.820   4.453  0.00  0.00    +0.295 HD
ENDBRANCH  20  22
ENDBRANCH   9  20
BRANCH   1  24
ATOM     24  C   LIG    1       29.030 -19.827   7.746  0.00  0.00    +0.266 C 
BRANCH  24  25
ATOM     25  O   LIG    1       29.879 -20.801   8.388  0.00  0.00    -0.460 OA
BRANCH  25  27
ATOM     26  C   LIG    1       31.394 -19.022   8.143  0.00  0.00    +0.136 C 
ATOM     27  C   LIG    1       31.151 -20.403   8.671  0.00  0.00    +0.304 C 
ATOM     28  O   LIG    1       31.978 -21.046   9.302  0.00  0.00    -0.251 OA
ENDBRANCH  25  27
ENDBRANCH  24  25
ENDBRANCH   1  24
TORSDOF 8
ENDMDL
MODEL 2
REMARK VINA RESULT:      -7.9      3.581      8.496
REMARK  Name = *****
REMARK                            x       y       z     vdW  Elec       q    Type
REMARK                         _______ _______ _______ _____ _____    ______ ____
ROOT
ATOM      1  C   LIG    1       25.384 -21.075   6.020  0.00  0.00    +0.006 C 
ATOM      2  C   LIG    1       25.641 -21.719   7.378  0.00  0.00    +0.107 C 
ATOM      3  S   LIG    1       26.922 -20.893   8.363  0.00  0.00    -0.131 S 
ATOM      4  C   LIG    1       28.104 -20.888   7.004  0.00  0.00    +0.169 C 
ATOM      5  N   LIG    1       27.547 -20.124   5.902  0.00  0.00    -0.249 N 
ATOM      6  C   LIG    1       28.635 -19.355   5.714  0.00  0.00    +0.244 C 
ATOM      7  O   LIG    1       28.857 -18.522   4.852  0.00  0.00    -0.273 OA
ATOM      8  CA  LIG    1       29.255 -19.832   7.064  0.00  0.00    +0.191 C 
ATOM      9  CA  LIG    1       26.302 -20.316   5.353  0.00  0.00    +0.125 C 
ENDROOT
BRANCH   8  10
ATOM     10  N   LIG    1       29.243 -18.825   8.176  0.00  0.00    -0.301 N 
ATOM     11  H   LIG    1       28.689 -17.977   8.083  0.00  0.00    +0.149 HD
ATOM     12  C   LIG    1       30.138 -18.902   9.228  0.00  0.00    +0.218 C 
ATOM     13  O   LIG    1       30.971 -19.801   9.316  0.00  0.00    -0.275 OA
BRANCH  12  14
ATOM     14  C   LIG    1       29.967 -17.866  10.327  0.00  0.00    +0.138 C 
BRANCH  14  15
ATOM     15  C   LIG    1       31.175 -16.988  10.417  0.00  0.00    -0.002 A 
ATOM     16  S   LIG    1       31.757 -16.471  11.943  0.00  0.00    -0.101 S 
ATOM     17  C   LIG    1       33.024 -15.580  11.225  0.00  0.00    +0.045 A 
ATOM     18  C   LIG    1       33.012 -15.676   9.852  0.00  0.00    +0.008 A 
ATOM     19  C   LIG    1       31.948 -16.498   9.384  0.00  0.00    +0.012 A 
ENDBRANCH  14  15
ENDBRANCH  12  14
ENDBRANCH   8  10
BRANCH   9  20
ATOM     20  C   LIG    1       25.951 -19.645   4.034  0.00  0.00    +0.351 C 
ATOM     21  O   LIG    1       25.366 -20.212   3.122  0.00  0.00    -0.244 OA
BRANCH  20  22
ATOM     22  OXT LIG    1       26.306 -18.359   3.878  0.00  0.00    -0.476 OA
ATOM     23  HXT LIG    1       25.737 -17.660   4.273  0.00  0.00    +0.295 HD
ENDBRANCH  20  22
ENDBRANCH   9  20
BRANCH   1  24
ATOM     24  C   LIG    1       23.935 -21.333   5.602  0.00  0.00    +0.266 C 
BRANCH  24  25
ATOM     25  O   LIG    1       23.119 -20.198   5.960  0.00  0.00    -0.460 OA
BRANCH  25  27
ATOM     26  C   LIG    1       22.428 -18.410   4.601  0.00  0.00    +0.136 C 
ATOM     27  C   LIG    1       22.178 -19.818   5.050  0.00  0.00    +0.304 C 
ATOM     28  O   LIG    1       21.277 -20.522   4.615  0.00  0.00    -0.251 OA
ENDBRANCH  25  27
ENDBRANCH  24  25
ENDBRANCH   1  24
TORSDOF 8
ENDMDL
MODEL 3
REMARK VINA RESULT:      -7.8      2.842      8.405
REMARK  Name = *****
REMARK                            x       y       z     vdW  Elec       q    Type
REMARK                         _______ _______ _______ _____ _____    ______ ____
ROOT
ATOM      1  C   LIG    1       25.877 -21.712   6.146  0.00  0.00    +0.006 C 
ATOM      2  C   LIG    1       26.608 -22.447   7.265  0.00  0.00    +0.107 C 
ATOM      3  S   LIG    1       27.828 -21.434   8.148  0.00  0.00    -0.131 S 
ATOM      4  C   LIG    1       28.609 -20.872   6.626  0.00  0.00    +0.169 C 
ATOM      5  N   LIG    1       27.628 -20.152   5.834  0.00  0.00    -0.249 N 
ATOM      6  C   LIG    1       28.402 -19.074   5.615  0.00  0.00    +0.244 C 
ATOM      7  O   LIG    1       28.190 -18.092   4.923  0.00  0.00    -0.273 OA
ATOM      8  CA  LIG    1       29.428 -19.542   6.695  0.00  0.00    +0.191 C 
ATOM      9  CA  LIG    1       26.381 -20.622   5.497  0.00  0.00    +0.125 C 
ENDROOT
BRANCH   8  10
ATOM     10  N   LIG    1       29.421 -18.764   7.977  0.00  0.00    -0.301 N 
ATOM     11  H   LIG    1       28.751 -18.010   8.107  0.00  0.00    +0.149 HD
ATOM     12  C   LIG    1       30.443 -18.887   8.901  0.00  0.00    +0.218 C 
ATOM     13  O   LIG    1       31.394 -19.647   8.729  0.00  0.00    -0.275 OA
BRANCH  12  14
ATOM     14  C   LIG    1       30.275 -18.104  10.193  0.00  0.00    +0.138 C 
BRANCH  14  15
ATOM     15  C   LIG    1       31.364 -17.090  10.340  0.00  0.00    -0.002 A 
ATOM     16  S   LIG    1       31.878 -16.594  11.898  0.00  0.00    -0.101 S 
ATOM     17  C   LIG    1       33.025 -15.512  11.240  0.00  0.00    +0.045 A 
ATOM     18  C   LIG    1       33.024 -15.530   9.864  0.00  0.00    +0.008 A 
ATOM     19  C   LIG    1       32.069 -16.449   9.342  0.00  0.00    +0.012 A 
ENDBRANCH  14  15
ENDBRANCH  12  14
ENDBRANCH   8  10
BRANCH   9  20
ATOM     20  C   LIG    1       25.565 -19.896   4.440  0.00  0.00    +0.351 C 
ATOM     21  O   LIG    1       24.408 -19.537   4.607  0.00  0.00    -0.244 OA
BRANCH  20  22
ATOM     22  OXT LIG    1       26.161 -19.641   3.262  0.00  0.00    -0.476 OA
ATOM     23  HXT LIG    1       25.670 -19.119   2.588  0.00  0.00    +0.295 HD
ENDBRANCH  20  22
ENDBRANCH   9  20
BRANCH   1  24
ATOM     24  C   LIG    1       24.487 -22.325   5.960  0.00  0.00    +0.266 C 
BRANCH  24  25
ATOM     25  O   LIG    1       24.612 -23.645   5.392  0.00  0.00    -0.460 OA
BRANCH  25  27
ATOM     26  C   LIG    1       24.436 -25.981   5.576  0.00  0.00    +0.136 C 
ATOM     27  C   LIG    1       23.934 -24.643   6.027  0.00  0.00    +0.304 C 
ATOM     28  O   LIG    1       23.067 -24.492   6.876  0.00  0.00    -0.251 OA
ENDBRANCH  25  27
ENDBRANCH  24  25
ENDBRANCH   1  24
TORSDOF 8
ENDMDL
MODEL 4
REMARK VINA RESULT:      -7.2      3.911      5.827
REMARK  Name = *****
REMARK                            x       y       z     vdW  Elec       q    Type
REMARK                         _______ _______ _______ _____ _____    ______ ____
ROOT
ATOM      1  C   LIG    1       30.889 -18.906   7.299  0.00  0.00    +0.006 C 
ATOM      2  C   LIG    1       30.238 -18.483   5.987  0.00  0.00    +0.107 C 
ATOM      3  S   LIG    1       28.517 -19.028   5.801  0.00  0.00    -0.131 S 
ATOM      4  C   LIG    1       28.905 -20.732   6.237  0.00  0.00    +0.169 C 
ATOM      5  N   LIG    1       29.446 -20.759   7.583  0.00  0.00    -0.249 N 
ATOM      6  C   LIG    1       28.636 -21.736   8.030  0.00  0.00    +0.244 C 
ATOM      7  O   LIG    1       28.628 -22.306   9.108  0.00  0.00    -0.273 OA
ATOM      8  CA  LIG    1       27.730 -21.617   6.764  0.00  0.00    +0.191 C 
ATOM      9  CA  LIG    1       30.484 -19.981   8.038  0.00  0.00    +0.125 C 
ENDROOT
BRANCH   8  10
ATOM     10  N   LIG    1       26.392 -20.975   6.982  0.00  0.00    -0.301 N 
ATOM     11  H   LIG    1       26.338 -20.058   7.420  0.00  0.00    +0.149 HD
ATOM     12  C   LIG    1       25.216 -21.682   6.813  0.00  0.00    +0.218 C 
ATOM     13  O   LIG    1       25.204 -22.860   6.463  0.00  0.00    -0.275 OA
BRANCH  12  14
ATOM     14  C   LIG    1       23.929 -20.892   6.987  0.00  0.00    +0.138 C 
BRANCH  14  15
ATOM     15  C   LIG    1       23.601 -20.137   5.739  0.00  0.00    -0.002 A 
ATOM     16  S   LIG    1       24.677 -20.162   4.406  0.00  0.00    -0.101 S 
ATOM     17  C   LIG    1       23.662 -19.136   3.491  0.00  0.00    +0.045 A 
ATOM     18  C   LIG    1       22.524 -18.785   4.180  0.00  0.00    +0.008 A 
ATOM     19  C   LIG    1       22.483 -19.371   5.478  0.00  0.00    +0.012 A 
ENDBRANCH  14  15
ENDBRANCH  12  14
ENDBRANCH   8  10
BRANCH   9  20
ATOM     20  C   LIG    1       31.135 -20.301   9.374  0.00  0.00    +0.351 C 
ATOM     21  O   LIG    1       32.003 -21.149   9.517  0.00  0.00    -0.244 OA
BRANCH  20  22
ATOM     22  OXT LIG    1       30.724 -19.603  10.447  0.00  0.00    -0.476 OA
ATOM     23  HXT LIG    1       31.182 -18.760  10.665  0.00  0.00    +0.295 HD
ENDBRANCH  20  22
ENDBRANCH   9  20
BRANCH   1  24
ATOM     24  C   LIG    1       31.968 -17.890   7.681  0.00  0.00    +0.266 C 
BRANCH  24  25
ATOM     25  O   LIG    1       31.498 -17.072   8.772  0.00  0.00    -0.460 OA
BRANCH  25  27
ATOM     26  C   LIG    1       32.905 -15.408   9.652  0.00  0.00    +0.136 C 
ATOM     27  C   LIG    1       32.396 -16.812   9.765  0.00  0.00    +0.304 C 
ATOM     28  O   LIG    1       32.721 -17.585  10.655  0.00  0.00    -0.251 OA
ENDBRANCH  25  27
ENDBRANCH  24  25
ENDBRANCH   1  24
TORSDOF 8
ENDMDL
MODEL 5
REMARK VINA RESULT:      -7.1      6.258      8.943
REMARK  Name = *****
REMARK                            x       y       z     vdW  Elec       q    Type
REMARK                         _______ _______ _______ _____ _____    ______ ____
ROOT
ATOM      1  C   LIG    1       25.542 -28.645  11.937  0.00  0.00    +0.006 C 
ATOM      2  C   LIG    1       26.752 -28.360  11.053  0.00  0.00    +0.107 C 
ATOM      3  S   LIG    1       26.406 -28.422   9.273  0.00  0.00    -0.131 S 
ATOM      4  C   LIG    1       25.589 -30.023   9.387  0.00  0.00    +0.169 C 
ATOM      5  N   LIG    1       24.438 -29.899  10.263  0.00  0.00    -0.249 N 
ATOM      6  C   LIG    1       23.567 -30.481   9.417  0.00  0.00    +0.244 C 
ATOM      7  O   LIG    1       22.395 -30.769   9.586  0.00  0.00    -0.273 OA
ATOM      8  CA  LIG    1       24.593 -30.397   8.242  0.00  0.00    +0.191 C 
ATOM      9  CA  LIG    1       24.457 -29.366  11.529  0.00  0.00    +0.125 C 
ENDROOT
BRANCH   8  10
ATOM     10  N   LIG    1       24.293 -29.370   7.191  0.00  0.00    -0.301 N 
ATOM     11  H   LIG    1       23.561 -28.682   7.352  0.00  0.00    +0.149 HD
ATOM     12  C   LIG    1       24.823 -29.465   5.918  0.00  0.00    +0.218 C 
ATOM     13  O   LIG    1       25.576 -30.380   5.588  0.00  0.00    -0.275 OA
BRANCH  12  14
ATOM     14  C   LIG    1       24.505 -28.318   4.973  0.00  0.00    +0.138 C 
BRANCH  14  15
ATOM     15  C   LIG    1       24.843 -27.005   5.606  0.00  0.00    -0.002 A 
ATOM     16  S   LIG    1       26.473 -26.604   5.948  0.00  0.00    -0.101 S 
ATOM     17  C   LIG    1       26.025 -25.095   6.612  0.00  0.00    +0.045 A 
ATOM     18  C   LIG    1       24.664 -24.895   6.570  0.00  0.00    +0.008 A 
ATOM     19  C   LIG    1       23.980 -25.995   5.980  0.00  0.00    +0.012 A 
ENDBRANCH  14  15
ENDBRANCH  12  14
ENDBRANCH   8  10
BRANCH   9  20
ATOM     20  C   LIG    1       23.254 -29.550  12.441  0.00  0.00    +0.351 C 
ATOM     21  O   LIG    1       23.231 -30.331  13.381  0.00  0.00    -0.244 OA
BRANCH  20  22
ATOM     22  OXT LIG    1       22.164 -28.804  12.188  0.00  0.00    -0.476 OA
ATOM     23  HXT LIG    1       22.266 -27.990  11.645  0.00  0.00    +0.295 HD
ENDBRANCH  20  22
ENDBRANCH   9  20
BRANCH   1  24
ATOM     24  C   LIG    1       25.706 -27.917  13.273  0.00  0.00    +0.266 C 
BRANCH  24  25
ATOM     25  O   LIG    1       25.368 -26.524  13.111  0.00  0.00    -0.460 OA
BRANCH  25  27
ATOM     26  C   LIG    1       24.572 -25.405  15.017  0.00  0.00    +0.136 C 
ATOM     27  C   LIG    1       24.233 -26.100  13.734  0.00  0.00    +0.304 C 
ATOM     28  O   LIG    1       23.094 -26.221  13.305  0.00  0.00    -0.251 OA
ENDBRANCH  25  27
ENDBRANCH  24  25
ENDBRANCH   1  24
TORSDOF 8
ENDMDL
MODEL 6
REMARK VINA RESULT:      -6.7      4.336      9.548
REMARK  Name = *****
REMARK                            x       y       z     vdW  Elec       q    Type
REMARK                         _______ _______ _______ _____ _____    ______ ____
ROOT
ATOM      1  C   LIG    1       25.655 -30.924   9.366  0.00  0.00    +0.006 C 
ATOM      2  C   LIG    1       26.636 -29.782   9.607  0.00  0.00    +0.107 C 
ATOM      3  S   LIG    1       26.200 -28.235   8.765  0.00  0.00    -0.131 S 
ATOM      4  C   LIG    1       25.965 -29.050   7.176  0.00  0.00    +0.169 C 
ATOM      5  N   LIG    1       24.905 -30.033   7.307  0.00  0.00    -0.249 N 
ATOM      6  C   LIG    1       24.214 -29.624   6.226  0.00  0.00    +0.244 C 
ATOM      7  O   LIG    1       23.217 -30.104   5.714  0.00  0.00    -0.273 OA
ATOM      8  CA  LIG    1       25.067 -28.320   6.126  0.00  0.00    +0.191 C 
ATOM      9  CA  LIG    1       24.840 -31.008   8.273  0.00  0.00    +0.125 C 
ENDROOT
BRANCH   8  10
ATOM     10  N   LIG    1       24.370 -27.057   6.537  0.00  0.00    -0.301 N 
ATOM     11  H   LIG    1       23.673 -27.083   7.278  0.00  0.00    +0.149 HD
ATOM     12  C   LIG    1       24.479 -25.897   5.792  0.00  0.00    +0.218 C 
ATOM     13  O   LIG    1       25.160 -25.837   4.770  0.00  0.00    -0.275 OA
BRANCH  12  14
ATOM     14  C   LIG    1       23.789 -24.668   6.360  0.00  0.00    +0.138 C 
BRANCH  14  15
ATOM     15  C   LIG    1       24.768 -23.554   6.549  0.00  0.00    -0.002 A 
ATOM     16  S   LIG    1       24.577 -22.081   5.694  0.00  0.00    -0.101 S 
ATOM     17  C   LIG    1       25.986 -21.420   6.399  0.00  0.00    +0.045 A 
ATOM     18  C   LIG    1       26.589 -22.296   7.272  0.00  0.00    +0.008 A 
ATOM     19  C   LIG    1       25.880 -23.528   7.366  0.00  0.00    +0.012 A 
ENDBRANCH  14  15
ENDBRANCH  12  14
ENDBRANCH   8  10
BRANCH   9  20
ATOM     20  C   LIG    1       23.834 -32.139   8.133  0.00  0.00    +0.351 C 
ATOM     21  O   LIG    1       24.054 -33.167   7.509  0.00  0.00    -0.244 OA
BRANCH  20  22
ATOM     22  OXT LIG    1       22.642 -31.988   8.737  0.00  0.00    -0.476 OA
ATOM     23  HXT LIG    1       21.979 -32.710   8.657  0.00  0.00    +0.295 HD
ENDBRANCH  20  22
ENDBRANCH   9  20
BRANCH   1  24
ATOM     24  C   LIG    1       25.668 -31.868  10.570  0.00  0.00    +0.266 C 
BRANCH  24  25
ATOM     25  O   LIG    1       25.217 -31.162  11.744  0.00  0.00    -0.460 OA
BRANCH  25  27
ATOM     26  C   LIG    1       23.610 -29.481  12.082  0.00  0.00    +0.136 C 
ATOM     27  C   LIG    1       23.876 -30.935  11.837  0.00  0.00    +0.304 C 
ATOM     28  O   LIG    1       22.998 -31.774  11.700  0.00  0.00    -0.251 OA
ENDBRANCH  25  27
ENDBRANCH  24  25
ENDBRANCH   1  24
TORSDOF 8
ENDMDL
MODEL 7
REMARK VINA RESULT:      -6.5      7.981     10.681
REMARK  Name = *****
REMARK                            x       y       z     vdW  Elec       q    Type
REMARK                         _______ _______ _______ _____ _____    ______ ____
ROOT
ATOM      1  C   LIG    1       24.963 -31.137   9.353  0.00  0.00    +0.006 C 
ATOM      2  C   LIG    1       23.551 -31.683   9.541  0.00  0.00    +0.107 C 
ATOM      3  S   LIG    1       22.482 -30.642  10.572  0.00  0.00    -0.131 S 
ATOM      4  C   LIG    1       23.703 -30.518  11.890  0.00  0.00    +0.169 C 
ATOM      5  N   LIG    1       24.899 -29.887  11.360  0.00  0.00    -0.249 N 
ATOM      6  C   LIG    1       25.011 -28.975  12.344  0.00  0.00    +0.244 C 
ATOM      7  O   LIG    1       25.889 -28.153  12.544  0.00  0.00    -0.273 OA
ATOM      8  CA  LIG    1       23.577 -29.305  12.867  0.00  0.00    +0.191 C 
ATOM      9  CA  LIG    1       25.568 -30.278  10.226  0.00  0.00    +0.125 C 
ENDROOT
BRANCH   8  10
ATOM     10  N   LIG    1       22.530 -28.268  12.587  0.00  0.00    -0.301 N 
ATOM     11  H   LIG    1       22.308 -28.021  11.625  0.00  0.00    +0.149 HD
ATOM     12  C   LIG    1       22.016 -27.472  13.594  0.00  0.00    +0.218 C 
ATOM     13  O   LIG    1       22.374 -27.584  14.765  0.00  0.00    -0.275 OA
BRANCH  12  14
ATOM     14  C   LIG    1       20.905 -26.517  13.191  0.00  0.00    +0.138 C 
BRANCH  14  15
ATOM     15  C   LIG    1       19.597 -26.953  13.772  0.00  0.00    -0.002 A 
ATOM     16  S   LIG    1       19.348 -28.592  14.205  0.00  0.00    -0.101 S 
ATOM     17  C   LIG    1       17.750 -28.274  14.721  0.00  0.00    +0.045 A 
ATOM     18  C   LIG    1       17.413 -26.948  14.575  0.00  0.00    +0.008 A 
ATOM     19  C   LIG    1       18.484 -26.181  14.034  0.00  0.00    +0.012 A 
ENDBRANCH  14  15
ENDBRANCH  12  14
ENDBRANCH   8  10
BRANCH   9  20
ATOM     20  C   LIG    1       26.951 -29.717   9.937  0.00  0.00    +0.351 C 
ATOM     21  O   LIG    1       27.971 -30.126  10.472  0.00  0.00    -0.244 OA
BRANCH  20  22
ATOM     22  OXT LIG    1       27.042 -28.720   9.040  0.00  0.00    -0.476 OA
ATOM     23  HXT LIG    1       26.215 -28.379   8.629  0.00  0.00    +0.295 HD
ENDBRANCH  20  22
ENDBRANCH   9  20
BRANCH   1  24
ATOM     24  C   LIG    1       25.519 -31.618   8.011  0.00  0.00    +0.266 C 
BRANCH  24  25
ATOM     25  O   LIG    1       25.617 -30.504   7.100  0.00  0.00    -0.460 OA
BRANCH  25  27
ATOM     26  C   LIG    1       24.443 -28.578   6.443  0.00  0.00    +0.136 C 
ATOM     27  C   LIG    1       24.450 -30.073   6.544  0.00  0.00    +0.304 C 
ATOM     28  O   LIG    1       23.544 -30.787   6.138  0.00  0.00    -0.251 OA
ENDBRANCH  25  27
ENDBRANCH  24  25
ENDBRANCH   1  24
TORSDOF 8
ENDMDL
MODEL 8
REMARK VINA RESULT:      -6.4      6.283      8.999
REMARK  Name = *****
REMARK                            x       y       z     vdW  Elec       q    Type
REMARK                         _______ _______ _______ _____ _____    ______ ____
ROOT
ATOM      1  C   LIG    1       25.711 -28.645  11.837  0.00  0.00    +0.006 C 
ATOM      2  C   LIG    1       26.893 -28.408  10.903  0.00  0.00    +0.107 C 
ATOM      3  S   LIG    1       26.471 -28.466   9.140  0.00  0.00    -0.131 S 
ATOM      4  C   LIG    1       25.604 -30.037   9.297  0.00  0.00    +0.169 C 
ATOM      5  N   LIG    1       24.495 -29.868  10.218  0.00  0.00    -0.249 N 
ATOM      6  C   LIG    1       23.570 -30.422   9.413  0.00  0.00    +0.244 C 
ATOM      7  O   LIG    1       22.396 -30.668   9.631  0.00  0.00    -0.273 OA
ATOM      8  CA  LIG    1       24.549 -30.381   8.197  0.00  0.00    +0.191 C 
ATOM      9  CA  LIG    1       24.585 -29.329  11.479  0.00  0.00    +0.125 C 
ENDROOT
BRANCH   8  10
ATOM     10  N   LIG    1       24.242 -29.349   7.152  0.00  0.00    -0.301 N 
ATOM     11  H   LIG    1       23.496 -28.676   7.311  0.00  0.00    +0.149 HD
ATOM     12  C   LIG    1       24.788 -29.422   5.884  0.00  0.00    +0.218 C 
ATOM     13  O   LIG    1       25.560 -30.320   5.554  0.00  0.00    -0.275 OA
BRANCH  12  14
ATOM     14  C   LIG    1       24.460 -28.272   4.947  0.00  0.00    +0.138 C 
BRANCH  14  15
ATOM     15  C   LIG    1       24.816 -26.962   5.575  0.00  0.00    -0.002 A 
ATOM     16  S   LIG    1       26.458 -26.554   5.852  0.00  0.00    -0.101 S 
ATOM     17  C   LIG    1       26.029 -25.053   6.547  0.00  0.00    +0.045 A 
ATOM     18  C   LIG    1       24.667 -24.860   6.563  0.00  0.00    +0.008 A 
ATOM     19  C   LIG    1       23.964 -25.960   5.994  0.00  0.00    +0.012 A 
ENDBRANCH  14  15
ENDBRANCH  12  14
ENDBRANCH   8  10
BRANCH   9  20
ATOM     20  C   LIG    1       23.415 -29.465  12.441  0.00  0.00    +0.351 C 
ATOM     21  O   LIG    1       23.423 -30.204  13.415  0.00  0.00    -0.244 OA
BRANCH  20  22
ATOM     22  OXT LIG    1       22.320 -28.725  12.195  0.00  0.00    -0.476 OA
ATOM     23  HXT LIG    1       21.520 -29.172  11.838  0.00  0.00    +0.295 HD
ENDBRANCH  20  22
ENDBRANCH   9  20
BRANCH   1  24
ATOM     24  C   LIG    1       25.956 -27.917  13.161  0.00  0.00    +0.266 C 
BRANCH  24  25
ATOM     25  O   LIG    1       27.360 -27.967  13.489  0.00  0.00    -0.460 OA
BRANCH  25  27
ATOM     26  C   LIG    1       26.698 -29.058  15.462  0.00  0.00    +0.136 C 
ATOM     27  C   LIG    1       27.737 -28.916  14.392  0.00  0.00    +0.304 C 
ATOM     28  O   LIG    1       28.752 -29.596  14.333  0.00  0.00    -0.251 OA
ENDBRANCH  25  27
ENDBRANCH  24  25
ENDBRANCH   1  24
TORSDOF 8
ENDMDL
MODEL 9
REMARK VINA RESULT:      -6.4      1.741      1.950
REMARK  Name = *****
REMARK                            x       y       z     vdW  Elec       q    Type
REMARK                         _______ _______ _______ _____ _____    ______ ____
ROOT
ATOM      1  C   LIG    1       27.274 -20.191   6.384  0.00  0.00    +0.006 C 
ATOM      2  C   LIG    1       27.349 -20.766   7.794  0.00  0.00    +0.107 C 
ATOM      3  S   LIG    1       25.987 -21.888   8.214  0.00  0.00    -0.131 S 
ATOM      4  C   LIG    1       24.727 -20.727   7.661  0.00  0.00    +0.169 C 
ATOM      5  N   LIG    1       24.927 -20.458   6.248  0.00  0.00    -0.249 N 
ATOM      6  C   LIG    1       23.650 -20.684   5.890  0.00  0.00    +0.244 C 
ATOM      7  O   LIG    1       23.111 -20.547   4.804  0.00  0.00    -0.273 OA
ATOM      8  CA  LIG    1       23.331 -21.318   7.281  0.00  0.00    +0.191 C 
ATOM      9  CA  LIG    1       26.113 -20.070   5.673  0.00  0.00    +0.125 C 
ENDROOT
BRANCH   8  10
ATOM     10  N   LIG    1       23.158 -22.808   7.291  0.00  0.00    -0.301 N 
ATOM     11  H   LIG    1       22.732 -23.261   8.096  0.00  0.00    +0.149 HD
ATOM     12  C   LIG    1       23.764 -23.610   6.342  0.00  0.00    +0.218 C 
ATOM     13  O   LIG    1       24.456 -23.148   5.437  0.00  0.00    -0.275 OA
BRANCH  12  14
ATOM     14  C   LIG    1       23.444 -25.094   6.418  0.00  0.00    +0.138 C 
BRANCH  14  15
ATOM     15  C   LIG    1       24.653 -25.912   6.088  0.00  0.00    -0.002 A 
ATOM     16  S   LIG    1       24.483 -27.434   5.320  0.00  0.00    -0.101 S 
ATOM     17  C   LIG    1       26.173 -27.689   5.320  0.00  0.00    +0.045 A 
ATOM     18  C   LIG    1       26.855 -26.637   5.886  0.00  0.00    +0.008 A 
ATOM     19  C   LIG    1       25.978 -25.604   6.323  0.00  0.00    +0.012 A 
ENDBRANCH  14  15
ENDBRANCH  12  14
ENDBRANCH   8  10
BRANCH   9  20
ATOM     20  C   LIG    1       26.124 -19.553   4.244  0.00  0.00    +0.351 C 
ATOM     21  O   LIG    1       26.435 -18.411   3.940  0.00  0.00    -0.244 OA
BRANCH  20  22
ATOM     22  OXT LIG    1       25.770 -20.411   3.271  0.00  0.00    -0.476 OA
ATOM     23  HXT LIG    1       26.457 -20.712   2.634  0.00  0.00    +0.295 HD
ENDBRANCH  20  22
ENDBRANCH   9  20
BRANCH   1  24
ATOM     24  C   LIG    1       28.687 -19.883   5.884  0.00  0.00    +0.266 C 
BRANCH  24  25
ATOM     25  O   LIG    1       29.653 -20.341   6.852  0.00  0.00    -0.460 OA
BRANCH  25  27
ATOM     26  C   LIG    1       30.088 -18.322   7.973  0.00  0.00    +0.136 C 
ATOM     27  C   LIG    1       30.644 -19.465   7.180  0.00  0.00    +0.304 C 
ATOM     28  O   LIG    1       31.831 -19.594   6.912  0.00  0.00    -0.251 OA
ENDBRANCH  25  27
ENDBRANCH  24  25
ENDBRANCH   1  24
TORSDOF 8
ENDMDL
