MODEL 1
REMARK VINA RESULT:      -9.4      0.000      0.000
REMARK  Name = *****
REMARK                            x       y       z     vdW  Elec       q    Type
REMARK                         _______ _______ _______ _____ _____    ______ ____
ROOT
ATOM      1  C   LIG    1       30.044 -20.492   7.762  0.00  0.00    +0.105 C 
ATOM      2  N   LIG    1       28.702 -20.447   8.336  0.00  0.00    -0.305 NA
ATOM      3  C   LIG    1       27.827 -19.498   7.625  0.00  0.00    +0.088 C 
ATOM      4  C   LIG    1       27.361 -19.957   6.232  0.00  0.00    +0.047 C 
ATOM      5  C   LIG    1       26.725 -21.343   6.267  0.00  0.00    -0.059 C 
ATOM      6  C   LIG    1       25.502 -21.646   5.754  0.00  0.00    -0.010 C 
ATOM      7  C   LIG    1       24.913 -23.000   5.915  0.00  0.00    -0.010 A 
ATOM      8  C   LIG    1       23.752 -23.180   6.693  0.00  0.00    -0.017 A 
ATOM      9  C   LIG    1       23.219 -24.471   6.827  0.00  0.00    +0.008 A 
ATOM     10  C   LIG    1       23.800 -25.558   6.167  0.00  0.00    +0.001 A 
ATOM     11  C   LIG    1       24.923 -25.369   5.366  0.00  0.00    +0.001 A 
ATOM     12  C   LIG    1       23.086 -22.078   7.414  0.00  0.00    +0.009 C 
ATOM     13  C   LIG    1       22.948 -20.805   7.000  0.00  0.00    +0.009 C 
ATOM     14  C   LIG    1       23.431 -20.229   5.730  0.00  0.00    -0.017 A 
ATOM     15  C   LIG    1       22.650 -19.235   5.119  0.00  0.00    +0.008 A 
ATOM     16  C   LIG    1       23.047 -18.654   3.913  0.00  0.00    +0.001 A 
ATOM     17  C   LIG    1       24.230 -19.056   3.300  0.00  0.00    +0.001 A 
ATOM     18  C   LIG    1       25.027 -20.029   3.902  0.00  0.00    +0.009 A 
ATOM     19  C   LIG    1       25.474 -24.094   5.235  0.00  0.00    +0.009 A 
ATOM     20  C   LIG    1       24.650 -20.601   5.128  0.00  0.00    -0.010 A 
ATOM     21  C   LIG    1       27.619 -22.326   7.013  0.00  0.00    +0.047 C 
ATOM     22  C   LIG    1       28.070 -21.776   8.378  0.00  0.00    +0.088 C 
ENDROOT
TORSDOF 0
ENDMDL
MODEL 2
REMARK VINA RESULT:      -7.9      1.839      4.787
REMARK  Name = *****
REMARK                            x       y       z     vdW  Elec       q    Type
REMARK                         _______ _______ _______ _____ _____    ______ ____
ROOT
ATOM      1  C   LIG    1       24.541 -26.438   6.509  0.00  0.00    +0.105 C 
ATOM      2  N   LIG    1       25.249 -25.597   5.548  0.00  0.00    -0.305 NA
ATOM      3  C   LIG    1       24.350 -24.637   4.884  0.00  0.00    +0.088 C 
ATOM      4  C   LIG    1       23.877 -23.467   5.765  0.00  0.00    +0.047 C 
ATOM      5  C   LIG    1       25.044 -22.736   6.421  0.00  0.00    -0.059 C 
ATOM      6  C   LIG    1       25.247 -21.391   6.360  0.00  0.00    -0.010 C 
ATOM      7  C   LIG    1       26.462 -20.769   6.946  0.00  0.00    -0.010 A 
ATOM      8  C   LIG    1       27.413 -20.150   6.111  0.00  0.00    -0.017 A 
ATOM      9  C   LIG    1       28.551 -19.570   6.694  0.00  0.00    +0.008 A 
ATOM     10  C   LIG    1       28.721 -19.564   8.081  0.00  0.00    +0.001 A 
ATOM     11  C   LIG    1       27.758 -20.141   8.904  0.00  0.00    +0.001 A 
ATOM     12  C   LIG    1       27.295 -20.116   4.640  0.00  0.00    +0.009 C 
ATOM     13  C   LIG    1       26.166 -19.981   3.921  0.00  0.00    +0.009 C 
ATOM     14  C   LIG    1       24.794 -19.836   4.444  0.00  0.00    -0.017 A 
ATOM     15  C   LIG    1       23.903 -19.013   3.736  0.00  0.00    +0.008 A 
ATOM     16  C   LIG    1       22.592 -18.827   4.181  0.00  0.00    +0.001 A 
ATOM     17  C   LIG    1       22.153 -19.460   5.339  0.00  0.00    +0.001 A 
ATOM     18  C   LIG    1       23.018 -20.294   6.046  0.00  0.00    +0.009 A 
ATOM     19  C   LIG    1       26.629 -20.735   8.341  0.00  0.00    +0.009 A 
ATOM     20  C   LIG    1       24.329 -20.509   5.592  0.00  0.00    -0.010 A 
ATOM     21  C   LIG    1       25.986 -23.724   7.099  0.00  0.00    +0.047 C 
ATOM     22  C   LIG    1       26.379 -24.881   6.163  0.00  0.00    +0.088 C 
ENDROOT
TORSDOF 0
ENDMDL
MODEL 3
REMARK VINA RESULT:      -7.5      2.018      4.939
REMARK  Name = *****
REMARK                            x       y       z     vdW  Elec       q    Type
REMARK                         _______ _______ _______ _____ _____    ______ ____
ROOT
ATOM      1  C   LIG    1       25.440 -27.231   5.496  0.00  0.00    +0.105 C 
ATOM      2  N   LIG    1       24.773 -26.338   6.440  0.00  0.00    -0.305 NA
ATOM      3  C   LIG    1       25.734 -25.579   7.259  0.00  0.00    +0.088 C 
ATOM      4  C   LIG    1       26.481 -24.456   6.516  0.00  0.00    +0.047 C 
ATOM      5  C   LIG    1       25.525 -23.507   5.801  0.00  0.00    -0.059 C 
ATOM      6  C   LIG    1       25.533 -22.153   5.938  0.00  0.00    -0.010 C 
ATOM      7  C   LIG    1       24.505 -21.306   5.280  0.00  0.00    -0.010 A 
ATOM      8  C   LIG    1       23.577 -20.585   6.058  0.00  0.00    -0.017 A 
ATOM      9  C   LIG    1       22.618 -19.794   5.407  0.00  0.00    +0.008 A 
ATOM     10  C   LIG    1       22.606 -19.684   4.014  0.00  0.00    +0.001 A 
ATOM     11  C   LIG    1       23.550 -20.366   3.252  0.00  0.00    +0.001 A 
ATOM     12  C   LIG    1       23.535 -20.652   7.531  0.00  0.00    +0.009 C 
ATOM     13  C   LIG    1       24.585 -20.746   8.368  0.00  0.00    +0.009 C 
ATOM     14  C   LIG    1       26.012 -20.801   7.998  0.00  0.00    -0.017 A 
ATOM     15  C   LIG    1       26.938 -20.178   8.849  0.00  0.00    +0.008 A 
ATOM     16  C   LIG    1       28.303 -20.187   8.553  0.00  0.00    +0.001 A 
ATOM     17  C   LIG    1       28.762 -20.820   7.401  0.00  0.00    +0.001 A 
ATOM     18  C   LIG    1       27.859 -21.459   6.554  0.00  0.00    +0.009 A 
ATOM     19  C   LIG    1       24.501 -21.169   3.881  0.00  0.00    +0.009 A 
ATOM     20  C   LIG    1       26.488 -21.478   6.856  0.00  0.00    -0.010 A 
ATOM     21  C   LIG    1       24.519 -24.286   4.963  0.00  0.00    +0.047 C 
ATOM     22  C   LIG    1       23.846 -25.412   5.768  0.00  0.00    +0.088 C 
ENDROOT
TORSDOF 0
ENDMDL
MODEL 4
REMARK VINA RESULT:      -6.9      6.081      9.427
REMARK  Name = *****
REMARK                            x       y       z     vdW  Elec       q    Type
REMARK                         _______ _______ _______ _____ _____    ______ ____
ROOT
ATOM      1  C   LIG    1       25.246 -33.825   4.535  0.00  0.00    +0.105 C 
ATOM      2  N   LIG    1       26.166 -33.125   5.428  0.00  0.00    -0.305 NA
ATOM      3  C   LIG    1       26.359 -31.719   5.033  0.00  0.00    +0.088 C 
ATOM      4  C   LIG    1       25.165 -30.791   5.316  0.00  0.00    +0.047 C 
ATOM      5  C   LIG    1       24.703 -30.876   6.767  0.00  0.00    -0.059 C 
ATOM      6  C   LIG    1       24.539 -29.805   7.591  0.00  0.00    -0.010 C 
ATOM      7  C   LIG    1       24.178 -29.983   9.021  0.00  0.00    -0.010 A 
ATOM      8  C   LIG    1       25.089 -29.616  10.032  0.00  0.00    -0.017 A 
ATOM      9  C   LIG    1       24.720 -29.795  11.374  0.00  0.00    +0.008 A 
ATOM     10  C   LIG    1       23.455 -30.287  11.710  0.00  0.00    +0.001 A 
ATOM     11  C   LIG    1       22.544 -30.610  10.708  0.00  0.00    +0.001 A 
ATOM     12  C   LIG    1       26.437 -29.088   9.750  0.00  0.00    +0.009 C 
ATOM     13  C   LIG    1       26.791 -28.265   8.746  0.00  0.00    +0.009 C 
ATOM     14  C   LIG    1       25.908 -27.706   7.704  0.00  0.00    -0.017 A 
ATOM     15  C   LIG    1       26.173 -26.406   7.244  0.00  0.00    +0.008 A 
ATOM     16  C   LIG    1       25.371 -25.815   6.265  0.00  0.00    +0.001 A 
ATOM     17  C   LIG    1       24.293 -26.515   5.732  0.00  0.00    +0.001 A 
ATOM     18  C   LIG    1       24.025 -27.813   6.164  0.00  0.00    +0.009 A 
ATOM     19  C   LIG    1       22.900 -30.452   9.369  0.00  0.00    +0.009 A 
ATOM     20  C   LIG    1       24.841 -28.425   7.129  0.00  0.00    -0.010 A 
ATOM     21  C   LIG    1       24.514 -32.329   7.187  0.00  0.00    +0.047 C 
ATOM     22  C   LIG    1       25.736 -33.195   6.835  0.00  0.00    +0.088 C 
ENDROOT
TORSDOF 0
ENDMDL
