MODEL 1
REMARK VINA RESULT:      -8.1      0.000      0.000
REMARK  Name = *****
REMARK                            x       y       z     vdW  Elec       q    Type
REMARK                         _______ _______ _______ _____ _____    ______ ____
ROOT
ATOM      1  C   LIG    1       23.932 -22.269   7.293  0.00  0.00    +0.129 C 
ATOM      2  N   LIG    1       24.805 -21.566   6.369  0.00  0.00    -0.330 N 
ATOM      3  C   LIG    1       26.135 -21.264   6.605  0.00  0.00    +0.039 C 
ATOM      4  C   LIG    1       26.554 -20.239   5.668  0.00  0.00    +0.006 C 
ATOM      5  C   LIG    1       27.766 -19.680   5.651  0.00  0.00    +0.041 C 
ATOM      6  C   LIG    1       28.783 -20.145   6.626  0.00  0.00    +0.129 C 
ATOM      7  C   LIG    1       28.353 -21.246   7.604  0.00  0.00    +0.207 C 
ATOM      8  O   LIG    1       29.130 -21.687   8.443  0.00  0.00    -0.285 OA
ATOM      9  N   LIG    1       29.968 -19.599   6.591  0.00  0.00    -0.175 NA
ATOM     10  C   LIG    1       25.395 -19.937   4.754  0.00  0.00    +0.164 C 
ATOM     11  C   LIG    1       26.970 -21.761   7.521  0.00  0.00    +0.076 C 
ATOM     12  C   LIG    1       24.186 -20.546   5.501  0.00  0.00    +0.140 C 
ENDROOT
BRANCH   9  13
ATOM     13  N   LIG    1       30.897 -20.028   7.501  0.00  0.00    -0.190 N 
ATOM     14  H   LIG    1       31.278 -20.976   7.443  0.00  0.00    +0.179 HD
ATOM     15  C   LIG    1       31.371 -19.220   8.504  0.00  0.00    +0.317 C 
ATOM     16  O   LIG    1       32.217 -19.572   9.315  0.00  0.00    -0.251 OA
ATOM     17  N   LIG    1       30.817 -17.982   8.530  0.00  0.00    -0.312 N 
ATOM     18  H   LIG    1       31.238 -17.293   9.133  0.00  0.00    +0.146 HD
ATOM     19  H   LIG    1       30.347 -17.703   7.681  0.00  0.00    +0.146 HD
ENDBRANCH   9  13
BRANCH  10  20
ATOM     20  O   LIG    1       25.611 -20.614   3.516  0.00  0.00    -0.386 OA
ATOM     21  H   LIG    1       24.924 -20.284   2.906  0.00  0.00    +0.210 HD
ENDBRANCH  10  20
TORSDOF 2
ENDMDL
MODEL 2
REMARK VINA RESULT:      -8.0      1.983      2.688
REMARK  Name = *****
REMARK                            x       y       z     vdW  Elec       q    Type
REMARK                         _______ _______ _______ _____ _____    ______ ____
ROOT
ATOM      1  C   LIG    1       24.064 -21.259   3.654  0.00  0.00    +0.129 C 
ATOM      2  N   LIG    1       24.301 -21.115   5.080  0.00  0.00    -0.330 N 
ATOM      3  C   LIG    1       25.489 -20.692   5.650  0.00  0.00    +0.039 C 
ATOM      4  C   LIG    1       25.485 -21.050   7.056  0.00  0.00    +0.006 C 
ATOM      5  C   LIG    1       26.502 -20.834   7.894  0.00  0.00    +0.041 C 
ATOM      6  C   LIG    1       27.717 -20.152   7.384  0.00  0.00    +0.129 C 
ATOM      7  C   LIG    1       27.717 -19.750   5.904  0.00  0.00    +0.207 C 
ATOM      8  O   LIG    1       28.681 -19.184   5.402  0.00  0.00    -0.285 OA
ATOM      9  N   LIG    1       28.698 -19.936   8.217  0.00  0.00    -0.175 NA
ATOM     10  C   LIG    1       24.160 -21.695   7.373  0.00  0.00    +0.164 C 
ATOM     11  C   LIG    1       26.527 -20.069   5.087  0.00  0.00    +0.076 C 
ATOM     12  C   LIG    1       23.597 -22.052   5.977  0.00  0.00    +0.140 C 
ENDROOT
BRANCH   9  13
ATOM     13  N   LIG    1       29.820 -19.315   7.736  0.00  0.00    -0.190 N 
ATOM     14  H   LIG    1       29.763 -18.367   7.353  0.00  0.00    +0.179 HD
ATOM     15  C   LIG    1       31.057 -19.909   7.760  0.00  0.00    +0.317 C 
ATOM     16  O   LIG    1       32.077 -19.367   7.357  0.00  0.00    -0.251 OA
ATOM     17  N   LIG    1       31.061 -21.167   8.269  0.00  0.00    -0.312 N 
ATOM     18  H   LIG    1       31.954 -21.590   8.465  0.00  0.00    +0.146 HD
ATOM     19  H   LIG    1       30.245 -21.414   8.810  0.00  0.00    +0.146 HD
ENDBRANCH   9  13
BRANCH  10  20
ATOM     20  O   LIG    1       23.332 -20.725   8.013  0.00  0.00    -0.386 OA
ATOM     21  H   LIG    1       22.428 -21.094   8.001  0.00  0.00    +0.210 HD
ENDBRANCH  10  20
TORSDOF 2
ENDMDL
MODEL 3
REMARK VINA RESULT:      -8.0      1.985      2.747
REMARK  Name = *****
REMARK                            x       y       z     vdW  Elec       q    Type
REMARK                         _______ _______ _______ _____ _____    ______ ____
ROOT
ATOM      1  C   LIG    1       24.686 -19.870   3.552  0.00  0.00    +0.129 C 
ATOM      2  N   LIG    1       24.775 -20.327   4.928  0.00  0.00    -0.330 N 
ATOM      3  C   LIG    1       25.946 -20.434   5.657  0.00  0.00    +0.039 C 
ATOM      4  C   LIG    1       25.703 -21.279   6.810  0.00  0.00    +0.006 C 
ATOM      5  C   LIG    1       26.635 -21.631   7.699  0.00  0.00    +0.041 C 
ATOM      6  C   LIG    1       28.014 -21.109   7.536  0.00  0.00    +0.129 C 
ATOM      7  C   LIG    1       28.271 -20.196   6.331  0.00  0.00    +0.207 C 
ATOM      8  O   LIG    1       29.382 -19.722   6.121  0.00  0.00    -0.285 OA
ATOM      9  N   LIG    1       28.912 -21.452   8.419  0.00  0.00    -0.175 NA
ATOM     10  C   LIG    1       24.248 -21.670   6.807  0.00  0.00    +0.164 C 
ATOM     11  C   LIG    1       27.149 -19.903   5.416  0.00  0.00    +0.076 C 
ATOM     12  C   LIG    1       23.796 -21.341   5.365  0.00  0.00    +0.140 C 
ENDROOT
BRANCH   9  13
ATOM     13  N   LIG    1       30.185 -20.973   8.256  0.00  0.00    -0.190 N 
ATOM     14  H   LIG    1       30.399 -20.323   7.495  0.00  0.00    +0.179 HD
ATOM     15  C   LIG    1       31.213 -21.315   9.097  0.00  0.00    +0.317 C 
ATOM     16  O   LIG    1       32.353 -20.884   8.986  0.00  0.00    -0.251 OA
ATOM     17  N   LIG    1       30.864 -22.187  10.077  0.00  0.00    -0.312 N 
ATOM     18  H   LIG    1       31.526 -22.347  10.819  0.00  0.00    +0.146 HD
ATOM     19  H   LIG    1       29.872 -22.269  10.246  0.00  0.00    +0.146 HD
ENDBRANCH   9  13
BRANCH  10  20
ATOM     20  O   LIG    1       23.560 -20.847   7.747  0.00  0.00    -0.386 OA
ATOM     21  H   LIG    1       24.139 -20.076   7.904  0.00  0.00    +0.210 HD
ENDBRANCH  10  20
TORSDOF 2
ENDMDL
MODEL 4
REMARK VINA RESULT:      -7.3      2.290      5.771
REMARK  Name = *****
REMARK                            x       y       z     vdW  Elec       q    Type
REMARK                         _______ _______ _______ _____ _____    ______ ____
ROOT
ATOM      1  C   LIG    1       30.752 -19.704   9.037  0.00  0.00    +0.129 C 
ATOM      2  N   LIG    1       30.002 -19.400   7.831  0.00  0.00    -0.330 N 
ATOM      3  C   LIG    1       28.707 -19.814   7.573  0.00  0.00    +0.039 C 
ATOM      4  C   LIG    1       28.446 -19.673   6.154  0.00  0.00    +0.006 C 
ATOM      5  C   LIG    1       27.307 -20.030   5.556  0.00  0.00    +0.041 C 
ATOM      6  C   LIG    1       26.205 -20.581   6.383  0.00  0.00    +0.129 C 
ATOM      7  C   LIG    1       26.468 -20.710   7.889  0.00  0.00    +0.207 C 
ATOM      8  O   LIG    1       25.612 -21.155   8.645  0.00  0.00    -0.285 OA
ATOM      9  N   LIG    1       25.093 -20.914   5.787  0.00  0.00    -0.175 NA
ATOM     10  C   LIG    1       29.668 -19.072   5.509  0.00  0.00    +0.164 C 
ATOM     11  C   LIG    1       27.785 -20.292   8.413  0.00  0.00    +0.076 C 
ATOM     12  C   LIG    1       30.768 -19.276   6.576  0.00  0.00    +0.140 C 
ENDROOT
BRANCH   9  13
ATOM     13  N   LIG    1       24.085 -21.430   6.558  0.00  0.00    -0.190 N 
ATOM     14  H   LIG    1       23.638 -20.856   7.277  0.00  0.00    +0.179 HD
ATOM     15  C   LIG    1       23.617 -22.710   6.396  0.00  0.00    +0.317 C 
ATOM     16  O   LIG    1       22.704 -23.187   7.055  0.00  0.00    -0.251 OA
ATOM     17  N   LIG    1       24.259 -23.420   5.434  0.00  0.00    -0.312 N 
ATOM     18  H   LIG    1       23.858 -24.301   5.155  0.00  0.00    +0.146 HD
ATOM     19  H   LIG    1       24.796 -22.869   4.779  0.00  0.00    +0.146 HD
ENDBRANCH   9  13
BRANCH  10  20
ATOM     20  O   LIG    1       29.426 -17.681   5.299  0.00  0.00    -0.386 OA
ATOM     21  H   LIG    1       29.395 -17.557   4.331  0.00  0.00    +0.210 HD
ENDBRANCH  10  20
TORSDOF 2
ENDMDL
MODEL 5
REMARK VINA RESULT:      -7.1      2.062      5.860
REMARK  Name = *****
REMARK                            x       y       z     vdW  Elec       q    Type
REMARK                         _______ _______ _______ _____ _____    ______ ____
ROOT
ATOM      1  C   LIG    1       30.791 -21.841   9.178  0.00  0.00    +0.129 C 
ATOM      2  N   LIG    1       30.304 -20.772   8.324  0.00  0.00    -0.330 N 
ATOM      3  C   LIG    1       29.097 -20.780   7.649  0.00  0.00    +0.039 C 
ATOM      4  C   LIG    1       29.134 -19.764   6.614  0.00  0.00    +0.006 C 
ATOM      5  C   LIG    1       28.149 -19.537   5.742  0.00  0.00    +0.041 C 
ATOM      6  C   LIG    1       26.907 -20.343   5.838  0.00  0.00    +0.129 C 
ATOM      7  C   LIG    1       26.853 -21.402   6.946  0.00  0.00    +0.207 C 
ATOM      8  O   LIG    1       25.865 -22.113   7.095  0.00  0.00    -0.285 OA
ATOM      9  N   LIG    1       25.948 -20.102   4.987  0.00  0.00    -0.175 NA
ATOM     10  C   LIG    1       30.455 -19.045   6.709  0.00  0.00    +0.164 C 
ATOM     11  C   LIG    1       28.027 -21.558   7.830  0.00  0.00    +0.076 C 
ATOM     12  C   LIG    1       31.313 -19.994   7.579  0.00  0.00    +0.140 C 
ENDROOT
BRANCH   9  13
ATOM     13  N   LIG    1       24.808 -20.857   5.077  0.00  0.00    -0.190 N 
ATOM     14  H   LIG    1       24.836 -21.784   5.509  0.00  0.00    +0.179 HD
ATOM     15  C   LIG    1       23.594 -20.412   4.621  0.00  0.00    +0.317 C 
ATOM     16  O   LIG    1       22.558 -21.058   4.709  0.00  0.00    -0.251 OA
ATOM     17  N   LIG    1       23.629 -19.182   4.050  0.00  0.00    -0.312 N 
ATOM     18  H   LIG    1       22.750 -18.734   3.847  0.00  0.00    +0.146 HD
ATOM     19  H   LIG    1       24.449 -18.632   4.264  0.00  0.00    +0.146 HD
ENDBRANCH   9  13
BRANCH  10  20
ATOM     20  O   LIG    1       30.244 -17.805   7.381  0.00  0.00    -0.386 OA
ATOM     21  H   LIG    1       30.786 -17.146   6.907  0.00  0.00    +0.210 HD
ENDBRANCH  10  20
TORSDOF 2
ENDMDL
MODEL 6
REMARK VINA RESULT:      -7.0      4.618      7.276
REMARK  Name = *****
REMARK                            x       y       z     vdW  Elec       q    Type
REMARK                         _______ _______ _______ _____ _____    ______ ____
ROOT
ATOM      1  C   LIG    1       26.541 -20.564   6.206  0.00  0.00    +0.129 C 
ATOM      2  N   LIG    1       25.398 -21.371   6.598  0.00  0.00    -0.330 N 
ATOM      3  C   LIG    1       25.337 -22.751   6.529  0.00  0.00    +0.039 C 
ATOM      4  C   LIG    1       23.949 -23.162   6.615  0.00  0.00    +0.006 C 
ATOM      5  C   LIG    1       23.528 -24.426   6.530  0.00  0.00    +0.041 C 
ATOM      6  C   LIG    1       24.532 -25.507   6.370  0.00  0.00    +0.129 C 
ATOM      7  C   LIG    1       26.004 -25.080   6.302  0.00  0.00    +0.207 C 
ATOM      8  O   LIG    1       26.898 -25.908   6.169  0.00  0.00    -0.285 OA
ATOM      9  N   LIG    1       24.107 -26.739   6.300  0.00  0.00    -0.175 NA
ATOM     10  C   LIG    1       23.105 -21.928   6.808  0.00  0.00    +0.164 C 
ATOM     11  C   LIG    1       26.325 -23.640   6.391  0.00  0.00    +0.076 C 
ATOM     12  C   LIG    1       24.060 -20.780   6.404  0.00  0.00    +0.140 C 
ENDROOT
BRANCH   9  13
ATOM     13  N   LIG    1       25.041 -27.729   6.142  0.00  0.00    -0.190 N 
ATOM     14  H   LIG    1       25.994 -27.600   6.490  0.00  0.00    +0.179 HD
ATOM     15  C   LIG    1       24.747 -28.926   5.541  0.00  0.00    +0.317 C 
ATOM     16  O   LIG    1       25.556 -29.835   5.408  0.00  0.00    -0.251 OA
ATOM     17  N   LIG    1       23.470 -29.027   5.093  0.00  0.00    -0.312 N 
ATOM     18  H   LIG    1       23.149 -29.934   4.794  0.00  0.00    +0.146 HD
ATOM     19  H   LIG    1       22.825 -28.355   5.482  0.00  0.00    +0.146 HD
ENDBRANCH   9  13
BRANCH  10  20
ATOM     20  O   LIG    1       22.761 -21.831   8.189  0.00  0.00    -0.386 OA
ATOM     21  H   LIG    1       23.603 -21.708   8.668  0.00  0.00    +0.210 HD
ENDBRANCH  10  20
TORSDOF 2
ENDMDL
MODEL 7
REMARK VINA RESULT:      -7.0      4.682      7.028
REMARK  Name = *****
REMARK                            x       y       z     vdW  Elec       q    Type
REMARK                         _______ _______ _______ _____ _____    ______ ____
ROOT
ATOM      1  C   LIG    1       26.009 -21.130   8.116  0.00  0.00    +0.129 C 
ATOM      2  N   LIG    1       25.308 -21.744   7.001  0.00  0.00    -0.330 N 
ATOM      3  C   LIG    1       25.378 -23.082   6.657  0.00  0.00    +0.039 C 
ATOM      4  C   LIG    1       24.889 -23.241   5.300  0.00  0.00    +0.006 C 
ATOM      5  C   LIG    1       24.866 -24.398   4.636  0.00  0.00    +0.041 C 
ATOM      6  C   LIG    1       25.335 -25.628   5.321  0.00  0.00    +0.129 C 
ATOM      7  C   LIG    1       25.831 -25.469   6.764  0.00  0.00    +0.207 C 
ATOM      8  O   LIG    1       26.238 -26.433   7.403  0.00  0.00    -0.285 OA
ATOM      9  N   LIG    1       25.295 -26.754   4.664  0.00  0.00    -0.175 NA
ATOM     10  C   LIG    1       24.434 -21.892   4.805  0.00  0.00    +0.164 C 
ATOM     11  C   LIG    1       25.819 -24.122   7.370  0.00  0.00    +0.076 C 
ATOM     12  C   LIG    1       25.084 -20.909   5.805  0.00  0.00    +0.140 C 
ENDROOT
BRANCH   9  13
ATOM     13  N   LIG    1       25.740 -27.883   5.302  0.00  0.00    -0.190 N 
ATOM     14  H   LIG    1       26.707 -27.943   5.632  0.00  0.00    +0.179 HD
ATOM     15  C   LIG    1       24.926 -28.959   5.544  0.00  0.00    +0.317 C 
ATOM     16  O   LIG    1       25.292 -29.969   6.130  0.00  0.00    -0.251 OA
ATOM     17  N   LIG    1       23.662 -28.820   5.071  0.00  0.00    -0.312 N 
ATOM     18  H   LIG    1       22.976 -29.499   5.359  0.00  0.00    +0.146 HD
ATOM     19  H   LIG    1       23.387 -27.873   4.852  0.00  0.00    +0.146 HD
ENDBRANCH   9  13
BRANCH  10  20
ATOM     20  O   LIG    1       23.011 -21.836   4.900  0.00  0.00    -0.386 OA
ATOM     21  H   LIG    1       22.729 -21.123   4.296  0.00  0.00    +0.210 HD
ENDBRANCH  10  20
TORSDOF 2
ENDMDL
MODEL 8
REMARK VINA RESULT:      -6.8      1.714      6.315
REMARK  Name = *****
REMARK                            x       y       z     vdW  Elec       q    Type
REMARK                         _______ _______ _______ _____ _____    ______ ____
ROOT
ATOM      1  C   LIG    1       31.861 -18.064   7.879  0.00  0.00    +0.129 C 
ATOM      2  N   LIG    1       31.245 -19.376   7.978  0.00  0.00    -0.330 N 
ATOM      3  C   LIG    1       30.040 -19.735   7.400  0.00  0.00    +0.039 C 
ATOM      4  C   LIG    1       29.565 -20.953   8.030  0.00  0.00    +0.006 C 
ATOM      5  C   LIG    1       28.404 -21.548   7.746  0.00  0.00    +0.041 C 
ATOM      6  C   LIG    1       27.537 -20.962   6.694  0.00  0.00    +0.129 C 
ATOM      7  C   LIG    1       28.046 -19.687   6.008  0.00  0.00    +0.207 C 
ATOM      8  O   LIG    1       27.392 -19.137   5.129  0.00  0.00    -0.285 OA
ATOM      9  N   LIG    1       26.411 -21.561   6.417  0.00  0.00    -0.175 NA
ATOM     10  C   LIG    1       30.598 -21.396   9.034  0.00  0.00    +0.164 C 
ATOM     11  C   LIG    1       29.344 -19.126   6.436  0.00  0.00    +0.076 C 
ATOM     12  C   LIG    1       31.472 -20.134   9.224  0.00  0.00    +0.140 C 
ENDROOT
BRANCH   9  13
ATOM     13  N   LIG    1       25.613 -21.007   5.451  0.00  0.00    -0.190 N 
ATOM     14  H   LIG    1       25.642 -20.000   5.271  0.00  0.00    +0.179 HD
ATOM     15  C   LIG    1       24.766 -21.759   4.678  0.00  0.00    +0.317 C 
ATOM     16  O   LIG    1       24.059 -21.292   3.795  0.00  0.00    -0.251 OA
ATOM     17  N   LIG    1       24.767 -23.083   4.976  0.00  0.00    -0.312 N 
ATOM     18  H   LIG    1       24.295 -23.707   4.341  0.00  0.00    +0.146 HD
ATOM     19  H   LIG    1       25.559 -23.401   5.516  0.00  0.00    +0.146 HD
ENDBRANCH   9  13
BRANCH  10  20
ATOM     20  O   LIG    1       31.363 -22.451   8.454  0.00  0.00    -0.386 OA
ATOM     21  H   LIG    1       30.746 -23.198   8.336  0.00  0.00    +0.210 HD
ENDBRANCH  10  20
TORSDOF 2
ENDMDL
MODEL 9
REMARK VINA RESULT:      -6.8      1.925      6.288
REMARK  Name = *****
REMARK                            x       y       z     vdW  Elec       q    Type
REMARK                         _______ _______ _______ _____ _____    ______ ____
ROOT
ATOM      1  C   LIG    1       32.197 -17.718   8.576  0.00  0.00    +0.129 C 
ATOM      2  N   LIG    1       31.565 -19.006   8.354  0.00  0.00    -0.330 N 
ATOM      3  C   LIG    1       30.493 -19.232   7.508  0.00  0.00    +0.039 C 
ATOM      4  C   LIG    1       29.896 -20.511   7.842  0.00  0.00    +0.006 C 
ATOM      5  C   LIG    1       28.809 -21.015   7.253  0.00  0.00    +0.041 C 
ATOM      6  C   LIG    1       28.169 -20.249   6.155  0.00  0.00    +0.129 C 
ATOM      7  C   LIG    1       28.811 -18.907   5.781  0.00  0.00    +0.207 C 
ATOM      8  O   LIG    1       28.346 -18.209   4.887  0.00  0.00    -0.285 OA
ATOM      9  N   LIG    1       27.114 -20.759   5.580  0.00  0.00    -0.175 NA
ATOM     10  C   LIG    1       30.709 -21.134   8.948  0.00  0.00    +0.164 C 
ATOM     11  C   LIG    1       30.004 -18.462   6.532  0.00  0.00    +0.076 C 
ATOM     12  C   LIG    1       31.537 -19.947   9.491  0.00  0.00    +0.140 C 
ENDROOT
BRANCH   9  13
ATOM     13  N   LIG    1       26.525 -20.040   4.574  0.00  0.00    -0.190 N 
ATOM     14  H   LIG    1       27.097 -19.491   3.926  0.00  0.00    +0.179 HD
ATOM     15  C   LIG    1       25.168 -20.033   4.373  0.00  0.00    +0.317 C 
ATOM     16  O   LIG    1       24.619 -19.418   3.469  0.00  0.00    -0.251 OA
ATOM     17  N   LIG    1       24.468 -20.771   5.272  0.00  0.00    -0.312 N 
ATOM     18  H   LIG    1       23.493 -20.939   5.082  0.00  0.00    +0.146 HD
ATOM     19  H   LIG    1       25.013 -21.440   5.796  0.00  0.00    +0.146 HD
ENDBRANCH   9  13
BRANCH  10  20
ATOM     20  O   LIG    1       31.565 -22.120   8.373  0.00  0.00    -0.386 OA
ATOM     21  H   LIG    1       32.087 -21.658   7.689  0.00  0.00    +0.210 HD
ENDBRANCH  10  20
TORSDOF 2
ENDMDL
