MODEL 1
REMARK VINA RESULT:      -7.6      0.000      0.000
REMARK  Name = *****
REMARK                            x       y       z     vdW  Elec       q    Type
REMARK                         _______ _______ _______ _____ _____    ______ ____
ROOT
ATOM      1  C   LIG    1       25.493 -21.664   6.576  0.00  0.00    +0.011 C 
ATOM      2  C   LIG    1       26.709 -21.320   7.562  0.00  0.00    +0.013 C 
ATOM      3  C   LIG    1       25.721 -20.835   8.625  0.00  0.00    +0.002 C 
ATOM      4  C   LIG    1       24.631 -20.776   7.564  0.00  0.00    +0.013 C 
ENDROOT
BRANCH   1   5
ATOM      5  C   LIG    1       25.198 -23.280   6.591  0.00  0.00    -0.040 A 
ATOM      6  C   LIG    1       26.209 -24.252   6.537  0.00  0.00    +0.006 A 
ATOM      7  C   LIG    1       25.938 -25.624   6.445  0.00  0.00    +0.020 A 
ATOM      8  C   LIG    1       24.610 -26.055   6.362  0.00  0.00    +0.041 A 
ATOM      9 CL   LIG    1       24.270 -27.733   6.194  0.00  0.00    -0.084 Cl
ATOM     10  C   LIG    1       23.583 -25.138   6.401  0.00  0.00    +0.020 A 
ATOM     11  C   LIG    1       23.867 -23.775   6.534  0.00  0.00    +0.006 A 
ENDBRANCH   1   5
BRANCH   1  12
ATOM     12  C   LIG    1       25.584 -21.024   5.105  0.00  0.00    +0.067 C 
BRANCH  12  13
ATOM     13  N   LIG    1       26.266 -19.707   4.985  0.00  0.00    -0.305 NA
ATOM     14  C   LIG    1       25.943 -18.914   3.806  0.00  0.00    +0.105 C 
ATOM     15  C   LIG    1       27.690 -19.644   5.272  0.00  0.00    +0.105 C 
ENDBRANCH  12  13
BRANCH  12  16
ATOM     16  C   LIG    1       24.193 -21.030   4.386  0.00  0.00    +0.022 C 
BRANCH  16  18
ATOM     17  C   LIG    1       22.582 -19.122   4.750  0.00  0.00    +0.007 C 
ATOM     18  C   LIG    1       22.913 -20.570   5.160  0.00  0.00    -0.016 C 
ATOM     19  C   LIG    1       21.638 -21.403   4.976  0.00  0.00    +0.007 C 
ENDBRANCH  16  18
ENDBRANCH  12  16
ENDBRANCH   1  12
TORSDOF 5
ENDMDL
MODEL 2
REMARK VINA RESULT:      -7.4      2.888      5.493
REMARK  Name = *****
REMARK                            x       y       z     vdW  Elec       q    Type
REMARK                         _______ _______ _______ _____ _____    ______ ____
ROOT
ATOM      1  C   LIG    1       24.860 -20.926   5.290  0.00  0.00    +0.011 C 
ATOM      2  C   LIG    1       24.984 -20.693   3.709  0.00  0.00    +0.013 C 
ATOM      3  C   LIG    1       24.115 -19.439   3.817  0.00  0.00    +0.002 C 
ATOM      4  C   LIG    1       23.672 -19.882   5.204  0.00  0.00    +0.013 C 
ENDROOT
BRANCH   1   5
ATOM      5  C   LIG    1       26.231 -20.421   6.041  0.00  0.00    -0.040 A 
ATOM      6  C   LIG    1       27.395 -20.042   5.355  0.00  0.00    +0.006 A 
ATOM      7  C   LIG    1       28.589 -19.714   6.010  0.00  0.00    +0.020 A 
ATOM      8  C   LIG    1       28.651 -19.802   7.405  0.00  0.00    +0.041 A 
ATOM      9 CL   LIG    1       30.128 -19.455   8.214  0.00  0.00    -0.084 Cl
ATOM     10  C   LIG    1       27.537 -20.178   8.123  0.00  0.00    +0.020 A 
ATOM     11  C   LIG    1       26.340 -20.464   7.458  0.00  0.00    +0.006 A 
ENDBRANCH   1   5
BRANCH   1  12
ATOM     12  C   LIG    1       24.358 -22.383   5.745  0.00  0.00    +0.067 C 
BRANCH  12  13
ATOM     13  N   LIG    1       23.123 -22.442   6.574  0.00  0.00    -0.305 NA
ATOM     14  C   LIG    1       23.154 -21.716   7.836  0.00  0.00    +0.105 C 
ATOM     15  C   LIG    1       22.469 -23.731   6.738  0.00  0.00    +0.105 C 
ENDBRANCH  12  13
BRANCH  12  16
ATOM     16  C   LIG    1       25.520 -23.226   6.367  0.00  0.00    +0.022 C 
BRANCH  16  18
ATOM     17  C   LIG    1       25.713 -25.670   6.967  0.00  0.00    +0.007 C 
ATOM     18  C   LIG    1       25.830 -24.657   5.813  0.00  0.00    -0.016 C 
ATOM     19  C   LIG    1       24.960 -25.172   4.659  0.00  0.00    +0.007 C 
ENDBRANCH  16  18
ENDBRANCH  12  16
ENDBRANCH   1  12
TORSDOF 5
ENDMDL
MODEL 3
REMARK VINA RESULT:      -7.3      1.384      3.371
REMARK  Name = *****
REMARK                            x       y       z     vdW  Elec       q    Type
REMARK                         _______ _______ _______ _____ _____    ______ ____
ROOT
ATOM      1  C   LIG    1       24.903 -21.213   6.329  0.00  0.00    +0.011 C 
ATOM      2  C   LIG    1       24.873 -20.934   7.908  0.00  0.00    +0.013 C 
ATOM      3  C   LIG    1       23.343 -20.921   7.885  0.00  0.00    +0.002 C 
ATOM      4  C   LIG    1       23.381 -20.776   6.370  0.00  0.00    +0.013 C 
ENDROOT
BRANCH   1   5
ATOM      5  C   LIG    1       25.205 -22.803   6.046  0.00  0.00    -0.040 A 
ATOM      6  C   LIG    1       24.744 -23.488   4.912  0.00  0.00    +0.006 A 
ATOM      7  C   LIG    1       24.920 -24.868   4.736  0.00  0.00    +0.020 A 
ATOM      8  C   LIG    1       25.544 -25.612   5.743  0.00  0.00    +0.041 A 
ATOM      9 CL   LIG    1       25.716 -27.313   5.559  0.00  0.00    -0.084 Cl
ATOM     10  C   LIG    1       26.006 -24.985   6.878  0.00  0.00    +0.020 A 
ATOM     11  C   LIG    1       25.860 -23.602   7.023  0.00  0.00    +0.006 A 
ENDBRANCH   1   5
BRANCH   1  12
ATOM     12  C   LIG    1       25.802 -20.205   5.459  0.00  0.00    +0.067 C 
BRANCH  12  13
ATOM     13  N   LIG    1       25.396 -19.993   4.043  0.00  0.00    -0.305 NA
ATOM     14  C   LIG    1       25.639 -18.668   3.490  0.00  0.00    +0.105 C 
ATOM     15  C   LIG    1       24.099 -20.497   3.619  0.00  0.00    +0.105 C 
ENDBRANCH  12  13
BRANCH  12  16
ATOM     16  C   LIG    1       27.327 -20.535   5.587  0.00  0.00    +0.022 C 
BRANCH  16  18
ATOM     17  C   LIG    1       28.635 -21.176   7.648  0.00  0.00    +0.007 C 
ATOM     18  C   LIG    1       28.144 -19.985   6.804  0.00  0.00    -0.016 C 
ATOM     19  C   LIG    1       29.362 -19.105   6.498  0.00  0.00    +0.007 C 
ENDBRANCH  16  18
ENDBRANCH  12  16
ENDBRANCH   1  12
TORSDOF 5
ENDMDL
MODEL 4
REMARK VINA RESULT:      -7.3      1.547      2.579
REMARK  Name = *****
REMARK                            x       y       z     vdW  Elec       q    Type
REMARK                         _______ _______ _______ _____ _____    ______ ____
ROOT
ATOM      1  C   LIG    1       24.912 -22.321   6.364  0.00  0.00    +0.011 C 
ATOM      2  C   LIG    1       24.450 -22.175   7.892  0.00  0.00    +0.013 C 
ATOM      3  C   LIG    1       22.989 -22.074   7.449  0.00  0.00    +0.002 C 
ATOM      4  C   LIG    1       23.453 -21.804   6.025  0.00  0.00    +0.013 C 
ENDROOT
BRANCH   1   5
ATOM      5  C   LIG    1       25.232 -23.896   6.023  0.00  0.00    -0.040 A 
ATOM      6  C   LIG    1       24.909 -24.505   4.801  0.00  0.00    +0.006 A 
ATOM      7  C   LIG    1       25.093 -25.874   4.563  0.00  0.00    +0.020 A 
ATOM      8  C   LIG    1       25.582 -26.687   5.592  0.00  0.00    +0.041 A 
ATOM      9 CL   LIG    1       25.759 -28.377   5.327  0.00  0.00    -0.084 Cl
ATOM     10  C   LIG    1       25.904 -26.137   6.812  0.00  0.00    +0.020 A 
ATOM     11  C   LIG    1       25.754 -24.762   7.022  0.00  0.00    +0.006 A 
ENDBRANCH   1   5
BRANCH   1  12
ATOM     12  C   LIG    1       26.049 -21.296   5.877  0.00  0.00    +0.067 C 
BRANCH  12  13
ATOM     13  N   LIG    1       27.175 -21.043   6.816  0.00  0.00    -0.305 NA
ATOM     14  C   LIG    1       26.845 -20.347   8.052  0.00  0.00    +0.105 C 
ATOM     15  C   LIG    1       28.427 -20.549   6.266  0.00  0.00    +0.105 C 
ENDBRANCH  12  13
BRANCH  12  16
ATOM     16  C   LIG    1       25.431 -19.964   5.334  0.00  0.00    +0.022 C 
BRANCH  16  18
ATOM     17  C   LIG    1       24.238 -20.250   3.128  0.00  0.00    +0.007 C 
ATOM     18  C   LIG    1       25.485 -19.646   3.802  0.00  0.00    -0.016 C 
ATOM     19  C   LIG    1       25.563 -18.172   3.387  0.00  0.00    +0.007 C 
ENDBRANCH  16  18
ENDBRANCH  12  16
ENDBRANCH   1  12
TORSDOF 5
ENDMDL
MODEL 5
REMARK VINA RESULT:      -7.0      1.464      2.805
REMARK  Name = *****
REMARK                            x       y       z     vdW  Elec       q    Type
REMARK                         _______ _______ _______ _____ _____    ______ ____
ROOT
ATOM      1  C   LIG    1       25.475 -21.228   6.404  0.00  0.00    +0.011 C 
ATOM      2  C   LIG    1       26.900 -20.601   6.023  0.00  0.00    +0.013 C 
ATOM      3  C   LIG    1       27.248 -20.471   7.508  0.00  0.00    +0.002 C 
ATOM      4  C   LIG    1       25.781 -20.673   7.856  0.00  0.00    +0.013 C 
ENDROOT
BRANCH   1   5
ATOM      5  C   LIG    1       25.512 -22.860   6.216  0.00  0.00    -0.040 A 
ATOM      6  C   LIG    1       25.035 -23.519   5.073  0.00  0.00    +0.006 A 
ATOM      7  C   LIG    1       24.977 -24.915   4.971  0.00  0.00    +0.020 A 
ATOM      8  C   LIG    1       25.371 -25.698   6.062  0.00  0.00    +0.041 A 
ATOM      9 CL   LIG    1       25.252 -27.411   5.966  0.00  0.00    -0.084 Cl
ATOM     10  C   LIG    1       25.839 -25.096   7.209  0.00  0.00    +0.020 A 
ATOM     11  C   LIG    1       25.929 -23.703   7.282  0.00  0.00    +0.006 A 
ENDBRANCH   1   5
BRANCH   1  12
ATOM     12  C   LIG    1       24.198 -20.516   5.737  0.00  0.00    +0.067 C 
BRANCH  12  13
ATOM     13  N   LIG    1       22.858 -21.001   6.163  0.00  0.00    -0.305 NA
ATOM     14  C   LIG    1       22.823 -21.864   7.336  0.00  0.00    +0.105 C 
ATOM     15  C   LIG    1       21.949 -21.491   5.138  0.00  0.00    +0.105 C 
ENDBRANCH  12  13
BRANCH  12  16
ATOM     16  C   LIG    1       24.325 -20.445   4.178  0.00  0.00    +0.022 C 
BRANCH  16  18
ATOM     17  C   LIG    1       23.051 -18.270   4.064  0.00  0.00    +0.007 C 
ATOM     18  C   LIG    1       24.218 -19.064   3.449  0.00  0.00    -0.016 C 
ATOM     19  C   LIG    1       25.454 -18.156   3.469  0.00  0.00    +0.007 C 
ENDBRANCH  16  18
ENDBRANCH  12  16
ENDBRANCH   1  12
TORSDOF 5
ENDMDL
MODEL 6
REMARK VINA RESULT:      -6.9      2.935      5.155
REMARK  Name = *****
REMARK                            x       y       z     vdW  Elec       q    Type
REMARK                         _______ _______ _______ _____ _____    ______ ____
ROOT
ATOM      1  C   LIG    1       25.572 -21.590   6.718  0.00  0.00    +0.011 C 
ATOM      2  C   LIG    1       24.608 -20.427   7.257  0.00  0.00    +0.013 C 
ATOM      3  C   LIG    1       24.524 -21.117   8.620  0.00  0.00    +0.002 C 
ATOM      4  C   LIG    1       25.082 -22.388   7.996  0.00  0.00    +0.013 C 
ENDROOT
BRANCH   1   5
ATOM      5  C   LIG    1       27.132 -21.073   6.726  0.00  0.00    -0.040 A 
ATOM      6  C   LIG    1       28.101 -21.552   7.621  0.00  0.00    +0.006 A 
ATOM      7  C   LIG    1       29.399 -21.028   7.685  0.00  0.00    +0.020 A 
ATOM      8  C   LIG    1       29.745 -19.955   6.856  0.00  0.00    +0.041 A 
ATOM      9 CL   LIG    1       31.319 -19.269   6.967  0.00  0.00    -0.084 Cl
ATOM     10  C   LIG    1       28.825 -19.444   5.968  0.00  0.00    +0.020 A 
ATOM     11  C   LIG    1       27.546 -20.004   5.886  0.00  0.00    +0.006 A 
ENDBRANCH   1   5
BRANCH   1  12
ATOM     12  C   LIG    1       25.117 -22.295   5.348  0.00  0.00    +0.067 C 
BRANCH  12  13
ATOM     13  N   LIG    1       24.204 -21.522   4.464  0.00  0.00    -0.305 NA
ATOM     14  C   LIG    1       24.784 -20.379   3.771  0.00  0.00    +0.105 C 
ATOM     15  C   LIG    1       22.877 -21.200   4.964  0.00  0.00    +0.105 C 
ENDBRANCH  12  13
BRANCH  12  16
ATOM     16  C   LIG    1       24.599 -23.752   5.593  0.00  0.00    +0.022 C 
BRANCH  16  18
ATOM     17  C   LIG    1       25.778 -25.568   6.889  0.00  0.00    +0.007 C 
ATOM     18  C   LIG    1       25.588 -24.960   5.487  0.00  0.00    -0.016 C 
ATOM     19  C   LIG    1       25.209 -26.103   4.537  0.00  0.00    +0.007 C 
ENDBRANCH  16  18
ENDBRANCH  12  16
ENDBRANCH   1  12
TORSDOF 5
ENDMDL
MODEL 7
REMARK VINA RESULT:      -6.7      3.058      5.041
REMARK  Name = *****
REMARK                            x       y       z     vdW  Elec       q    Type
REMARK                         _______ _______ _______ _____ _____    ______ ____
ROOT
ATOM      1  C   LIG    1       25.814 -21.676   6.549  0.00  0.00    +0.011 C 
ATOM      2  C   LIG    1       25.399 -22.436   7.898  0.00  0.00    +0.013 C 
ATOM      3  C   LIG    1       25.827 -23.772   7.286  0.00  0.00    +0.002 C 
ATOM      4  C   LIG    1       25.831 -23.125   5.909  0.00  0.00    +0.013 C 
ENDROOT
BRANCH   1   5
ATOM      5  C   LIG    1       27.270 -20.941   6.746  0.00  0.00    -0.040 A 
ATOM      6  C   LIG    1       27.750 -19.933   5.895  0.00  0.00    +0.006 A 
ATOM      7  C   LIG    1       29.037 -19.390   6.013  0.00  0.00    +0.020 A 
ATOM      8  C   LIG    1       29.904 -19.892   6.989  0.00  0.00    +0.041 A 
ATOM      9 CL   LIG    1       31.504 -19.269   7.106  0.00  0.00    -0.084 Cl
ATOM     10  C   LIG    1       29.482 -20.887   7.842  0.00  0.00    +0.020 A 
ATOM     11  C   LIG    1       28.182 -21.392   7.739  0.00  0.00    +0.006 A 
ENDBRANCH   1   5
BRANCH   1  12
ATOM     12  C   LIG    1       24.684 -20.737   5.900  0.00  0.00    +0.067 C 
BRANCH  12  13
ATOM     13  N   LIG    1       23.311 -20.848   6.463  0.00  0.00    -0.305 NA
ATOM     14  C   LIG    1       23.186 -20.687   7.905  0.00  0.00    +0.105 C 
ATOM     15  C   LIG    1       22.463 -21.932   5.991  0.00  0.00    +0.105 C 
ENDBRANCH  12  13
BRANCH  12  16
ATOM     16  C   LIG    1       24.684 -20.830   4.337  0.00  0.00    +0.022 C 
BRANCH  16  18
ATOM     17  C   LIG    1       23.129 -18.879   3.959  0.00  0.00    +0.007 C 
ATOM     18  C   LIG    1       24.432 -19.545   3.479  0.00  0.00    -0.016 C 
ATOM     19  C   LIG    1       25.526 -18.470   3.478  0.00  0.00    +0.007 C 
ENDBRANCH  16  18
ENDBRANCH  12  16
ENDBRANCH   1  12
TORSDOF 5
ENDMDL
MODEL 8
REMARK VINA RESULT:      -6.6      1.087      3.328
REMARK  Name = *****
REMARK                            x       y       z     vdW  Elec       q    Type
REMARK                         _______ _______ _______ _____ _____    ______ ____
ROOT
ATOM      1  C   LIG    1       24.241 -21.022   5.491  0.00  0.00    +0.011 C 
ATOM      2  C   LIG    1       23.017 -20.346   6.276  0.00  0.00    +0.013 C 
ATOM      3  C   LIG    1       22.282 -20.121   4.953  0.00  0.00    +0.002 C 
ATOM      4  C   LIG    1       23.582 -20.377   4.203  0.00  0.00    +0.013 C 
ENDROOT
BRANCH   1   5
ATOM      5  C   LIG    1       24.154 -22.658   5.621  0.00  0.00    -0.040 A 
ATOM      6  C   LIG    1       23.404 -23.318   6.606  0.00  0.00    +0.006 A 
ATOM      7  C   LIG    1       23.424 -24.710   6.769  0.00  0.00    +0.020 A 
ATOM      8  C   LIG    1       24.252 -25.483   5.949  0.00  0.00    +0.041 A 
ATOM      9 CL   LIG    1       24.324 -27.186   6.178  0.00  0.00    -0.084 Cl
ATOM     10  C   LIG    1       25.015 -24.880   4.974  0.00  0.00    +0.020 A 
ATOM     11  C   LIG    1       24.954 -23.494   4.795  0.00  0.00    +0.006 A 
ENDBRANCH   1   5
BRANCH   1  12
ATOM     12  C   LIG    1       25.693 -20.412   5.803  0.00  0.00    +0.067 C 
BRANCH  12  13
ATOM     13  N   LIG    1       26.430 -19.809   4.659  0.00  0.00    -0.305 NA
ATOM     14  C   LIG    1       27.784 -19.346   4.930  0.00  0.00    +0.105 C 
ATOM     15  C   LIG    1       25.722 -18.860   3.813  0.00  0.00    +0.105 C 
ENDBRANCH  12  13
BRANCH  12  16
ATOM     16  C   LIG    1       26.583 -21.420   6.605  0.00  0.00    +0.022 C 
BRANCH  16  18
ATOM     17  C   LIG    1       28.068 -20.203   8.243  0.00  0.00    +0.007 C 
ATOM     18  C   LIG    1       26.873 -21.168   8.122  0.00  0.00    -0.016 C 
ATOM     19  C   LIG    1       25.733 -20.597   8.975  0.00  0.00    +0.007 C 
ENDBRANCH  16  18
ENDBRANCH  12  16
ENDBRANCH   1  12
TORSDOF 5
ENDMDL
MODEL 9
REMARK VINA RESULT:      -6.4      1.437      3.970
REMARK  Name = *****
REMARK                            x       y       z     vdW  Elec       q    Type
REMARK                         _______ _______ _______ _____ _____    ______ ____
ROOT
ATOM      1  C   LIG    1       25.264 -21.908   6.246  0.00  0.00    +0.011 C 
ATOM      2  C   LIG    1       23.924 -21.183   6.746  0.00  0.00    +0.013 C 
ATOM      3  C   LIG    1       23.601 -20.772   5.308  0.00  0.00    +0.002 C 
ATOM      4  C   LIG    1       25.034 -21.092   4.909  0.00  0.00    +0.013 C 
ENDROOT
BRANCH   1   5
ATOM      5  C   LIG    1       25.027 -23.532   6.168  0.00  0.00    -0.040 A 
ATOM      6  C   LIG    1       23.759 -24.133   6.219  0.00  0.00    +0.006 A 
ATOM      7  C   LIG    1       23.579 -25.522   6.257  0.00  0.00    +0.020 A 
ATOM      8  C   LIG    1       24.702 -26.357   6.286  0.00  0.00    +0.041 A 
ATOM      9 CL   LIG    1       24.490 -28.061   6.387  0.00  0.00    -0.084 Cl
ATOM     10  C   LIG    1       25.966 -25.814   6.246  0.00  0.00    +0.020 A 
ATOM     11  C   LIG    1       26.131 -24.427   6.168  0.00  0.00    +0.006 A 
ENDBRANCH   1   5
BRANCH   1  12
ATOM     12  C   LIG    1       26.616 -21.475   6.999  0.00  0.00    +0.067 C 
BRANCH  12  13
ATOM     13  N   LIG    1       26.562 -21.389   8.483  0.00  0.00    -0.305 NA
ATOM     14  C   LIG    1       25.887 -22.480   9.173  0.00  0.00    +0.105 C 
ATOM     15  C   LIG    1       26.216 -20.110   9.083  0.00  0.00    +0.105 C 
ENDBRANCH  12  13
BRANCH  12  16
ATOM     16  C   LIG    1       27.245 -20.191   6.361  0.00  0.00    +0.022 C 
BRANCH  16  18
ATOM     17  C   LIG    1       29.141 -18.693   5.633  0.00  0.00    +0.007 C 
ATOM     18  C   LIG    1       28.796 -20.094   6.171  0.00  0.00    -0.016 C 
ATOM     19  C   LIG    1       29.676 -20.344   7.402  0.00  0.00    +0.007 C 
ENDBRANCH  16  18
ENDBRANCH  12  16
ENDBRANCH   1  12
TORSDOF 5
ENDMDL
