MODEL 1
REMARK VINA RESULT:      -8.2      0.000      0.000
REMARK  Name = *****
REMARK                            x       y       z     vdW  Elec       q    Type
REMARK                         _______ _______ _______ _____ _____    ______ ____
ROOT
ATOM      1  N   LIG    1       26.412 -20.801   6.520  0.00  0.00    -0.298 N 
ATOM      2  C   LIG    1       27.732 -20.263   6.445  0.00  0.00    +0.049 A 
ATOM      3  C   LIG    1       28.084 -19.291   5.485  0.00  0.00    +0.034 A 
ATOM      4  C   LIG    1       29.368 -18.705   5.470  0.00  0.00    +0.018 A 
ATOM      5  C   LIG    1       30.335 -19.063   6.401  0.00  0.00    +0.018 A 
ATOM      6  C   LIG    1       30.035 -20.041   7.337  0.00  0.00    +0.040 A 
ATOM      7  S   LIG    1       26.995 -18.718   4.206  0.00  0.00    -0.086 S 
ATOM      8  C   LIG    1       25.473 -19.541   4.596  0.00  0.00    +0.034 A 
ATOM      9  C   LIG    1       24.390 -19.212   3.755  0.00  0.00    +0.017 A 
ATOM     10  C   LIG    1       23.131 -19.764   3.950  0.00  0.00    +0.001 A 
ATOM     11  C   LIG    1       22.947 -20.656   4.990  0.00  0.00    +0.002 A 
ATOM     12  C   LIG    1       24.024 -20.992   5.820  0.00  0.00    +0.024 A 
ATOM     13  C   LIG    1       28.765 -20.646   7.332  0.00  0.00    +0.041 A 
ATOM     14  C   LIG    1       25.322 -20.454   5.661  0.00  0.00    +0.048 A 
ENDROOT
BRANCH   6  15
ATOM     15  S   LIG    1       31.280 -20.511   8.561  0.00  0.00    +0.051 S 
ATOM     16  O   LIG    1       30.549 -21.331   9.585  0.00  0.00    -0.252 OA
ATOM     17  C   LIG    1       31.512 -18.860   9.278  0.00  0.00    +0.127 C 
ENDBRANCH   6  15
BRANCH   1  18
ATOM     18  C   LIG    1       26.123 -21.786   7.601  0.00  0.00    +0.112 C 
BRANCH  18  19
ATOM     19  C   LIG    1       26.544 -23.204   7.176  0.00  0.00    +0.038 C 
BRANCH  19  22
ATOM     20  C   LIG    1       23.077 -24.559   6.513  0.00  0.00    +0.105 C 
ATOM     21  N   LIG    1       24.378 -23.973   6.181  0.00  0.00    -0.302 NA
ATOM     22  C   LIG    1       25.379 -24.221   7.241  0.00  0.00    +0.058 C 
ATOM     23  C   LIG    1       25.903 -25.674   7.230  0.00  0.00    +0.019 C 
ATOM     24  C   LIG    1       26.380 -26.126   5.852  0.00  0.00    +0.003 C 
ATOM     25  C   LIG    1       25.322 -25.854   4.791  0.00  0.00    +0.015 C 
ATOM     26  C   LIG    1       24.836 -24.407   4.852  0.00  0.00    +0.084 C 
ENDBRANCH  19  22
ENDBRANCH  18  19
ENDBRANCH   1  18
TORSDOF 4
ENDMDL
MODEL 2
REMARK VINA RESULT:      -7.6      1.187      1.837
REMARK  Name = *****
REMARK                            x       y       z     vdW  Elec       q    Type
REMARK                         _______ _______ _______ _____ _____    ______ ____
ROOT
ATOM      1  N   LIG    1       25.960 -21.753   6.905  0.00  0.00    -0.298 N 
ATOM      2  C   LIG    1       27.226 -21.114   6.741  0.00  0.00    +0.049 A 
ATOM      3  C   LIG    1       27.412 -20.058   5.825  0.00  0.00    +0.034 A 
ATOM      4  C   LIG    1       28.645 -19.378   5.728  0.00  0.00    +0.018 A 
ATOM      5  C   LIG    1       29.724 -19.723   6.533  0.00  0.00    +0.018 A 
ATOM      6  C   LIG    1       29.587 -20.780   7.420  0.00  0.00    +0.040 A 
ATOM      7  S   LIG    1       26.162 -19.486   4.702  0.00  0.00    -0.086 S 
ATOM      8  C   LIG    1       24.747 -20.443   5.177  0.00  0.00    +0.034 A 
ATOM      9  C   LIG    1       23.564 -20.141   4.471  0.00  0.00    +0.017 A 
ATOM     10  C   LIG    1       22.371 -20.797   4.747  0.00  0.00    +0.001 A 
ATOM     11  C   LIG    1       22.355 -21.767   5.732  0.00  0.00    +0.002 A 
ATOM     12  C   LIG    1       23.531 -22.075   6.428  0.00  0.00    +0.024 A 
ATOM     13  C   LIG    1       28.368 -21.476   7.495  0.00  0.00    +0.041 A 
ATOM     14  C   LIG    1       24.767 -21.432   6.183  0.00  0.00    +0.048 A 
ENDROOT
BRANCH   6  15
ATOM     15  S   LIG    1       30.979 -21.235   8.481  0.00  0.00    +0.051 S 
ATOM     16  O   LIG    1       30.374 -21.940   9.660  0.00  0.00    -0.252 OA
ATOM     17  C   LIG    1       31.393 -19.555   9.028  0.00  0.00    +0.127 C 
ENDBRANCH   6  15
BRANCH   1  18
ATOM     18  C   LIG    1       25.850 -22.825   7.935  0.00  0.00    +0.112 C 
BRANCH  18  19
ATOM     19  C   LIG    1       25.085 -24.039   7.381  0.00  0.00    +0.038 C 
BRANCH  19  22
ATOM     20  C   LIG    1       27.469 -26.655   6.049  0.00  0.00    +0.105 C 
ATOM     21  N   LIG    1       26.330 -26.137   6.811  0.00  0.00    -0.302 NA
ATOM     22  C   LIG    1       25.888 -24.817   6.310  0.00  0.00    +0.058 C 
ATOM     23  C   LIG    1       25.100 -24.922   4.986  0.00  0.00    +0.019 C 
ATOM     24  C   LIG    1       23.963 -25.939   5.046  0.00  0.00    +0.003 C 
ATOM     25  C   LIG    1       24.460 -27.282   5.566  0.00  0.00    +0.015 C 
ATOM     26  C   LIG    1       25.236 -27.119   6.871  0.00  0.00    +0.084 C 
ENDBRANCH  19  22
ENDBRANCH  18  19
ENDBRANCH   1  18
TORSDOF 4
ENDMDL
MODEL 3
REMARK VINA RESULT:      -7.2      2.389      5.113
REMARK  Name = *****
REMARK                            x       y       z     vdW  Elec       q    Type
REMARK                         _______ _______ _______ _____ _____    ______ ____
ROOT
ATOM      1  N   LIG    1       27.420 -20.835   6.951  0.00  0.00    -0.298 N 
ATOM      2  C   LIG    1       26.763 -20.126   5.901  0.00  0.00    +0.049 A 
ATOM      3  C   LIG    1       27.434 -19.155   5.127  0.00  0.00    +0.034 A 
ATOM      4  C   LIG    1       26.801 -18.519   4.038  0.00  0.00    +0.018 A 
ATOM      5  C   LIG    1       25.492 -18.823   3.686  0.00  0.00    +0.018 A 
ATOM      6  C   LIG    1       24.791 -19.747   4.447  0.00  0.00    +0.040 A 
ATOM      7  S   LIG    1       29.098 -18.619   5.431  0.00  0.00    -0.086 S 
ATOM      8  C   LIG    1       29.616 -19.690   6.746  0.00  0.00    +0.034 A 
ATOM      9  C   LIG    1       30.955 -19.520   7.155  0.00  0.00    +0.017 A 
ATOM     10  C   LIG    1       31.507 -20.302   8.162  0.00  0.00    +0.001 A 
ATOM     11  C   LIG    1       30.718 -21.260   8.772  0.00  0.00    +0.002 A 
ATOM     12  C   LIG    1       29.386 -21.423   8.373  0.00  0.00    +0.024 A 
ATOM     13  C   LIG    1       25.413 -20.359   5.549  0.00  0.00    +0.041 A 
ATOM     14  C   LIG    1       28.781 -20.653   7.352  0.00  0.00    +0.048 A 
ENDROOT
BRANCH   6  15
ATOM     15  S   LIG    1       23.090 -20.161   3.995  0.00  0.00    +0.051 S 
ATOM     16  O   LIG    1       22.352 -18.853   3.960  0.00  0.00    -0.252 OA
ATOM     17  C   LIG    1       22.643 -20.975   5.554  0.00  0.00    +0.127 C 
ENDBRANCH   6  15
BRANCH   1  18
ATOM     18  C   LIG    1       26.642 -21.877   7.679  0.00  0.00    +0.112 C 
BRANCH  18  19
ATOM     19  C   LIG    1       26.786 -23.246   6.991  0.00  0.00    +0.038 C 
BRANCH  19  22
ATOM     20  C   LIG    1       23.159 -24.256   6.649  0.00  0.00    +0.105 C 
ATOM     21  N   LIG    1       24.477 -23.804   6.197  0.00  0.00    -0.302 NA
ATOM     22  C   LIG    1       25.537 -24.143   7.172  0.00  0.00    +0.058 C 
ATOM     23  C   LIG    1       25.914 -25.640   7.138  0.00  0.00    +0.019 C 
ATOM     24  C   LIG    1       26.223 -26.147   5.732  0.00  0.00    +0.003 C 
ATOM     25  C   LIG    1       25.108 -25.779   4.762  0.00  0.00    +0.015 C 
ATOM     26  C   LIG    1       24.774 -24.291   4.841  0.00  0.00    +0.084 C 
ENDBRANCH  19  22
ENDBRANCH  18  19
ENDBRANCH   1  18
TORSDOF 4
ENDMDL
MODEL 4
REMARK VINA RESULT:      -6.1      6.517     10.330
REMARK  Name = *****
REMARK                            x       y       z     vdW  Elec       q    Type
REMARK                         _______ _______ _______ _____ _____    ______ ____
ROOT
ATOM      1  N   LIG    1       25.926 -29.695   9.735  0.00  0.00    -0.298 N 
ATOM      2  C   LIG    1       25.522 -29.182   8.465  0.00  0.00    +0.049 A 
ATOM      3  C   LIG    1       24.544 -29.827   7.680  0.00  0.00    +0.034 A 
ATOM      4  C   LIG    1       24.092 -29.268   6.465  0.00  0.00    +0.018 A 
ATOM      5  C   LIG    1       24.594 -28.061   5.996  0.00  0.00    +0.018 A 
ATOM      6  C   LIG    1       25.583 -27.417   6.725  0.00  0.00    +0.040 A 
ATOM      7  S   LIG    1       23.799 -31.381   8.101  0.00  0.00    -0.086 S 
ATOM      8  C   LIG    1       24.480 -31.716   9.704  0.00  0.00    +0.034 A 
ATOM      9  C   LIG    1       23.999 -32.891  10.318  0.00  0.00    +0.017 A 
ATOM     10  C   LIG    1       24.429 -33.272  11.583  0.00  0.00    +0.001 A 
ATOM     11  C   LIG    1       25.349 -32.479  12.242  0.00  0.00    +0.002 A 
ATOM     12  C   LIG    1       25.835 -31.317  11.630  0.00  0.00    +0.024 A 
ATOM     13  C   LIG    1       26.053 -27.989   7.920  0.00  0.00    +0.041 A 
ATOM     14  C   LIG    1       25.425 -30.888  10.346  0.00  0.00    +0.048 A 
ENDROOT
BRANCH   6  15
ATOM     15  S   LIG    1       26.239 -25.840   6.131  0.00  0.00    +0.051 S 
ATOM     16  O   LIG    1       25.877 -24.831   7.183  0.00  0.00    -0.252 OA
ATOM     17  C   LIG    1       25.067 -25.618   4.764  0.00  0.00    +0.127 C 
ENDBRANCH   6  15
BRANCH   1  18
ATOM     18  C   LIG    1       26.930 -28.916  10.513  0.00  0.00    +0.112 C 
BRANCH  18  19
ATOM     19  C   LIG    1       26.268 -27.715  11.212  0.00  0.00    +0.038 C 
BRANCH  19  22
ATOM     20  C   LIG    1       27.424 -26.880  14.714  0.00  0.00    +0.105 C 
ATOM     21  N   LIG    1       26.918 -26.613  13.365  0.00  0.00    -0.302 NA
ATOM     22  C   LIG    1       26.315 -27.819  12.755  0.00  0.00    +0.058 C 
ATOM     23  C   LIG    1       24.921 -28.140  13.337  0.00  0.00    +0.019 C 
ATOM     24  C   LIG    1       23.978 -26.940  13.326  0.00  0.00    +0.003 C 
ATOM     25  C   LIG    1       24.635 -25.723  13.962  0.00  0.00    +0.015 C 
ATOM     26  C   LIG    1       26.011 -25.455  13.354  0.00  0.00    +0.084 C 
ENDBRANCH  19  22
ENDBRANCH  18  19
ENDBRANCH   1  18
TORSDOF 4
ENDMDL
MODEL 5
REMARK VINA RESULT:      -6.0      6.328     10.112
REMARK  Name = *****
REMARK                            x       y       z     vdW  Elec       q    Type
REMARK                         _______ _______ _______ _____ _____    ______ ____
ROOT
ATOM      1  N   LIG    1       25.921 -29.789   8.846  0.00  0.00    -0.298 N 
ATOM      2  C   LIG    1       25.490 -29.032   7.715  0.00  0.00    +0.049 A 
ATOM      3  C   LIG    1       24.535 -29.533   6.806  0.00  0.00    +0.034 A 
ATOM      4  C   LIG    1       24.054 -28.746   5.738  0.00  0.00    +0.018 A 
ATOM      5  C   LIG    1       24.503 -27.446   5.541  0.00  0.00    +0.018 A 
ATOM      6  C   LIG    1       25.468 -26.933   6.395  0.00  0.00    +0.040 A 
ATOM      7  S   LIG    1       23.857 -31.171   6.881  0.00  0.00    -0.086 S 
ATOM      8  C   LIG    1       24.561 -31.814   8.377  0.00  0.00    +0.034 A 
ATOM      9  C   LIG    1       24.132 -33.112   8.723  0.00  0.00    +0.017 A 
ATOM     10  C   LIG    1       24.584 -33.738   9.877  0.00  0.00    +0.001 A 
ATOM     11  C   LIG    1       25.474 -33.068  10.695  0.00  0.00    +0.002 A 
ATOM     12  C   LIG    1       25.908 -31.782  10.348  0.00  0.00    +0.024 A 
ATOM     13  C   LIG    1       25.968 -27.728   7.440  0.00  0.00    +0.041 A 
ATOM     14  C   LIG    1       25.474 -31.105   9.185  0.00  0.00    +0.048 A 
ENDROOT
BRANCH   6  15
ATOM     15  S   LIG    1       26.055 -25.240   6.156  0.00  0.00    +0.051 S 
ATOM     16  O   LIG    1       25.577 -24.475   7.356  0.00  0.00    -0.252 OA
ATOM     17  C   LIG    1       24.944 -24.816   4.786  0.00  0.00    +0.127 C 
ENDBRANCH   6  15
BRANCH   1  18
ATOM     18  C   LIG    1       26.896 -29.153   9.777  0.00  0.00    +0.112 C 
BRANCH  18  19
ATOM     19  C   LIG    1       26.185 -28.183  10.736  0.00  0.00    +0.038 C 
BRANCH  19  22
ATOM     20  C   LIG    1       27.411 -28.071  14.311  0.00  0.00    +0.105 C 
ATOM     21  N   LIG    1       26.848 -27.544  13.065  0.00  0.00    -0.302 NA
ATOM     22  C   LIG    1       26.288 -28.619  12.217  0.00  0.00    +0.058 C 
ATOM     23  C   LIG    1       24.932 -29.140  12.743  0.00  0.00    +0.019 C 
ATOM     24  C   LIG    1       23.929 -28.023  13.017  0.00  0.00    +0.003 C 
ATOM     25  C   LIG    1       24.544 -26.939  13.892  0.00  0.00    +0.015 C 
ATOM     26  C   LIG    1       25.883 -26.466  13.330  0.00  0.00    +0.084 C 
ENDBRANCH  19  22
ENDBRANCH  18  19
ENDBRANCH   1  18
TORSDOF 4
ENDMDL
MODEL 6
REMARK VINA RESULT:      -5.8      8.422     11.608
REMARK  Name = *****
REMARK                            x       y       z     vdW  Elec       q    Type
REMARK                         _______ _______ _______ _____ _____    ______ ____
ROOT
ATOM      1  N   LIG    1       23.932 -29.778  11.331  0.00  0.00    -0.298 N 
ATOM      2  C   LIG    1       22.602 -30.005  11.797  0.00  0.00    +0.049 A 
ATOM      3  C   LIG    1       22.030 -29.220  12.820  0.00  0.00    +0.034 A 
ATOM      4  C   LIG    1       20.687 -29.397  13.217  0.00  0.00    +0.018 A 
ATOM      5  C   LIG    1       19.878 -30.353  12.616  0.00  0.00    +0.018 A 
ATOM      6  C   LIG    1       20.418 -31.167  11.632  0.00  0.00    +0.040 A 
ATOM      7  S   LIG    1       22.906 -27.964  13.716  0.00  0.00    -0.086 S 
ATOM      8  C   LIG    1       24.475 -27.921  12.890  0.00  0.00    +0.034 A 
ATOM      9  C   LIG    1       25.370 -26.943  13.370  0.00  0.00    +0.017 A 
ATOM     10  C   LIG    1       26.629 -26.779  12.807  0.00  0.00    +0.001 A 
ATOM     11  C   LIG    1       27.004 -27.598  11.759  0.00  0.00    +0.002 A 
ATOM     12  C   LIG    1       26.120 -28.576  11.287  0.00  0.00    +0.024 A 
ATOM     13  C   LIG    1       21.764 -31.009  11.257  0.00  0.00    +0.041 A 
ATOM     14  C   LIG    1       24.828 -28.778  11.827  0.00  0.00    +0.048 A 
ENDROOT
BRANCH   6  15
ATOM     15  S   LIG    1       19.374 -32.409  10.834  0.00  0.00    +0.051 S 
ATOM     16  O   LIG    1       20.251 -33.080   9.817  0.00  0.00    -0.252 OA
ATOM     17  C   LIG    1       18.311 -31.250   9.929  0.00  0.00    +0.127 C 
ENDBRANCH   6  15
BRANCH   1  18
ATOM     18  C   LIG    1       24.431 -30.627  10.212  0.00  0.00    +0.112 C 
BRANCH  18  19
ATOM     19  C   LIG    1       23.991 -30.056   8.853  0.00  0.00    +0.038 C 
BRANCH  19  22
ATOM     20  C   LIG    1       25.868 -31.075   5.733  0.00  0.00    +0.105 C 
ATOM     21  N   LIG    1       24.718 -30.635   6.528  0.00  0.00    -0.302 NA
ATOM     22  C   LIG    1       25.136 -30.032   7.812  0.00  0.00    +0.058 C 
ATOM     23  C   LIG    1       25.704 -28.607   7.637  0.00  0.00    +0.019 C 
ATOM     24  C   LIG    1       24.788 -27.693   6.828  0.00  0.00    +0.003 C 
ATOM     25  C   LIG    1       24.382 -28.350   5.516  0.00  0.00    +0.015 C 
ATOM     26  C   LIG    1       23.834 -29.756   5.746  0.00  0.00    +0.084 C 
ENDBRANCH  19  22
ENDBRANCH  18  19
ENDBRANCH   1  18
TORSDOF 4
ENDMDL
MODEL 7
REMARK VINA RESULT:      -5.7      8.587     10.122
REMARK  Name = *****
REMARK                            x       y       z     vdW  Elec       q    Type
REMARK                         _______ _______ _______ _____ _____    ______ ____
ROOT
ATOM      1  N   LIG    1       24.717 -29.002  13.027  0.00  0.00    -0.298 N 
ATOM      2  C   LIG    1       25.905 -28.447  13.591  0.00  0.00    +0.049 A 
ATOM      3  C   LIG    1       25.910 -27.184  14.220  0.00  0.00    +0.034 A 
ATOM      4  C   LIG    1       27.069 -26.680  14.847  0.00  0.00    +0.018 A 
ATOM      5  C   LIG    1       28.252 -27.408  14.867  0.00  0.00    +0.018 A 
ATOM      6  C   LIG    1       28.294 -28.637  14.227  0.00  0.00    +0.040 A 
ATOM      7  S   LIG    1       24.505 -26.102  14.284  0.00  0.00    -0.086 S 
ATOM      8  C   LIG    1       23.227 -27.081  13.540  0.00  0.00    +0.034 A 
ATOM      9  C   LIG    1       21.954 -26.473  13.515  0.00  0.00    +0.017 A 
ATOM     10  C   LIG    1       20.852 -27.128  12.980  0.00  0.00    +0.001 A 
ATOM     11  C   LIG    1       21.017 -28.399  12.461  0.00  0.00    +0.002 A 
ATOM     12  C   LIG    1       22.282 -29.000  12.477  0.00  0.00    +0.024 A 
ATOM     13  C   LIG    1       27.147 -29.126  13.578  0.00  0.00    +0.041 A 
ATOM     14  C   LIG    1       23.432 -28.373  13.012  0.00  0.00    +0.048 A 
ENDROOT
BRANCH   6  15
ATOM     15  S   LIG    1       29.824 -29.600  14.253  0.00  0.00    +0.051 S 
ATOM     16  O   LIG    1       29.532 -30.799  15.110  0.00  0.00    -0.252 OA
ATOM     17  C   LIG    1       30.788 -28.449  15.271  0.00  0.00    +0.127 C 
ENDBRANCH   6  15
BRANCH   1  18
ATOM     18  C   LIG    1       24.802 -30.364  12.427  0.00  0.00    +0.112 C 
BRANCH  18  19
ATOM     19  C   LIG    1       24.416 -30.331  10.939  0.00  0.00    +0.038 C 
BRANCH  19  22
ATOM     20  C   LIG    1       26.090 -31.548   7.775  0.00  0.00    +0.105 C 
ATOM     21  N   LIG    1       25.173 -30.746   8.587  0.00  0.00    -0.302 NA
ATOM     22  C   LIG    1       25.594 -30.695  10.004  0.00  0.00    +0.058 C 
ATOM     23  C   LIG    1       26.798 -29.753  10.228  0.00  0.00    +0.019 C 
ATOM     24  C   LIG    1       26.591 -28.366   9.626  0.00  0.00    +0.003 C 
ATOM     25  C   LIG    1       26.159 -28.463   8.169  0.00  0.00    +0.015 C 
ATOM     26  C   LIG    1       24.972 -29.410   8.005  0.00  0.00    +0.084 C 
ENDBRANCH  19  22
ENDBRANCH  18  19
ENDBRANCH   1  18
TORSDOF 4
ENDMDL
MODEL 8
REMARK VINA RESULT:      -5.7      8.260     10.845
REMARK  Name = *****
REMARK                            x       y       z     vdW  Elec       q    Type
REMARK                         _______ _______ _______ _____ _____    ______ ____
ROOT
ATOM      1  N   LIG    1       22.706 -30.100  11.775  0.00  0.00    -0.298 N 
ATOM      2  C   LIG    1       23.066 -28.924  12.499  0.00  0.00    +0.049 A 
ATOM      3  C   LIG    1       22.152 -28.265  13.349  0.00  0.00    +0.034 A 
ATOM      4  C   LIG    1       22.541 -27.152  14.124  0.00  0.00    +0.018 A 
ATOM      5  C   LIG    1       23.840 -26.661  14.080  0.00  0.00    +0.018 A 
ATOM      6  C   LIG    1       24.755 -27.262  13.229  0.00  0.00    +0.040 A 
ATOM      7  S   LIG    1       20.449 -28.732  13.526  0.00  0.00    -0.086 S 
ATOM      8  C   LIG    1       20.346 -30.203  12.542  0.00  0.00    +0.034 A 
ATOM      9  C   LIG    1       19.085 -30.836  12.554  0.00  0.00    +0.017 A 
ATOM     10  C   LIG    1       18.859 -32.009  11.845  0.00  0.00    +0.001 A 
ATOM     11  C   LIG    1       19.896 -32.557  11.113  0.00  0.00    +0.002 A 
ATOM     12  C   LIG    1       21.145 -31.925  11.092  0.00  0.00    +0.024 A 
ATOM     13  C   LIG    1       24.359 -28.352  12.435  0.00  0.00    +0.041 A 
ATOM     14  C   LIG    1       21.423 -30.731  11.800  0.00  0.00    +0.048 A 
ENDROOT
BRANCH   6  15
ATOM     15  S   LIG    1       26.452 -26.639  13.168  0.00  0.00    +0.051 S 
ATOM     16  O   LIG    1       26.338 -25.196  12.769  0.00  0.00    -0.252 OA
ATOM     17  C   LIG    1       26.966 -27.555  11.688  0.00  0.00    +0.127 C 
ENDBRANCH   6  15
BRANCH   1  18
ATOM     18  C   LIG    1       23.756 -30.752  10.942  0.00  0.00    +0.112 C 
BRANCH  18  19
ATOM     19  C   LIG    1       23.681 -30.264   9.485  0.00  0.00    +0.038 C 
BRANCH  19  22
ATOM     20  C   LIG    1       26.358 -31.926   7.396  0.00  0.00    +0.105 C 
ATOM     21  N   LIG    1       25.008 -31.470   7.737  0.00  0.00    -0.302 NA
ATOM     22  C   LIG    1       25.033 -30.384   8.741  0.00  0.00    +0.058 C 
ATOM     23  C   LIG    1       25.461 -29.030   8.135  0.00  0.00    +0.019 C 
ATOM     24  C   LIG    1       24.669 -28.657   6.885  0.00  0.00    +0.003 C 
ATOM     25  C   LIG    1       24.669 -29.800   5.878  0.00  0.00    +0.015 C 
ATOM     26  C   LIG    1       24.244 -31.114   6.531  0.00  0.00    +0.084 C 
ENDBRANCH  19  22
ENDBRANCH  18  19
ENDBRANCH   1  18
TORSDOF 4
ENDMDL
MODEL 9
REMARK VINA RESULT:      -5.6      8.947     11.684
REMARK  Name = *****
REMARK                            x       y       z     vdW  Elec       q    Type
REMARK                         _______ _______ _______ _____ _____    ______ ____
ROOT
ATOM      1  N   LIG    1       23.774 -29.213  12.283  0.00  0.00    -0.298 N 
ATOM      2  C   LIG    1       22.430 -29.175  12.763  0.00  0.00    +0.049 A 
ATOM      3  C   LIG    1       21.939 -28.083  13.511  0.00  0.00    +0.034 A 
ATOM      4  C   LIG    1       20.588 -28.016  13.910  0.00  0.00    +0.018 A 
ATOM      5  C   LIG    1       19.688 -29.023  13.583  0.00  0.00    +0.018 A 
ATOM      6  C   LIG    1       20.145 -30.128  12.880  0.00  0.00    +0.040 A 
ATOM      7  S   LIG    1       22.935 -26.713  14.038  0.00  0.00    -0.086 S 
ATOM      8  C   LIG    1       24.498 -27.051  13.270  0.00  0.00    +0.034 A 
ATOM      9  C   LIG    1       25.485 -26.064  13.477  0.00  0.00    +0.017 A 
ATOM     10  C   LIG    1       26.752 -26.183  12.921  0.00  0.00    +0.001 A 
ATOM     11  C   LIG    1       27.043 -27.296  12.154  0.00  0.00    +0.002 A 
ATOM     12  C   LIG    1       26.067 -28.281  11.955  0.00  0.00    +0.024 A 
ATOM     13  C   LIG    1       21.498 -30.208  12.508  0.00  0.00    +0.041 A 
ATOM     14  C   LIG    1       24.763 -28.202  12.499  0.00  0.00    +0.048 A 
ENDROOT
BRANCH   6  15
ATOM     15  S   LIG    1       18.983 -31.442  12.439  0.00  0.00    +0.051 S 
ATOM     16  O   LIG    1       18.761 -31.303  10.960  0.00  0.00    -0.252 OA
ATOM     17  C   LIG    1       17.529 -30.730  13.258  0.00  0.00    +0.127 C 
ENDBRANCH   6  15
BRANCH   1  18
ATOM     18  C   LIG    1       24.186 -30.385  11.460  0.00  0.00    +0.112 C 
BRANCH  18  19
ATOM     19  C   LIG    1       23.908 -30.131   9.968  0.00  0.00    +0.038 C 
BRANCH  19  22
ATOM     20  C   LIG    1       26.359 -32.068   7.838  0.00  0.00    +0.105 C 
ATOM     21  N   LIG    1       25.047 -31.586   8.278  0.00  0.00    -0.302 NA
ATOM     22  C   LIG    1       25.156 -30.348   9.080  0.00  0.00    +0.058 C 
ATOM     23  C   LIG    1       25.447 -29.106   8.209  0.00  0.00    +0.019 C 
ATOM     24  C   LIG    1       24.486 -28.962   7.032  0.00  0.00    +0.003 C 
ATOM     25  C   LIG    1       24.403 -30.257   6.234  0.00  0.00    +0.015 C 
ATOM     26  C   LIG    1       24.120 -31.451   7.144  0.00  0.00    +0.084 C 
ENDBRANCH  19  22
ENDBRANCH  18  19
ENDBRANCH   1  18
TORSDOF 4
ENDMDL
