MODEL 1
REMARK VINA RESULT:      -5.6      0.000      0.000
REMARK  Name = *****
REMARK                            x       y       z     vdW  Elec       q    Type
REMARK                         _______ _______ _______ _____ _____    ______ ____
ROOT
ATOM      1  O   LIG    1       31.927 -20.079   9.157  0.00  0.00    -0.284 OA
ENDROOT
BRANCH   1   3
ATOM      2  O   LIG    1       30.694 -22.075  10.382  0.00  0.00    -0.228 OA
ATOM      3  P   LIG    1       31.228 -21.515   9.104  0.00  0.00    +0.472 P 
BRANCH   3   4
ATOM      4  O   LIG    1       30.180 -21.446   7.907  0.00  0.00    -0.303 OA
ATOM      5  H   LIG    1       30.008 -22.335   7.544  0.00  0.00    +0.222 HD
ENDBRANCH   3   4
BRANCH   3   6
ATOM      6  O   LIG    1       32.357 -22.436   8.456  0.00  0.00    -0.303 OA
ATOM      7  H   LIG    1       32.769 -21.998   7.689  0.00  0.00    +0.222 HD
ENDBRANCH   3   6
ENDBRANCH   1   3
BRANCH   1   8
ATOM      8  C   LIG    1       31.454 -19.083   8.253  0.00  0.00    +0.205 C 
BRANCH   8   9
ATOM      9  C   LIG    1       31.426 -17.719   8.951  0.00  0.00    +0.166 C 
BRANCH   9  10
ATOM     10  O   LIG    1       32.455 -16.867   8.416  0.00  0.00    -0.387 OA
ATOM     11  H   LIG    1       33.296 -17.357   8.499  0.00  0.00    +0.210 HD
ENDBRANCH   9  10
BRANCH   9  12
ATOM     12  C   LIG    1       31.635 -17.816  10.466  0.00  0.00    +0.189 C 
BRANCH  12  13
ATOM     13  O   LIG    1       30.500 -18.441  11.068  0.00  0.00    -0.392 OA
ATOM     14  H   LIG    1       30.846 -18.913  11.851  0.00  0.00    +0.209 HD
ENDBRANCH  12  13
ENDBRANCH   9  12
ENDBRANCH   8   9
ENDBRANCH   1   8
TORSDOF 8
ENDMDL
MODEL 2
REMARK VINA RESULT:      -5.6      2.215      4.309
REMARK  Name = *****
REMARK                            x       y       z     vdW  Elec       q    Type
REMARK                         _______ _______ _______ _____ _____    ______ ____
ROOT
ATOM      1  O   LIG    1       31.300 -18.010   8.000  0.00  0.00    -0.284 OA
ENDROOT
BRANCH   1   3
ATOM      2  O   LIG    1       32.293 -17.985  10.453  0.00  0.00    -0.228 OA
ATOM      3  P   LIG    1       31.688 -17.211   9.328  0.00  0.00    +0.472 P 
BRANCH   3   4
ATOM      4  O   LIG    1       32.533 -15.949   8.847  0.00  0.00    -0.303 OA
ATOM      5  H   LIG    1       33.489 -16.140   8.874  0.00  0.00    +0.222 HD
ENDBRANCH   3   4
BRANCH   3   6
ATOM      6  O   LIG    1       30.315 -16.509   9.735  0.00  0.00    -0.303 OA
ATOM      7  H   LIG    1       29.558 -17.102   9.575  0.00  0.00    +0.222 HD
ENDBRANCH   3   6
ENDBRANCH   1   3
BRANCH   1   8
ATOM      8  C   LIG    1       30.172 -18.879   8.060  0.00  0.00    +0.205 C 
BRANCH   8   9
ATOM      9  C   LIG    1       30.587 -20.298   7.658  0.00  0.00    +0.166 C 
BRANCH   9  10
ATOM     10  O   LIG    1       29.513 -20.950   6.958  0.00  0.00    -0.387 OA
ATOM     11  H   LIG    1       28.987 -20.246   6.532  0.00  0.00    +0.210 HD
ENDBRANCH   9  10
BRANCH   9  12
ATOM     12  C   LIG    1       30.970 -21.174   8.856  0.00  0.00    +0.189 C 
BRANCH  12  13
ATOM     13  O   LIG    1       32.250 -20.776   9.351  0.00  0.00    -0.392 OA
ATOM     14  H   LIG    1       32.506 -21.466   9.996  0.00  0.00    +0.209 HD
ENDBRANCH  12  13
ENDBRANCH   9  12
ENDBRANCH   8   9
ENDBRANCH   1   8
TORSDOF 8
ENDMDL
MODEL 3
REMARK VINA RESULT:      -5.5      1.580      2.593
REMARK  Name = *****
REMARK                            x       y       z     vdW  Elec       q    Type
REMARK                         _______ _______ _______ _____ _____    ______ ____
ROOT
ATOM      1  O   LIG    1       30.135 -18.897   9.256  0.00  0.00    -0.284 OA
ENDROOT
BRANCH   1   3
ATOM      2  O   LIG    1       32.168 -20.589   9.342  0.00  0.00    -0.228 OA
ATOM      3  P   LIG    1       31.199 -19.821   8.503  0.00  0.00    +0.472 P 
BRANCH   3   4
ATOM      4  O   LIG    1       30.362 -20.695   7.468  0.00  0.00    -0.303 OA
ATOM      5  H   LIG    1       30.813 -21.540   7.282  0.00  0.00    +0.222 HD
ENDBRANCH   3   4
BRANCH   3   6
ATOM      6  O   LIG    1       31.920 -18.800   7.513  0.00  0.00    -0.303 OA
ATOM      7  H   LIG    1       31.470 -18.774   6.648  0.00  0.00    +0.222 HD
ENDBRANCH   3   6
ENDBRANCH   1   3
BRANCH   1   8
ATOM      8  C   LIG    1       30.360 -17.489   9.244  0.00  0.00    +0.205 C 
BRANCH   8   9
ATOM      9  C   LIG    1       31.161 -17.081  10.485  0.00  0.00    +0.166 C 
BRANCH   9  10
ATOM     10  O   LIG    1       30.346 -16.281  11.361  0.00  0.00    -0.387 OA
ATOM     11  H   LIG    1       30.958 -15.745  11.901  0.00  0.00    +0.210 HD
ENDBRANCH   9  10
BRANCH   9  12
ATOM     12  C   LIG    1       32.421 -16.276  10.148  0.00  0.00    +0.189 C 
BRANCH  12  13
ATOM     13  O   LIG    1       32.595 -16.228   8.730  0.00  0.00    -0.392 OA
ATOM     14  H   LIG    1       31.727 -16.478   8.353  0.00  0.00    +0.209 HD
ENDBRANCH  12  13
ENDBRANCH   9  12
ENDBRANCH   8   9
ENDBRANCH   1   8
TORSDOF 8
ENDMDL
MODEL 4
REMARK VINA RESULT:      -5.5      1.327      2.182
REMARK  Name = *****
REMARK                            x       y       z     vdW  Elec       q    Type
REMARK                         _______ _______ _______ _____ _____    ______ ____
ROOT
ATOM      1  O   LIG    1       31.159 -19.583   9.734  0.00  0.00    -0.284 OA
ENDROOT
BRANCH   1   3
ATOM      2  O   LIG    1       29.580 -21.201   8.359  0.00  0.00    -0.228 OA
ATOM      3  P   LIG    1       30.944 -20.619   8.537  0.00  0.00    +0.472 P 
BRANCH   3   4
ATOM      4  O   LIG    1       31.554 -19.921   7.241  0.00  0.00    -0.303 OA
ATOM      5  H   LIG    1       30.855 -19.482   6.722  0.00  0.00    +0.222 HD
ENDBRANCH   3   4
BRANCH   3   6
ATOM      6  O   LIG    1       32.052 -21.729   8.824  0.00  0.00    -0.303 OA
ATOM      7  H   LIG    1       32.949 -21.369   8.700  0.00  0.00    +0.222 HD
ENDBRANCH   3   6
ENDBRANCH   1   3
BRANCH   1   8
ATOM      8  C   LIG    1       30.453 -18.346   9.669  0.00  0.00    +0.205 C 
BRANCH   8   9
ATOM      9  C   LIG    1       31.226 -17.266  10.433  0.00  0.00    +0.166 C 
BRANCH   9  10
ATOM     10  O   LIG    1       30.310 -16.359  11.073  0.00  0.00    -0.387 OA
ATOM     11  H   LIG    1       29.717 -16.021  10.374  0.00  0.00    +0.210 HD
ENDBRANCH   9  10
BRANCH   9  12
ATOM     12  C   LIG    1       32.154 -16.443   9.533  0.00  0.00    +0.189 C 
BRANCH  12  13
ATOM     13  O   LIG    1       32.367 -17.136   8.302  0.00  0.00    -0.392 OA
ATOM     14  H   LIG    1       32.132 -16.497   7.599  0.00  0.00    +0.209 HD
ENDBRANCH  12  13
ENDBRANCH   9  12
ENDBRANCH   8   9
ENDBRANCH   1   8
TORSDOF 8
ENDMDL
MODEL 5
REMARK VINA RESULT:      -5.4      1.326      1.564
REMARK  Name = *****
REMARK                            x       y       z     vdW  Elec       q    Type
REMARK                         _______ _______ _______ _____ _____    ______ ____
ROOT
ATOM      1  O   LIG    1       30.766 -19.389   9.696  0.00  0.00    -0.284 OA
ENDROOT
BRANCH   1   3
ATOM      2  O   LIG    1       32.222 -21.581   9.415  0.00  0.00    -0.228 OA
ATOM      3  P   LIG    1       31.165 -20.687   8.853  0.00  0.00    +0.472 P 
BRANCH   3   4
ATOM      4  O   LIG    1       29.793 -21.409   8.489  0.00  0.00    -0.303 OA
ATOM      5  H   LIG    1       29.176 -20.787   8.060  0.00  0.00    +0.222 HD
ENDBRANCH   3   4
BRANCH   3   6
ATOM      6  O   LIG    1       31.566 -20.080   7.434  0.00  0.00    -0.303 OA
ATOM      7  H   LIG    1       32.472 -19.721   7.449  0.00  0.00    +0.222 HD
ENDBRANCH   3   6
ENDBRANCH   1   3
BRANCH   1   8
ATOM      8  C   LIG    1       30.207 -18.288   8.983  0.00  0.00    +0.205 C 
BRANCH   8   9
ATOM      9  C   LIG    1       31.083 -17.046   9.176  0.00  0.00    +0.166 C 
BRANCH   9  10
ATOM     10  O   LIG    1       32.279 -17.154   8.383  0.00  0.00    -0.387 OA
ATOM     11  H   LIG    1       32.551 -18.091   8.413  0.00  0.00    +0.210 HD
ENDBRANCH   9  10
BRANCH   9  12
ATOM     12  C   LIG    1       31.503 -16.828  10.634  0.00  0.00    +0.189 C 
BRANCH  12  13
ATOM     13  O   LIG    1       32.735 -17.508  10.885  0.00  0.00    -0.392 OA
ATOM     14  H   LIG    1       33.398 -17.062  10.322  0.00  0.00    +0.209 HD
ENDBRANCH  12  13
ENDBRANCH   9  12
ENDBRANCH   8   9
ENDBRANCH   1   8
TORSDOF 8
ENDMDL
MODEL 6
REMARK VINA RESULT:      -5.1      3.205      4.483
REMARK  Name = *****
REMARK                            x       y       z     vdW  Elec       q    Type
REMARK                         _______ _______ _______ _____ _____    ______ ____
ROOT
ATOM      1  O   LIG    1       29.731 -21.522   8.652  0.00  0.00    -0.284 OA
ENDROOT
BRANCH   1   3
ATOM      2  O   LIG    1       32.262 -21.573   9.422  0.00  0.00    -0.228 OA
ATOM      3  P   LIG    1       31.145 -20.794   8.808  0.00  0.00    +0.472 P 
BRANCH   3   4
ATOM      4  O   LIG    1       31.469 -20.161   7.382  0.00  0.00    -0.303 OA
ATOM      5  H   LIG    1       32.364 -20.412   7.086  0.00  0.00    +0.222 HD
ENDBRANCH   3   4
BRANCH   3   6
ATOM      6  O   LIG    1       30.781 -19.483   9.638  0.00  0.00    -0.303 OA
ATOM      7  H   LIG    1       30.690 -18.710   9.051  0.00  0.00    +0.222 HD
ENDBRANCH   3   6
ENDBRANCH   1   3
BRANCH   1   8
ATOM      8  C   LIG    1       28.871 -21.072   7.608  0.00  0.00    +0.205 C 
BRANCH   8   9
ATOM      9  C   LIG    1       27.443 -21.566   7.862  0.00  0.00    +0.166 C 
BRANCH   9  10
ATOM     10  O   LIG    1       26.958 -22.295   6.720  0.00  0.00    -0.387 OA
ATOM     11  H   LIG    1       27.667 -22.266   6.048  0.00  0.00    +0.210 HD
ENDBRANCH   9  10
BRANCH   9  12
ATOM     12  C   LIG    1       26.456 -20.429   8.149  0.00  0.00    +0.189 C 
BRANCH  12  13
ATOM     13  O   LIG    1       25.862 -20.623   9.434  0.00  0.00    -0.392 OA
ATOM     14  H   LIG    1       25.250 -19.869   9.555  0.00  0.00    +0.209 HD
ENDBRANCH  12  13
ENDBRANCH   9  12
ENDBRANCH   8   9
ENDBRANCH   1   8
TORSDOF 8
ENDMDL
MODEL 7
REMARK VINA RESULT:      -5.1      2.759      4.608
REMARK  Name = *****
REMARK                            x       y       z     vdW  Elec       q    Type
REMARK                         _______ _______ _______ _____ _____    ______ ____
ROOT
ATOM      1  O   LIG    1       31.470 -17.870   7.941  0.00  0.00    -0.284 OA
ENDROOT
BRANCH   1   3
ATOM      2  O   LIG    1       32.378 -17.935  10.426  0.00  0.00    -0.228 OA
ATOM      3  P   LIG    1       31.790 -17.124   9.318  0.00  0.00    +0.472 P 
BRANCH   3   4
ATOM      4  O   LIG    1       32.616 -15.820   8.925  0.00  0.00    -0.303 OA
ATOM      5  H   LIG    1       32.537 -15.137   9.618  0.00  0.00    +0.222 HD
ENDBRANCH   3   4
BRANCH   3   6
ATOM      6  O   LIG    1       30.385 -16.479   9.708  0.00  0.00    -0.303 OA
ATOM      7  H   LIG    1       30.494 -15.558  10.010  0.00  0.00    +0.222 HD
ENDBRANCH   3   6
ENDBRANCH   1   3
BRANCH   1   8
ATOM      8  C   LIG    1       30.258 -18.615   7.862  0.00  0.00    +0.205 C 
BRANCH   8   9
ATOM      9  C   LIG    1       30.083 -19.175   6.446  0.00  0.00    +0.166 C 
BRANCH   9  10
ATOM     10  O   LIG    1       29.884 -18.102   5.508  0.00  0.00    -0.387 OA
ATOM     11  H   LIG    1       30.772 -17.792   5.246  0.00  0.00    +0.210 HD
ENDBRANCH   9  10
BRANCH   9  12
ATOM     12  C   LIG    1       28.895 -20.136   6.323  0.00  0.00    +0.189 C 
BRANCH  12  13
ATOM     13  O   LIG    1       29.247 -21.406   6.874  0.00  0.00    -0.392 OA
ATOM     14  H   LIG    1       28.577 -21.586   7.564  0.00  0.00    +0.209 HD
ENDBRANCH  12  13
ENDBRANCH   9  12
ENDBRANCH   8   9
ENDBRANCH   1   8
TORSDOF 8
ENDMDL
MODEL 8
REMARK VINA RESULT:      -5.1      3.139      4.773
REMARK  Name = *****
REMARK                            x       y       z     vdW  Elec       q    Type
REMARK                         _______ _______ _______ _____ _____    ______ ____
ROOT
ATOM      1  O   LIG    1       31.255 -18.070   7.957  0.00  0.00    -0.284 OA
ENDROOT
BRANCH   1   3
ATOM      2  O   LIG    1       30.322 -16.514   9.884  0.00  0.00    -0.228 OA
ATOM      3  P   LIG    1       31.506 -17.172   9.255  0.00  0.00    +0.472 P 
BRANCH   3   4
ATOM      4  O   LIG    1       32.382 -18.066  10.240  0.00  0.00    -0.303 OA
ATOM      5  H   LIG    1       32.698 -18.872   9.790  0.00  0.00    +0.222 HD
ENDBRANCH   3   4
BRANCH   3   6
ATOM      6  O   LIG    1       32.599 -16.124   8.756  0.00  0.00    -0.303 OA
ATOM      7  H   LIG    1       32.477 -15.258   9.188  0.00  0.00    +0.222 HD
ENDBRANCH   3   6
ENDBRANCH   1   3
BRANCH   1   8
ATOM      8  C   LIG    1       29.997 -18.732   7.848  0.00  0.00    +0.205 C 
BRANCH   8   9
ATOM      9  C   LIG    1       29.781 -19.202   6.406  0.00  0.00    +0.166 C 
BRANCH   9  10
ATOM     10  O   LIG    1       29.656 -18.069   5.528  0.00  0.00    -0.387 OA
ATOM     11  H   LIG    1       29.804 -17.273   6.075  0.00  0.00    +0.210 HD
ENDBRANCH   9  10
BRANCH   9  12
ATOM     12  C   LIG    1       28.527 -20.068   6.238  0.00  0.00    +0.189 C 
BRANCH  12  13
ATOM     13  O   LIG    1       27.961 -19.846   4.945  0.00  0.00    -0.392 OA
ATOM     14  H   LIG    1       28.708 -19.564   4.378  0.00  0.00    +0.209 HD
ENDBRANCH  12  13
ENDBRANCH   9  12
ENDBRANCH   8   9
ENDBRANCH   1   8
TORSDOF 8
ENDMDL
MODEL 9
REMARK VINA RESULT:      -5.0      2.917      4.279
REMARK  Name = *****
REMARK                            x       y       z     vdW  Elec       q    Type
REMARK                         _______ _______ _______ _____ _____    ______ ____
ROOT
ATOM      1  O   LIG    1       29.632 -19.794   8.465  0.00  0.00    -0.284 OA
ENDROOT
BRANCH   1   3
ATOM      2  O   LIG    1       31.235 -17.696   8.280  0.00  0.00    -0.228 OA
ATOM      3  P   LIG    1       31.093 -19.183   8.250  0.00  0.00    +0.472 P 
BRANCH   3   4
ATOM      4  O   LIG    1       32.047 -19.972   9.252  0.00  0.00    -0.303 OA
ATOM      5  H   LIG    1       32.864 -19.467   9.423  0.00  0.00    +0.222 HD
ENDBRANCH   3   4
BRANCH   3   6
ATOM      6  O   LIG    1       31.541 -19.814   6.856  0.00  0.00    -0.303 OA
ATOM      7  H   LIG    1       31.585 -20.786   6.910  0.00  0.00    +0.222 HD
ENDBRANCH   3   6
ENDBRANCH   1   3
BRANCH   1   8
ATOM      8  C   LIG    1       29.399 -21.122   8.002  0.00  0.00    +0.205 C 
BRANCH   8   9
ATOM      9  C   LIG    1       28.223 -21.130   7.020  0.00  0.00    +0.166 C 
BRANCH   9  10
ATOM     10  O   LIG    1       28.596 -20.478   5.792  0.00  0.00    -0.387 OA
ATOM     11  H   LIG    1       29.560 -20.328   5.837  0.00  0.00    +0.210 HD
ENDBRANCH   9  10
BRANCH   9  12
ATOM     12  C   LIG    1       26.978 -20.425   7.569  0.00  0.00    +0.189 C 
BRANCH  12  13
ATOM     13  O   LIG    1       26.783 -20.792   8.937  0.00  0.00    -0.392 OA
ATOM     14  H   LIG    1       25.890 -20.468   9.169  0.00  0.00    +0.209 HD
ENDBRANCH  12  13
ENDBRANCH   9  12
ENDBRANCH   8   9
ENDBRANCH   1   8
TORSDOF 8
ENDMDL
