MODEL 1
REMARK VINA RESULT:      -2.2      0.000      0.000
REMARK  Name = *****
REMARK                            x       y       z     vdW  Elec       q    Type
REMARK                         _______ _______ _______ _____ _____    ______ ____
ROOT
ATOM      1  C   LIG    1       26.566 -20.230   5.720  0.00  0.00    +0.170 A 
ATOM      2  S   LIG    1       24.864 -20.435   5.545  0.00  0.00    -0.056 S 
ATOM      3  C   LIG    1       24.782 -19.249   4.345  0.00  0.00    -0.001 A 
ATOM      4  C   LIG    1       23.545 -18.808   3.646  0.00  0.00    +0.058 C 
ATOM      5  C   LIG    1       23.660 -17.303   3.243  0.00  0.00    +0.091 C 
ATOM      6  N   LIG    1       24.995 -16.648   3.218  0.00  0.00    -0.285 NA
ATOM      7  C   LIG    1       26.108 -17.592   3.058  0.00  0.00    +0.121 C 
ATOM      8  C   LIG    1       25.998 -18.678   4.072  0.00  0.00    -0.019 A 
ATOM      9  C   LIG    1       27.023 -19.228   4.889  0.00  0.00    +0.059 A 
ENDROOT
BRANCH   1  10
ATOM     10  O   LIG    1       27.213 -21.002   6.598  0.00  0.00    -0.419 OA
BRANCH  10  12
ATOM     11  C   LIG    1       28.730 -19.312   7.062  0.00  0.00    +0.136 C 
ATOM     12  C   LIG    1       28.511 -20.760   6.877  0.00  0.00    +0.310 C 
ATOM     13  O   LIG    1       29.414 -21.571   7.017  0.00  0.00    -0.251 OA
ENDBRANCH  10  12
ENDBRANCH   1  10
BRANCH   6  14
ATOM     14  C   LIG    1       25.183 -15.557   4.224  0.00  0.00    +0.157 C 
BRANCH  14  15
ATOM     15  C   LIG    1       26.409 -14.657   4.058  0.00  0.00    +0.012 A 
ATOM     16  C   LIG    1       26.850 -13.880   5.141  0.00  0.00    +0.129 A 
ATOM     17  F   LIG    1       26.172 -13.888   6.298  0.00  0.00    -0.205 F 
ATOM     18  C   LIG    1       27.974 -13.058   5.065  0.00  0.00    +0.039 A 
ATOM     19  C   LIG    1       28.674 -12.960   3.869  0.00  0.00    +0.003 A 
ATOM     20  C   LIG    1       28.254 -13.704   2.768  0.00  0.00    +0.001 A 
ATOM     21  C   LIG    1       27.140 -14.553   2.863  0.00  0.00    +0.008 A 
ENDBRANCH  14  15
BRANCH  14  22
ATOM     22  C   LIG    1       23.853 -14.769   4.429  0.00  0.00    +0.158 C 
ATOM     23  O   LIG    1       23.110 -14.872   5.417  0.00  0.00    -0.295 OA
BRANCH  22  24
ATOM     24  C   LIG    1       23.503 -13.759   3.369  0.00  0.00    +0.057 C 
ATOM     25  C   LIG    1       23.874 -12.294   3.488  0.00  0.00    +0.012 C 
ATOM     26  C   LIG    1       24.610 -13.169   2.520  0.00  0.00    +0.012 C 
ENDBRANCH  22  24
ENDBRANCH  14  22
ENDBRANCH   6  14
TORSDOF 6
ENDMDL
MODEL 2
REMARK VINA RESULT:      -1.4      2.440      7.179
REMARK  Name = *****
REMARK                            x       y       z     vdW  Elec       q    Type
REMARK                         _______ _______ _______ _____ _____    ______ ____
ROOT
ATOM      1  C   LIG    1       25.936 -14.326   3.938  0.00  0.00    +0.170 A 
ATOM      2  S   LIG    1       27.477 -14.799   4.546  0.00  0.00    -0.056 S 
ATOM      3  C   LIG    1       27.243 -16.401   4.066  0.00  0.00    -0.001 A 
ATOM      4  C   LIG    1       28.208 -17.516   4.269  0.00  0.00    +0.058 C 
ATOM      5  C   LIG    1       27.442 -18.867   4.443  0.00  0.00    +0.091 C 
ATOM      6  N   LIG    1       26.021 -18.967   4.017  0.00  0.00    -0.285 NA
ATOM      7  C   LIG    1       25.639 -17.972   3.007  0.00  0.00    +0.121 C 
ATOM      8  C   LIG    1       26.026 -16.610   3.469  0.00  0.00    -0.019 A 
ATOM      9  C   LIG    1       25.261 -15.414   3.422  0.00  0.00    +0.059 A 
ENDROOT
BRANCH   1  10
ATOM     10  O   LIG    1       25.578 -13.043   4.040  0.00  0.00    -0.419 OA
BRANCH  10  12
ATOM     11  C   LIG    1       23.518 -11.982   3.962  0.00  0.00    +0.136 C 
ATOM     12  C   LIG    1       24.655 -12.532   3.198  0.00  0.00    +0.310 C 
ATOM     13  O   LIG    1       24.707 -12.461   1.979  0.00  0.00    -0.251 OA
ENDBRANCH  10  12
ENDBRANCH   1  10
BRANCH   6  14
ATOM     14  C   LIG    1       25.043 -19.202   5.125  0.00  0.00    +0.157 C 
BRANCH  14  15
ATOM     15  C   LIG    1       23.602 -19.528   4.729  0.00  0.00    +0.012 A 
ATOM     16  C   LIG    1       22.708 -18.482   4.444  0.00  0.00    +0.129 A 
ATOM     17  F   LIG    1       23.102 -17.206   4.567  0.00  0.00    -0.205 F 
ATOM     18  C   LIG    1       21.389 -18.710   4.053  0.00  0.00    +0.039 A 
ATOM     19  C   LIG    1       20.911 -20.011   3.976  0.00  0.00    +0.003 A 
ATOM     20  C   LIG    1       21.765 -21.072   4.268  0.00  0.00    +0.001 A 
ATOM     21  C   LIG    1       23.101 -20.835   4.630  0.00  0.00    +0.008 A 
ENDBRANCH  14  15
BRANCH  14  22
ATOM     22  C   LIG    1       25.639 -20.187   6.179  0.00  0.00    +0.158 C 
ATOM     23  O   LIG    1       24.987 -20.764   7.062  0.00  0.00    -0.295 OA
BRANCH  22  24
ATOM     24  C   LIG    1       27.105 -20.500   6.048  0.00  0.00    +0.057 C 
ATOM     25  C   LIG    1       28.132 -20.023   7.056  0.00  0.00    +0.012 C 
ATOM     26  C   LIG    1       27.741 -21.470   7.022  0.00  0.00    +0.012 C 
ENDBRANCH  22  24
ENDBRANCH  14  22
ENDBRANCH   6  14
TORSDOF 6
ENDMDL
MODEL 3
REMARK VINA RESULT:      -1.0      2.776      7.021
REMARK  Name = *****
REMARK                            x       y       z     vdW  Elec       q    Type
REMARK                         _______ _______ _______ _____ _____    ______ ____
ROOT
ATOM      1  C   LIG    1       26.035 -14.527   3.436  0.00  0.00    +0.170 A 
ATOM      2  S   LIG    1       27.466 -14.815   4.352  0.00  0.00    -0.056 S 
ATOM      3  C   LIG    1       27.402 -16.475   4.048  0.00  0.00    -0.001 A 
ATOM      4  C   LIG    1       28.370 -17.487   4.553  0.00  0.00    +0.058 C 
ATOM      5  C   LIG    1       27.654 -18.859   4.766  0.00  0.00    +0.091 C 
ATOM      6  N   LIG    1       26.337 -19.110   4.122  0.00  0.00    -0.285 NA
ATOM      7  C   LIG    1       26.091 -18.270   2.943  0.00  0.00    +0.121 C 
ATOM      8  C   LIG    1       26.321 -16.839   3.286  0.00  0.00    -0.019 A 
ATOM      9  C   LIG    1       25.518 -15.714   2.957  0.00  0.00    +0.059 A 
ENDROOT
BRANCH   1  10
ATOM     10  O   LIG    1       25.601 -13.270   3.311  0.00  0.00    -0.419 OA
BRANCH  10  12
ATOM     11  C   LIG    1       23.873 -11.747   3.052  0.00  0.00    +0.136 C 
ATOM     12  C   LIG    1       24.380 -12.930   3.775  0.00  0.00    +0.310 C 
ATOM     13  O   LIG    1       23.717 -13.497   4.630  0.00  0.00    -0.251 OA
ENDBRANCH  10  12
ENDBRANCH   1  10
BRANCH   6  14
ATOM     14  C   LIG    1       25.191 -19.282   5.069  0.00  0.00    +0.157 C 
BRANCH  14  15
ATOM     15  C   LIG    1       23.786 -19.044   4.517  0.00  0.00    +0.012 A 
ATOM     16  C   LIG    1       23.202 -20.000   3.669  0.00  0.00    +0.129 A 
ATOM     17  F   LIG    1       23.893 -21.091   3.308  0.00  0.00    -0.205 F 
ATOM     18  C   LIG    1       21.915 -19.857   3.151  0.00  0.00    +0.039 A 
ATOM     19  C   LIG    1       21.183 -18.713   3.439  0.00  0.00    +0.003 A 
ATOM     20  C   LIG    1       21.737 -17.736   4.263  0.00  0.00    +0.001 A 
ATOM     21  C   LIG    1       23.021 -17.902   4.806  0.00  0.00    +0.008 A 
ENDBRANCH  14  15
BRANCH  14  22
ATOM     22  C   LIG    1       25.334 -20.620   5.859  0.00  0.00    +0.158 C 
ATOM     23  O   LIG    1       26.217 -21.470   5.665  0.00  0.00    -0.295 OA
BRANCH  22  24
ATOM     24  C   LIG    1       24.360 -20.840   6.985  0.00  0.00    +0.057 C 
ATOM     25  C   LIG    1       23.030 -20.117   7.062  0.00  0.00    +0.012 C 
ATOM     26  C   LIG    1       23.064 -21.572   6.705  0.00  0.00    +0.012 C 
ENDBRANCH  22  24
ENDBRANCH  14  22
ENDBRANCH   6  14
TORSDOF 6
ENDMDL
