MODEL 1
REMARK VINA RESULT:      -8.6      0.000      0.000
REMARK  Name = *****
REMARK                            x       y       z     vdW  Elec       q    Type
REMARK                         _______ _______ _______ _____ _____    ______ ____
ROOT
ATOM      1  C   LIG    1       27.344 -20.523   5.278  0.00  0.00    +0.138 C 
ENDROOT
BRANCH   1   2
ATOM      2  N   LIG    1       28.393 -19.681   5.817  0.00  0.00    -0.323 N 
ATOM      3  C   LIG    1       29.229 -20.022   6.848  0.00  0.00    +0.151 A 
ATOM      4  C   LIG    1       29.298 -21.144   7.703  0.00  0.00    +0.282 C 
ATOM      5  N   LIG    1       30.427 -21.147   8.512  0.00  0.00    -0.262 N 
ATOM      6  C   LIG    1       31.326 -20.067   8.665  0.00  0.00    +0.333 C 
ATOM      7  N   LIG    1       31.093 -18.940   7.880  0.00  0.00    -0.280 N 
ATOM      8  C   LIG    1       31.894 -17.738   8.024  0.00  0.00    +0.155 C 
ATOM      9  O   LIG    1       32.265 -20.116   9.459  0.00  0.00    -0.246 OA
ATOM     10  C   LIG    1       30.678 -22.316   9.329  0.00  0.00    +0.157 C 
ATOM     11  O   LIG    1       28.417 -22.023   7.732  0.00  0.00    -0.265 OA
ATOM     12  C   LIG    1       30.090 -18.972   6.961  0.00  0.00    +0.168 A 
ATOM     13  N   LIG    1       29.830 -17.987   6.075  0.00  0.00    -0.218 NA
ATOM     14  C   LIG    1       28.815 -18.452   5.386  0.00  0.00    +0.202 A 
ENDBRANCH   1   2
BRANCH   1  15
ATOM     15  C   LIG    1       25.910 -19.956   5.328  0.00  0.00    +0.103 C 
BRANCH  15  16
ATOM     16  N   LIG    1       24.805 -20.594   4.606  0.00  0.00    -0.311 NA
ATOM     17  H   LIG    1       25.111 -21.354   4.008  0.00  0.00    +0.122 HD
BRANCH  16  19
ATOM     18  C   LIG    1       22.602 -19.742   5.509  0.00  0.00    +0.024 C 
ATOM     19  C   LIG    1       23.562 -20.918   5.326  0.00  0.00    +0.055 C 
BRANCH  19  20
ATOM     20  C   LIG    1       23.923 -21.512   6.718  0.00  0.00    +0.053 C 
BRANCH  20  21
ATOM     21  C   LIG    1       24.303 -22.979   6.688  0.00  0.00    -0.046 A 
ATOM     22  C   LIG    1       23.335 -23.969   6.441  0.00  0.00    +0.003 A 
ATOM     23  C   LIG    1       23.697 -25.313   6.350  0.00  0.00    +0.000 A 
ATOM     24  C   LIG    1       25.027 -25.688   6.520  0.00  0.00    +0.000 A 
ATOM     25  C   LIG    1       25.994 -24.718   6.783  0.00  0.00    +0.000 A 
ATOM     26  C   LIG    1       25.636 -23.371   6.863  0.00  0.00    +0.003 A 
ENDBRANCH  20  21
ENDBRANCH  19  20
ENDBRANCH  16  19
ENDBRANCH  15  16
ENDBRANCH   1  15
TORSDOF 6
ENDMDL
MODEL 2
REMARK VINA RESULT:      -8.5      5.646      9.279
REMARK  Name = *****
REMARK                            x       y       z     vdW  Elec       q    Type
REMARK                         _______ _______ _______ _____ _____    ______ ____
ROOT
ATOM      1  C   LIG    1       25.233 -26.965   6.508  0.00  0.00    +0.138 C 
ENDROOT
BRANCH   1   2
ATOM      2  N   LIG    1       24.784 -28.338   6.613  0.00  0.00    -0.323 N 
ATOM      3  C   LIG    1       25.049 -29.179   7.662  0.00  0.00    +0.151 A 
ATOM      4  C   LIG    1       25.832 -29.047   8.830  0.00  0.00    +0.282 C 
ATOM      5  N   LIG    1       25.681 -30.109   9.713  0.00  0.00    -0.262 N 
ATOM      6  C   LIG    1       25.005 -31.317   9.431  0.00  0.00    +0.333 C 
ATOM      7  N   LIG    1       24.379 -31.412   8.190  0.00  0.00    -0.280 N 
ATOM      8  C   LIG    1       23.738 -32.640   7.756  0.00  0.00    +0.155 C 
ATOM      9  O   LIG    1       24.977 -32.245  10.239  0.00  0.00    -0.246 OA
ATOM     10  C   LIG    1       26.326 -30.017  11.006  0.00  0.00    +0.157 C 
ATOM     11  O   LIG    1       26.594 -28.081   9.023  0.00  0.00    -0.265 OA
ATOM     12  C   LIG    1       24.373 -30.326   7.370  0.00  0.00    +0.168 A 
ATOM     13  N   LIG    1       23.718 -30.259   6.191  0.00  0.00    -0.218 NA
ATOM     14  C   LIG    1       23.967 -29.042   5.768  0.00  0.00    +0.202 A 
ENDBRANCH   1   2
BRANCH   1  15
ATOM     15  C   LIG    1       24.342 -26.007   5.691  0.00  0.00    +0.103 C 
BRANCH  15  16
ATOM     16  N   LIG    1       23.720 -24.827   6.300  0.00  0.00    -0.311 NA
ATOM     17  H   LIG    1       23.303 -25.024   7.204  0.00  0.00    +0.122 HD
BRANCH  16  19
ATOM     18  C   LIG    1       25.595 -23.445   7.284  0.00  0.00    +0.024 C 
ATOM     19  C   LIG    1       24.440 -23.543   6.287  0.00  0.00    +0.055 C 
BRANCH  19  20
ATOM     20  C   LIG    1       23.427 -22.391   6.556  0.00  0.00    +0.053 C 
BRANCH  20  21
ATOM     21  C   LIG    1       23.532 -21.234   5.583  0.00  0.00    -0.046 A 
ATOM     22  C   LIG    1       24.588 -21.164   4.657  0.00  0.00    +0.003 A 
ATOM     23  C   LIG    1       24.648 -20.132   3.721  0.00  0.00    +0.000 A 
ATOM     24  C   LIG    1       23.664 -19.147   3.706  0.00  0.00    +0.000 A 
ATOM     25  C   LIG    1       22.621 -19.195   4.630  0.00  0.00    +0.000 A 
ATOM     26  C   LIG    1       22.552 -20.234   5.562  0.00  0.00    +0.003 A 
ENDBRANCH  20  21
ENDBRANCH  19  20
ENDBRANCH  16  19
ENDBRANCH  15  16
ENDBRANCH   1  15
TORSDOF 6
ENDMDL
MODEL 3
REMARK VINA RESULT:      -8.5      2.118      3.798
REMARK  Name = *****
REMARK                            x       y       z     vdW  Elec       q    Type
REMARK                         _______ _______ _______ _____ _____    ______ ____
ROOT
ATOM      1  C   LIG    1       24.816 -20.834   6.565  0.00  0.00    +0.138 C 
ENDROOT
BRANCH   1   2
ATOM      2  N   LIG    1       26.067 -21.147   7.226  0.00  0.00    -0.323 N 
ATOM      3  C   LIG    1       27.286 -20.611   6.907  0.00  0.00    +0.151 A 
ATOM      4  C   LIG    1       27.717 -19.734   5.886  0.00  0.00    +0.282 C 
ATOM      5  N   LIG    1       29.034 -19.319   6.042  0.00  0.00    -0.262 N 
ATOM      6  C   LIG    1       29.955 -19.852   6.972  0.00  0.00    +0.333 C 
ATOM      7  N   LIG    1       29.473 -20.821   7.848  0.00  0.00    -0.280 N 
ATOM      8  C   LIG    1       30.352 -21.505   8.780  0.00  0.00    +0.155 C 
ATOM      9  O   LIG    1       31.129 -19.484   7.000  0.00  0.00    -0.246 OA
ATOM     10  C   LIG    1       29.541 -18.310   5.137  0.00  0.00    +0.157 C 
ATOM     11  O   LIG    1       26.985 -19.395   4.938  0.00  0.00    -0.265 OA
ATOM     12  C   LIG    1       28.148 -21.130   7.826  0.00  0.00    +0.168 A 
ATOM     13  N   LIG    1       27.542 -21.974   8.690  0.00  0.00    -0.218 NA
ATOM     14  C   LIG    1       26.285 -21.948   8.316  0.00  0.00    +0.202 A 
ENDBRANCH   1   2
BRANCH   1  15
ATOM     15  C   LIG    1       24.345 -21.819   5.475  0.00  0.00    +0.103 C 
BRANCH  15  16
ATOM     16  N   LIG    1       25.093 -23.042   5.168  0.00  0.00    -0.311 NA
ATOM     17  H   LIG    1       26.090 -22.946   5.330  0.00  0.00    +0.122 HD
BRANCH  16  19
ATOM     18  C   LIG    1       23.501 -24.254   6.714  0.00  0.00    +0.024 C 
ATOM     19  C   LIG    1       24.576 -24.341   5.630  0.00  0.00    +0.055 C 
BRANCH  19  20
ATOM     20  C   LIG    1       25.764 -25.203   6.149  0.00  0.00    +0.053 C 
BRANCH  20  21
ATOM     21  C   LIG    1       25.411 -26.655   6.404  0.00  0.00    -0.046 A 
ATOM     22  C   LIG    1       25.936 -27.340   7.514  0.00  0.00    +0.003 A 
ATOM     23  C   LIG    1       25.561 -28.656   7.783  0.00  0.00    +0.000 A 
ATOM     24  C   LIG    1       24.670 -29.312   6.937  0.00  0.00    +0.000 A 
ATOM     25  C   LIG    1       24.156 -28.650   5.823  0.00  0.00    +0.000 A 
ATOM     26  C   LIG    1       24.521 -27.328   5.558  0.00  0.00    +0.003 A 
ENDBRANCH  20  21
ENDBRANCH  19  20
ENDBRANCH  16  19
ENDBRANCH  15  16
ENDBRANCH   1  15
TORSDOF 6
ENDMDL
MODEL 4
REMARK VINA RESULT:      -8.3      5.796      9.140
REMARK  Name = *****
REMARK                            x       y       z     vdW  Elec       q    Type
REMARK                         _______ _______ _______ _____ _____    ______ ____
ROOT
ATOM      1  C   LIG    1       24.643 -27.343   5.490  0.00  0.00    +0.138 C 
ENDROOT
BRANCH   1   2
ATOM      2  N   LIG    1       25.177 -27.894   6.718  0.00  0.00    -0.323 N 
ATOM      3  C   LIG    1       24.934 -29.158   7.189  0.00  0.00    +0.151 A 
ATOM      4  C   LIG    1       24.107 -30.212   6.742  0.00  0.00    +0.282 C 
ATOM      5  N   LIG    1       24.299 -31.394   7.446  0.00  0.00    -0.262 N 
ATOM      6  C   LIG    1       25.061 -31.528   8.628  0.00  0.00    +0.333 C 
ATOM      7  N   LIG    1       25.730 -30.391   9.076  0.00  0.00    -0.280 N 
ATOM      8  C   LIG    1       26.464 -30.388  10.328  0.00  0.00    +0.155 C 
ATOM      9  O   LIG    1       25.124 -32.595   9.238  0.00  0.00    -0.246 OA
ATOM     10  C   LIG    1       23.610 -32.581   6.985  0.00  0.00    +0.157 C 
ATOM     11  O   LIG    1       23.279 -30.073   5.823  0.00  0.00    -0.265 OA
ATOM     12  C   LIG    1       25.692 -29.262   8.318  0.00  0.00    +0.168 A 
ATOM     13  N   LIG    1       26.379 -28.131   8.590  0.00  0.00    -0.218 NA
ATOM     14  C   LIG    1       26.065 -27.332   7.598  0.00  0.00    +0.202 A 
ENDBRANCH   1   2
BRANCH   1  15
ATOM     15  C   LIG    1       25.061 -25.900   5.141  0.00  0.00    +0.103 C 
BRANCH  15  16
ATOM     16  N   LIG    1       24.239 -24.747   5.520  0.00  0.00    -0.311 NA
ATOM     17  H   LIG    1       23.484 -24.992   6.152  0.00  0.00    +0.122 HD
BRANCH  16  19
ATOM     18  C   LIG    1       25.950 -23.616   7.000  0.00  0.00    +0.024 C 
ATOM     19  C   LIG    1       24.895 -23.485   5.900  0.00  0.00    +0.055 C 
BRANCH  19  20
ATOM     20  C   LIG    1       23.809 -22.463   6.346  0.00  0.00    +0.053 C 
BRANCH  20  21
ATOM     21  C   LIG    1       23.742 -21.215   5.488  0.00  0.00    -0.046 A 
ATOM     22  C   LIG    1       24.784 -20.894   4.601  0.00  0.00    +0.003 A 
ATOM     23  C   LIG    1       24.692 -19.780   3.766  0.00  0.00    +0.000 A 
ATOM     24  C   LIG    1       23.566 -18.963   3.817  0.00  0.00    +0.000 A 
ATOM     25  C   LIG    1       22.533 -19.261   4.705  0.00  0.00    +0.000 A 
ATOM     26  C   LIG    1       22.617 -20.382   5.534  0.00  0.00    +0.003 A 
ENDBRANCH  20  21
ENDBRANCH  19  20
ENDBRANCH  16  19
ENDBRANCH  15  16
ENDBRANCH   1  15
TORSDOF 6
ENDMDL
MODEL 5
REMARK VINA RESULT:      -8.1      2.756      8.271
REMARK  Name = *****
REMARK                            x       y       z     vdW  Elec       q    Type
REMARK                         _______ _______ _______ _____ _____    ______ ____
ROOT
ATOM      1  C   LIG    1       28.611 -19.951   5.689  0.00  0.00    +0.138 C 
ENDROOT
BRANCH   1   2
ATOM      2  N   LIG    1       27.429 -20.474   6.346  0.00  0.00    -0.323 N 
ATOM      3  C   LIG    1       26.153 -20.398   5.853  0.00  0.00    +0.151 A 
ATOM      4  C   LIG    1       25.594 -19.783   4.711  0.00  0.00    +0.282 C 
ATOM      5  N   LIG    1       24.257 -20.106   4.515  0.00  0.00    -0.262 N 
ATOM      6  C   LIG    1       23.436 -20.790   5.440  0.00  0.00    +0.333 C 
ATOM      7  N   LIG    1       24.046 -21.236   6.610  0.00  0.00    -0.280 N 
ATOM      8  C   LIG    1       23.281 -21.865   7.671  0.00  0.00    +0.155 C 
ATOM      9  O   LIG    1       22.239 -20.974   5.227  0.00  0.00    -0.246 OA
ATOM     10  C   LIG    1       23.617 -19.648   3.300  0.00  0.00    +0.157 C 
ATOM     11  O   LIG    1       26.242 -19.014   3.977  0.00  0.00    -0.265 OA
ATOM     12  C   LIG    1       25.390 -21.077   6.756  0.00  0.00    +0.168 A 
ATOM     13  N   LIG    1       26.111 -21.555   7.793  0.00  0.00    -0.218 NA
ATOM     14  C   LIG    1       27.339 -21.193   7.508  0.00  0.00    +0.202 A 
ENDBRANCH   1   2
BRANCH   1  15
ATOM     15  C   LIG    1       29.370 -18.828   6.425  0.00  0.00    +0.103 C 
BRANCH  15  16
ATOM     16  N   LIG    1       30.783 -18.967   6.792  0.00  0.00    -0.311 NA
ATOM     17  H   LIG    1       31.359 -18.212   6.434  0.00  0.00    +0.122 HD
BRANCH  16  19
ATOM     18  C   LIG    1       30.872 -20.791   8.541  0.00  0.00    +0.024 C 
ATOM     19  C   LIG    1       31.139 -19.331   8.174  0.00  0.00    +0.055 C 
BRANCH  19  20
ATOM     20  C   LIG    1       30.369 -18.401   9.157  0.00  0.00    +0.053 C 
BRANCH  20  21
ATOM     21  C   LIG    1       31.261 -17.486   9.972  0.00  0.00    -0.046 A 
ATOM     22  C   LIG    1       32.247 -16.701   9.351  0.00  0.00    +0.003 A 
ATOM     23  C   LIG    1       33.025 -15.812  10.094  0.00  0.00    +0.000 A 
ATOM     24  C   LIG    1       32.838 -15.708  11.470  0.00  0.00    +0.000 A 
ATOM     25  C   LIG    1       31.875 -16.494  12.101  0.00  0.00    +0.000 A 
ATOM     26  C   LIG    1       31.087 -17.376  11.358  0.00  0.00    +0.003 A 
ENDBRANCH  20  21
ENDBRANCH  19  20
ENDBRANCH  16  19
ENDBRANCH  15  16
ENDBRANCH   1  15
TORSDOF 6
ENDMDL
MODEL 6
REMARK VINA RESULT:      -8.0      2.524      8.070
REMARK  Name = *****
REMARK                            x       y       z     vdW  Elec       q    Type
REMARK                         _______ _______ _______ _____ _____    ______ ____
ROOT
ATOM      1  C   LIG    1       27.781 -21.796   7.385  0.00  0.00    +0.138 C 
ENDROOT
BRANCH   1   2
ATOM      2  N   LIG    1       26.949 -21.121   6.410  0.00  0.00    -0.323 N 
ATOM      3  C   LIG    1       25.628 -21.396   6.172  0.00  0.00    +0.151 A 
ATOM      4  C   LIG    1       24.740 -22.374   6.672  0.00  0.00    +0.282 C 
ATOM      5  N   LIG    1       23.425 -22.176   6.270  0.00  0.00    -0.262 N 
ATOM      6  C   LIG    1       22.999 -21.247   5.294  0.00  0.00    +0.333 C 
ATOM      7  N   LIG    1       23.975 -20.417   4.749  0.00  0.00    -0.280 N 
ATOM      8  C   LIG    1       23.669 -19.493   3.672  0.00  0.00    +0.155 C 
ATOM      9  O   LIG    1       21.823 -21.181   4.937  0.00  0.00    -0.246 OA
ATOM     10  C   LIG    1       22.404 -23.033   6.835  0.00  0.00    +0.157 C 
ATOM     11  O   LIG    1       25.118 -23.324   7.382  0.00  0.00    -0.265 OA
ATOM     12  C   LIG    1       25.243 -20.478   5.241  0.00  0.00    +0.168 A 
ATOM     13  N   LIG    1       26.250 -19.658   4.869  0.00  0.00    -0.218 NA
ATOM     14  C   LIG    1       27.260 -20.057   5.605  0.00  0.00    +0.202 A 
ENDBRANCH   1   2
BRANCH   1  15
ATOM     15  C   LIG    1       29.089 -21.085   7.788  0.00  0.00    +0.103 C 
BRANCH  15  16
ATOM     16  N   LIG    1       29.083 -19.763   8.421  0.00  0.00    -0.311 NA
ATOM     17  H   LIG    1       29.024 -19.810   9.433  0.00  0.00    +0.122 HD
BRANCH  16  19
ATOM     18  C   LIG    1       30.307 -18.735   6.462  0.00  0.00    +0.024 C 
ATOM     19  C   LIG    1       30.039 -18.740   7.967  0.00  0.00    +0.055 C 
BRANCH  19  20
ATOM     20  C   LIG    1       31.383 -18.927   8.730  0.00  0.00    +0.053 C 
BRANCH  20  21
ATOM     21  C   LIG    1       31.695 -17.820   9.717  0.00  0.00    -0.046 A 
ATOM     22  C   LIG    1       31.133 -17.825  11.006  0.00  0.00    +0.003 A 
ATOM     23  C   LIG    1       31.471 -16.841  11.935  0.00  0.00    +0.000 A 
ATOM     24  C   LIG    1       32.362 -15.830  11.584  0.00  0.00    +0.000 A 
ATOM     25  C   LIG    1       32.912 -15.803  10.304  0.00  0.00    +0.000 A 
ATOM     26  C   LIG    1       32.585 -16.794   9.376  0.00  0.00    +0.003 A 
ENDBRANCH  20  21
ENDBRANCH  19  20
ENDBRANCH  16  19
ENDBRANCH  15  16
ENDBRANCH   1  15
TORSDOF 6
ENDMDL
MODEL 7
REMARK VINA RESULT:      -7.8      6.050      9.327
REMARK  Name = *****
REMARK                            x       y       z     vdW  Elec       q    Type
REMARK                         _______ _______ _______ _____ _____    ______ ____
ROOT
ATOM      1  C   LIG    1       25.301 -27.682   6.696  0.00  0.00    +0.138 C 
ENDROOT
BRANCH   1   2
ATOM      2  N   LIG    1       24.942 -29.033   7.080  0.00  0.00    -0.323 N 
ATOM      3  C   LIG    1       25.349 -29.663   8.226  0.00  0.00    +0.151 A 
ATOM      4  C   LIG    1       26.227 -29.297   9.270  0.00  0.00    +0.282 C 
ATOM      5  N   LIG    1       26.217 -30.192  10.333  0.00  0.00    -0.262 N 
ATOM      6  C   LIG    1       25.587 -31.457  10.331  0.00  0.00    +0.333 C 
ATOM      7  N   LIG    1       24.858 -31.794   9.193  0.00  0.00    -0.280 N 
ATOM      8  C   LIG    1       24.251 -33.103   9.043  0.00  0.00    +0.155 C 
ATOM      9  O   LIG    1       25.685 -32.227  11.286  0.00  0.00    -0.246 OA
ATOM     10  C   LIG    1       26.970 -29.847  11.520  0.00  0.00    +0.157 C 
ATOM     11  O   LIG    1       26.946 -28.282   9.218  0.00  0.00    -0.265 OA
ATOM     12  C   LIG    1       24.716 -30.871   8.204  0.00  0.00    +0.168 A 
ATOM     13  N   LIG    1       23.953 -31.039   7.102  0.00  0.00    -0.218 NA
ATOM     14  C   LIG    1       24.093 -29.906   6.454  0.00  0.00    +0.202 A 
ENDBRANCH   1   2
BRANCH   1  15
ATOM     15  C   LIG    1       24.555 -27.086   5.486  0.00  0.00    +0.103 C 
BRANCH  15  16
ATOM     16  N   LIG    1       23.596 -25.988   5.637  0.00  0.00    -0.311 NA
ATOM     17  H   LIG    1       22.653 -26.311   5.825  0.00  0.00    +0.122 HD
BRANCH  16  19
ATOM     18  C   LIG    1       22.830 -23.809   6.667  0.00  0.00    +0.024 C 
ATOM     19  C   LIG    1       23.958 -24.820   6.458  0.00  0.00    +0.055 C 
BRANCH  19  20
ATOM     20  C   LIG    1       25.180 -24.104   5.811  0.00  0.00    +0.053 C 
BRANCH  20  21
ATOM     21  C   LIG    1       25.588 -22.822   6.508  0.00  0.00    -0.046 A 
ATOM     22  C   LIG    1       25.482 -21.581   5.856  0.00  0.00    +0.003 A 
ATOM     23  C   LIG    1       25.799 -20.396   6.521  0.00  0.00    +0.000 A 
ATOM     24  C   LIG    1       26.241 -20.436   7.840  0.00  0.00    +0.000 A 
ATOM     25  C   LIG    1       26.368 -21.661   8.493  0.00  0.00    +0.000 A 
ATOM     26  C   LIG    1       26.040 -22.848   7.834  0.00  0.00    +0.003 A 
ENDBRANCH  20  21
ENDBRANCH  19  20
ENDBRANCH  16  19
ENDBRANCH  15  16
ENDBRANCH   1  15
TORSDOF 6
ENDMDL
MODEL 8
REMARK VINA RESULT:      -7.7      2.031      3.404
REMARK  Name = *****
REMARK                            x       y       z     vdW  Elec       q    Type
REMARK                         _______ _______ _______ _____ _____    ______ ____
ROOT
ATOM      1  C   LIG    1       25.395 -21.819   6.762  0.00  0.00    +0.138 C 
ENDROOT
BRANCH   1   2
ATOM      2  N   LIG    1       26.378 -20.875   6.269  0.00  0.00    -0.323 N 
ATOM      3  C   LIG    1       27.641 -20.713   6.774  0.00  0.00    +0.151 A 
ATOM      4  C   LIG    1       28.321 -21.281   7.874  0.00  0.00    +0.282 C 
ATOM      5  N   LIG    1       29.669 -20.946   7.917  0.00  0.00    -0.262 N 
ATOM      6  C   LIG    1       30.297 -19.974   7.106  0.00  0.00    +0.333 C 
ATOM      7  N   LIG    1       29.506 -19.360   6.137  0.00  0.00    -0.280 N 
ATOM      8  C   LIG    1       30.020 -18.281   5.312  0.00  0.00    +0.155 C 
ATOM      9  O   LIG    1       31.482 -19.678   7.253  0.00  0.00    -0.246 OA
ATOM     10  C   LIG    1       30.497 -21.582   8.920  0.00  0.00    +0.157 C 
ATOM     11  O   LIG    1       27.750 -21.990   8.724  0.00  0.00    -0.265 OA
ATOM     12  C   LIG    1       28.225 -19.785   5.964  0.00  0.00    +0.168 A 
ATOM     13  N   LIG    1       27.394 -19.342   4.995  0.00  0.00    -0.218 NA
ATOM     14  C   LIG    1       26.296 -20.032   5.192  0.00  0.00    +0.202 A 
ENDBRANCH   1   2
BRANCH   1  15
ATOM     15  C   LIG    1       24.513 -22.512   5.705  0.00  0.00    +0.103 C 
BRANCH  15  16
ATOM     16  N   LIG    1       24.976 -23.691   4.968  0.00  0.00    -0.311 NA
ATOM     17  H   LIG    1       25.976 -23.680   4.794  0.00  0.00    +0.122 HD
BRANCH  16  19
ATOM     18  C   LIG    1       23.540 -25.036   6.556  0.00  0.00    +0.024 C 
ATOM     19  C   LIG    1       24.497 -25.026   5.363  0.00  0.00    +0.055 C 
BRANCH  19  20
ATOM     20  C   LIG    1       25.722 -25.933   5.677  0.00  0.00    +0.053 C 
BRANCH  20  21
ATOM     21  C   LIG    1       25.358 -27.306   6.207  0.00  0.00    -0.046 A 
ATOM     22  C   LIG    1       25.809 -27.735   7.467  0.00  0.00    +0.003 A 
ATOM     23  C   LIG    1       25.421 -28.973   7.980  0.00  0.00    +0.000 A 
ATOM     24  C   LIG    1       24.592 -29.806   7.234  0.00  0.00    +0.000 A 
ATOM     25  C   LIG    1       24.153 -29.400   5.975  0.00  0.00    +0.000 A 
ATOM     26  C   LIG    1       24.530 -28.157   5.464  0.00  0.00    +0.003 A 
ENDBRANCH  20  21
ENDBRANCH  19  20
ENDBRANCH  16  19
ENDBRANCH  15  16
ENDBRANCH   1  15
TORSDOF 6
ENDMDL
MODEL 9
REMARK VINA RESULT:      -7.7      6.300      9.473
REMARK  Name = *****
REMARK                            x       y       z     vdW  Elec       q    Type
REMARK                         _______ _______ _______ _____ _____    ______ ____
ROOT
ATOM      1  C   LIG    1       25.269 -30.346   7.579  0.00  0.00    +0.138 C 
ENDROOT
BRANCH   1   2
ATOM      2  N   LIG    1       24.596 -30.440   8.859  0.00  0.00    -0.323 N 
ATOM      3  C   LIG    1       24.983 -29.798  10.005  0.00  0.00    +0.151 A 
ATOM      4  C   LIG    1       26.092 -28.985  10.328  0.00  0.00    +0.282 C 
ATOM      5  N   LIG    1       25.996 -28.402  11.586  0.00  0.00    -0.262 N 
ATOM      6  C   LIG    1       25.029 -28.724  12.565  0.00  0.00    +0.333 C 
ATOM      7  N   LIG    1       24.053 -29.649  12.202  0.00  0.00    -0.280 N 
ATOM      8  C   LIG    1       23.069 -30.126  13.157  0.00  0.00    +0.155 C 
ATOM      9  O   LIG    1       25.053 -28.219  13.686  0.00  0.00    -0.246 OA
ATOM     10  C   LIG    1       27.006 -27.437  11.969  0.00  0.00    +0.157 C 
ATOM     11  O   LIG    1       27.061 -28.833   9.561  0.00  0.00    -0.265 OA
ATOM     12  C   LIG    1       24.027 -30.114  10.923  0.00  0.00    +0.168 A 
ATOM     13  N   LIG    1       23.075 -30.932  10.423  0.00  0.00    -0.218 NA
ATOM     14  C   LIG    1       23.433 -31.094   9.172  0.00  0.00    +0.202 A 
ENDBRANCH   1   2
BRANCH   1  15
ATOM     15  C   LIG    1       24.961 -29.100   6.725  0.00  0.00    +0.103 C 
BRANCH  15  16
ATOM     16  N   LIG    1       25.623 -27.816   6.970  0.00  0.00    -0.311 NA
ATOM     17  H   LIG    1       26.608 -27.915   7.191  0.00  0.00    +0.122 HD
BRANCH  16  19
ATOM     18  C   LIG    1       25.879 -26.887   4.632  0.00  0.00    +0.024 C 
ATOM     19  C   LIG    1       25.370 -26.686   6.059  0.00  0.00    +0.055 C 
BRANCH  19  20
ATOM     20  C   LIG    1       26.007 -25.399   6.658  0.00  0.00    +0.053 C 
BRANCH  20  21
ATOM     21  C   LIG    1       25.036 -24.246   6.825  0.00  0.00    -0.046 A 
ATOM     22  C   LIG    1       23.665 -24.416   6.566  0.00  0.00    +0.003 A 
ATOM     23  C   LIG    1       22.764 -23.373   6.781  0.00  0.00    +0.000 A 
ATOM     24  C   LIG    1       23.223 -22.141   7.241  0.00  0.00    +0.000 A 
ATOM     25  C   LIG    1       24.583 -21.955   7.485  0.00  0.00    +0.000 A 
ATOM     26  C   LIG    1       25.485 -23.001   7.282  0.00  0.00    +0.003 A 
ENDBRANCH  20  21
ENDBRANCH  19  20
ENDBRANCH  16  19
ENDBRANCH  15  16
ENDBRANCH   1  15
TORSDOF 6
ENDMDL
