MODEL 1
REMARK VINA RESULT:      -5.8      0.000      0.000
REMARK  Name = *****
REMARK                            x       y       z     vdW  Elec       q    Type
REMARK                         _______ _______ _______ _____ _____    ______ ____
ROOT
ATOM      1  C   LIG    1       24.340 -30.876  10.594  0.00  0.00    +0.005 C 
ATOM      2  C   LIG    1       24.523 -31.534  11.830  0.00  0.00    +0.125 C 
ATOM      3  C   LIG    1       23.443 -31.756  12.704  0.00  0.00    +0.056 C 
ATOM      4  C   LIG    1       22.189 -31.187  12.455  0.00  0.00    +0.007 C 
ATOM      5  C   LIG    1       22.013 -30.439  11.291  0.00  0.00    +0.048 C 
ATOM      6  N   LIG    1       20.705 -29.968  11.300  0.00  0.00    -0.357 NA
ATOM      7  H   LIG    1       20.294 -29.397  10.571  0.00  0.00    +0.166 HD
ATOM      8  C   LIG    1       20.089 -30.397  12.441  0.00  0.00    +0.039 C 
ATOM      9  C   LIG    1       18.720 -30.212  12.985  0.00  0.00    +0.123 C 
ATOM     10  C   LIG    1       17.439 -29.517  12.610  0.00  0.00    +0.030 C 
ATOM     11  C   LIG    1       16.708 -29.238  14.007  0.00  0.00    +0.005 C 
ATOM     12  C   LIG    1       17.180 -27.835  14.402  0.00  0.00    +0.010 C 
ATOM     13  C   LIG    1       18.708 -27.930  14.512  0.00  0.00    +0.008 C 
ATOM     14  C   LIG    1       17.156 -30.190  15.241  0.00  0.00    +0.088 C 
ATOM     15  N   LIG    1       18.633 -30.191  15.443  0.00  0.00    -0.297 NA
ATOM     16  C   LIG    1       19.386 -31.477  15.500  0.00  0.00    +0.089 C 
ATOM     17  C   LIG    1       20.729 -31.754  14.626  0.00  0.00    +0.053 C 
ATOM     18  C   LIG    1       19.159 -29.427  14.346  0.00  0.00    +0.082 C 
ATOM     19  C   LIG    1       20.982 -31.154  13.205  0.00  0.00    -0.017 C 
ATOM     20  C   LIG    1       23.066 -30.271  10.361  0.00  0.00    +0.034 C 
ENDROOT
BRANCH   1  30
ATOM     21  C   LIG    1       29.090 -33.513   5.318  0.00  0.00    +0.035 C 
ATOM     22  C   LIG    1       28.166 -33.192   6.452  0.00  0.00    -0.030 C 
ATOM     23  C   LIG    1       27.013 -32.506   6.375  0.00  0.00    -0.056 C 
ATOM     24  C   LIG    1       26.112 -32.200   7.559  0.00  0.00    +0.032 C 
ATOM     25  C   LIG    1       24.838 -32.952   7.230  0.00  0.00    +0.122 C 
ATOM     26  C   LIG    1       24.084 -32.084   6.219  0.00  0.00    +0.075 C 
ATOM     27  C   LIG    1       23.558 -30.712   6.805  0.00  0.00    +0.057 C 
ATOM     28  C   LIG    1       24.501 -29.624   7.318  0.00  0.00    -0.017 C 
ATOM     29  C   LIG    1       25.256 -29.598   8.508  0.00  0.00    +0.028 C 
ATOM     30  C   LIG    1       25.527 -30.637   9.623  0.00  0.00    +0.070 C 
ATOM     31  N   LIG    1       25.983 -28.426   8.501  0.00  0.00    -0.357 NA
ATOM     32  H   LIG    1       26.651 -28.158   9.210  0.00  0.00    +0.166 HD
ATOM     33  C   LIG    1       25.756 -27.702   7.359  0.00  0.00    +0.047 C 
ATOM     34  C   LIG    1       26.323 -26.491   6.941  0.00  0.00    +0.026 C 
ATOM     35  C   LIG    1       25.894 -25.957   5.724  0.00  0.00    +0.002 C 
ATOM     36  C   LIG    1       24.947 -26.621   4.952  0.00  0.00    +0.001 C 
ATOM     37  C   LIG    1       24.411 -27.846   5.376  0.00  0.00    +0.010 C 
ATOM     38  C   LIG    1       24.816 -28.406   6.608  0.00  0.00    +0.003 C 
ATOM     39  N   LIG    1       24.882 -32.018   4.939  0.00  0.00    -0.297 NA
ATOM     40  C   LIG    1       24.577 -33.179   4.085  0.00  0.00    +0.105 C 
ATOM     41  C   LIG    1       26.399 -31.866   9.036  0.00  0.00    +0.023 C 
ATOM     42  C   LIG    1       26.370 -31.893   5.097  0.00  0.00    +0.115 C 
BRANCH  25  43
ATOM     43  C   LIG    1       24.039 -33.645   8.280  0.00  0.00    +0.312 C 
ATOM     44  O   LIG    1       24.428 -33.825   9.428  0.00  0.00    -0.251 OA
BRANCH  43  45
ATOM     45  O   LIG    1       22.767 -33.825   7.869  0.00  0.00    -0.468 OA
ATOM     46  C   LIG    1       21.735 -33.368   8.746  0.00  0.00    +0.280 C 
ENDBRANCH  43  45
ENDBRANCH  25  43
ENDBRANCH   1  30
BRANCH   2  47
ATOM     47  O   LIG    1       25.798 -31.909  12.190  0.00  0.00    -0.495 OA
ATOM     48  C   LIG    1       26.332 -31.250  13.343  0.00  0.00    +0.277 C 
ENDBRANCH   2  47
BRANCH   9  49
ATOM     49  C   LIG    1       18.203 -31.769  12.822  0.00  0.00    +0.321 C 
ATOM     50  O   LIG    1       17.353 -32.382  13.451  0.00  0.00    -0.250 OA
BRANCH  49  51
ATOM     51  O   LIG    1       18.821 -32.367  11.726  0.00  0.00    -0.467 OA
ATOM     52  C   LIG    1       17.908 -32.873  10.747  0.00  0.00    +0.280 C 
ENDBRANCH  49  51
ENDBRANCH   9  49
BRANCH  13  53
ATOM     53  C   LIG    1       19.416 -26.931  13.577  0.00  0.00    +0.002 C 
ATOM     54  C   LIG    1       20.936 -26.977  13.661  0.00  0.00    +0.004 C 
ENDBRANCH  13  53
TORSDOF 7
ENDMDL
