MODEL 1
REMARK VINA RESULT:      -8.4      0.000      0.000
REMARK  Name = *****
REMARK                            x       y       z     vdW  Elec       q    Type
REMARK                         _______ _______ _______ _____ _____    ______ ____
ROOT
ATOM      1  C   LIG    1       27.613 -19.821   6.405  0.00  0.00    +0.144 C 
ENDROOT
BRANCH   1   2
ATOM      2  C   LIG    1       26.381 -20.777   6.432  0.00  0.00    -0.003 C 
ATOM      3  C   LIG    1       25.397 -20.312   7.549  0.00  0.00    +0.012 C 
ATOM      4  C   LIG    1       24.172 -21.235   7.641  0.00  0.00    -0.007 C 
ATOM      5  C   LIG    1       23.436 -21.223   6.294  0.00  0.00    +0.038 C 
ATOM      6  C   LIG    1       24.373 -21.721   5.182  0.00  0.00    +0.067 C 
ATOM      7  C   LIG    1       24.831 -23.149   5.508  0.00  0.00    +0.038 C 
ATOM      8  C   LIG    1       25.576 -23.165   6.850  0.00  0.00    -0.007 C 
ATOM      9  C   LIG    1       24.637 -22.665   7.957  0.00  0.00    +0.007 C 
ATOM     10  C   LIG    1       25.604 -20.799   5.088  0.00  0.00    +0.043 C 
ATOM     11  C   LIG    1       26.801 -22.236   6.762  0.00  0.00    +0.012 C 
BRANCH   6  12
ATOM     12  O   LIG    1       23.679 -21.730   3.941  0.00  0.00    -0.389 OA
ATOM     13  H   LIG    1       23.971 -20.958   3.429  0.00  0.00    +0.210 HD
ENDBRANCH   6  12
ENDBRANCH   1   2
BRANCH   1  16
ATOM     14  C   LIG    1       31.131 -20.250   8.035  0.00  0.00    +0.179 C 
ATOM     15  N   LIG    1       29.798 -19.725   7.667  0.00  0.00    -0.281 N 
ATOM     16  C   LIG    1       28.946 -20.469   6.877  0.00  0.00    +0.234 C 
ATOM     17  O   LIG    1       29.259 -21.603   6.497  0.00  0.00    -0.274 OA
ATOM     18  C   LIG    1       29.644 -18.372   8.128  0.00  0.00    +0.081 C 
ATOM     19  C   LIG    1       30.966 -17.891   8.653  0.00  0.00    +0.014 C 
ATOM     20  C   LIG    1       29.793 -18.026   9.584  0.00  0.00    +0.028 C 
ATOM     21  C   LIG    1       31.962 -18.996   8.401  0.00  0.00    +0.043 C 
BRANCH  14  23
ATOM     22  N   LIG    1       30.981 -21.939  10.059  0.00  0.00    -0.195 NA
ATOM     23  C   LIG    1       31.060 -21.179   9.183  0.00  0.00    +0.085 C 
ENDBRANCH  14  23
ENDBRANCH   1  16
BRANCH   1  24
ATOM     24  N   LIG    1       27.844 -19.259   5.048  0.00  0.00    -0.320 NA
ATOM     25  H   LIG    1       28.807 -18.922   4.996  0.00  0.00    +0.119 HD
ATOM     26  H   LIG    1       27.830 -20.046   4.391  0.00  0.00    +0.119 HD
ENDBRANCH   1  24
TORSDOF 5
ENDMDL
MODEL 2
REMARK VINA RESULT:      -8.3      0.975      1.832
REMARK  Name = *****
REMARK                            x       y       z     vdW  Elec       q    Type
REMARK                         _______ _______ _______ _____ _____    ______ ____
ROOT
ATOM      1  C   LIG    1       27.608 -19.824   6.407  0.00  0.00    +0.144 C 
ENDROOT
BRANCH   1   2
ATOM      2  C   LIG    1       26.366 -20.764   6.485  0.00  0.00    -0.003 C 
ATOM      3  C   LIG    1       25.583 -20.691   5.139  0.00  0.00    +0.012 C 
ATOM      4  C   LIG    1       24.330 -21.581   5.167  0.00  0.00    -0.007 C 
ATOM      5  C   LIG    1       24.756 -23.035   5.416  0.00  0.00    +0.038 C 
ATOM      6  C   LIG    1       25.492 -23.141   6.761  0.00  0.00    +0.067 C 
ATOM      7  C   LIG    1       24.558 -22.675   7.887  0.00  0.00    +0.038 C 
ATOM      8  C   LIG    1       24.137 -21.218   7.647  0.00  0.00    -0.007 C 
ATOM      9  C   LIG    1       23.405 -21.117   6.302  0.00  0.00    +0.007 C 
ATOM     10  C   LIG    1       26.748 -22.248   6.738  0.00  0.00    +0.043 C 
ATOM     11  C   LIG    1       25.391 -20.326   7.613  0.00  0.00    +0.012 C 
BRANCH   6  12
ATOM     12  O   LIG    1       25.863 -24.492   6.998  0.00  0.00    -0.389 OA
ATOM     13  H   LIG    1       25.341 -25.054   6.401  0.00  0.00    +0.210 HD
ENDBRANCH   6  12
ENDBRANCH   1   2
BRANCH   1  16
ATOM     14  C   LIG    1       31.128 -20.249   8.033  0.00  0.00    +0.179 C 
ATOM     15  N   LIG    1       29.795 -19.724   7.665  0.00  0.00    -0.281 N 
ATOM     16  C   LIG    1       28.941 -20.471   6.879  0.00  0.00    +0.234 C 
ATOM     17  O   LIG    1       29.254 -21.606   6.502  0.00  0.00    -0.274 OA
ATOM     18  C   LIG    1       29.641 -18.370   8.122  0.00  0.00    +0.081 C 
ATOM     19  C   LIG    1       30.964 -17.887   8.644  0.00  0.00    +0.014 C 
ATOM     20  C   LIG    1       29.793 -18.019   9.577  0.00  0.00    +0.028 C 
ATOM     21  C   LIG    1       31.960 -18.993   8.394  0.00  0.00    +0.043 C 
BRANCH  14  23
ATOM     22  N   LIG    1       31.004 -21.936  10.059  0.00  0.00    -0.195 NA
ATOM     23  C   LIG    1       31.059 -21.173   9.185  0.00  0.00    +0.085 C 
ENDBRANCH  14  23
ENDBRANCH   1  16
BRANCH   1  24
ATOM     24  N   LIG    1       27.823 -19.309   5.028  0.00  0.00    -0.320 NA
ATOM     25  H   LIG    1       27.796 -20.098   4.379  0.00  0.00    +0.119 HD
ATOM     26  H   LIG    1       26.990 -18.766   4.778  0.00  0.00    +0.119 HD
ENDBRANCH   1  24
TORSDOF 5
ENDMDL
MODEL 3
REMARK VINA RESULT:      -6.6      2.164      6.466
REMARK  Name = *****
REMARK                            x       y       z     vdW  Elec       q    Type
REMARK                         _______ _______ _______ _____ _____    ______ ____
ROOT
ATOM      1  C   LIG    1       27.992 -20.829   6.142  0.00  0.00    +0.144 C 
ENDROOT
BRANCH   1   2
ATOM      2  C   LIG    1       29.081 -20.180   7.050  0.00  0.00    -0.003 C 
ATOM      3  C   LIG    1       28.384 -19.415   8.217  0.00  0.00    +0.012 C 
ATOM      4  C   LIG    1       29.411 -18.730   9.134  0.00  0.00    -0.007 C 
ATOM      5  C   LIG    1       30.342 -19.798   9.725  0.00  0.00    +0.038 C 
ATOM      6  C   LIG    1       31.075 -20.536   8.594  0.00  0.00    +0.067 C 
ATOM      7  C   LIG    1       31.897 -19.526   7.779  0.00  0.00    +0.038 C 
ATOM      8  C   LIG    1       30.968 -18.462   7.178  0.00  0.00    -0.007 C 
ATOM      9  C   LIG    1       30.236 -17.729   8.311  0.00  0.00    +0.007 C 
ATOM     10  C   LIG    1       30.050 -21.222   7.671  0.00  0.00    +0.043 C 
ATOM     11  C   LIG    1       29.936 -19.147   6.264  0.00  0.00    +0.012 C 
BRANCH   6  12
ATOM     12  O   LIG    1       31.955 -21.506   9.147  0.00  0.00    -0.389 OA
ATOM     13  H   LIG    1       32.214 -22.115   8.436  0.00  0.00    +0.210 HD
ENDBRANCH   6  12
ENDBRANCH   1   2
BRANCH   1  16
ATOM     14  C   LIG    1       24.277 -21.512   7.117  0.00  0.00    +0.179 C 
ATOM     15  N   LIG    1       25.496 -21.136   6.367  0.00  0.00    -0.281 N 
ATOM     16  C   LIG    1       26.746 -21.362   6.905  0.00  0.00    +0.234 C 
ATOM     17  O   LIG    1       26.875 -21.920   8.001  0.00  0.00    -0.274 OA
ATOM     18  C   LIG    1       25.151 -20.434   5.161  0.00  0.00    +0.081 C 
ATOM     19  C   LIG    1       23.676 -20.151   5.176  0.00  0.00    +0.014 C 
ATOM     20  C   LIG    1       24.254 -21.060   4.128  0.00  0.00    +0.028 C 
ATOM     21  C   LIG    1       23.154 -20.639   6.505  0.00  0.00    +0.043 C 
BRANCH  14  23
ATOM     22  N   LIG    1       23.695 -24.068   6.802  0.00  0.00    -0.195 NA
ATOM     23  C   LIG    1       23.957 -22.948   6.966  0.00  0.00    +0.085 C 
ENDBRANCH  14  23
ENDBRANCH   1  16
BRANCH   1  24
ATOM     24  N   LIG    1       27.508 -19.884   5.101  0.00  0.00    -0.320 NA
ATOM     25  H   LIG    1       26.833 -20.371   4.509  0.00  0.00    +0.119 HD
ATOM     26  H   LIG    1       26.940 -19.177   5.579  0.00  0.00    +0.119 HD
ENDBRANCH   1  24
TORSDOF 5
ENDMDL
MODEL 4
REMARK VINA RESULT:      -6.5      1.664      2.656
REMARK  Name = *****
REMARK                            x       y       z     vdW  Elec       q    Type
REMARK                         _______ _______ _______ _____ _____    ______ ____
ROOT
ATOM      1  C   LIG    1       26.822 -21.853   7.991  0.00  0.00    +0.144 C 
ENDROOT
BRANCH   1   2
ATOM      2  C   LIG    1       25.655 -22.332   7.075  0.00  0.00    -0.003 C 
ATOM      3  C   LIG    1       24.299 -22.092   7.807  0.00  0.00    +0.012 C 
ATOM      4  C   LIG    1       23.109 -22.571   6.960  0.00  0.00    -0.007 C 
ATOM      5  C   LIG    1       23.100 -21.800   5.633  0.00  0.00    +0.038 C 
ATOM      6  C   LIG    1       24.410 -22.057   4.870  0.00  0.00    +0.067 C 
ATOM      7  C   LIG    1       24.549 -23.561   4.595  0.00  0.00    +0.038 C 
ATOM      8  C   LIG    1       24.568 -24.335   5.921  0.00  0.00    -0.007 C 
ATOM      9  C   LIG    1       23.259 -24.074   6.679  0.00  0.00    +0.007 C 
ATOM     10  C   LIG    1       25.606 -21.581   5.717  0.00  0.00    +0.043 C 
ATOM     11  C   LIG    1       25.756 -23.853   6.772  0.00  0.00    +0.012 C 
BRANCH   6  12
ATOM     12  O   LIG    1       24.386 -21.361   3.631  0.00  0.00    -0.389 OA
ATOM     13  H   LIG    1       23.529 -21.537   3.206  0.00  0.00    +0.210 HD
ENDBRANCH   6  12
ENDBRANCH   1   2
BRANCH   1  16
ATOM     14  C   LIG    1       29.382 -18.928   7.661  0.00  0.00    +0.179 C 
ATOM     15  N   LIG    1       28.771 -20.249   7.928  0.00  0.00    -0.281 N 
ATOM     16  C   LIG    1       27.462 -20.499   7.570  0.00  0.00    +0.234 C 
ATOM     17  O   LIG    1       26.789 -19.644   6.985  0.00  0.00    -0.274 OA
ATOM     18  C   LIG    1       29.672 -21.079   8.680  0.00  0.00    +0.081 C 
ATOM     19  C   LIG    1       30.848 -20.248   9.106  0.00  0.00    +0.014 C 
ATOM     20  C   LIG    1       31.047 -21.400   8.162  0.00  0.00    +0.028 C 
ATOM     21  C   LIG    1       30.570 -18.837   8.651  0.00  0.00    +0.043 C 
BRANCH  14  23
ATOM     22  N   LIG    1       30.243 -18.675   5.178  0.00  0.00    -0.195 NA
ATOM     23  C   LIG    1       29.860 -18.812   6.267  0.00  0.00    +0.085 C 
ENDBRANCH  14  23
ENDBRANCH   1  16
BRANCH   1  24
ATOM     24  N   LIG    1       26.393 -21.724   9.409  0.00  0.00    -0.320 NA
ATOM     25  H   LIG    1       25.408 -21.987   9.475  0.00  0.00    +0.119 HD
ATOM     26  H   LIG    1       26.873 -22.462   9.936  0.00  0.00    +0.119 HD
ENDBRANCH   1  24
TORSDOF 5
ENDMDL
MODEL 5
REMARK VINA RESULT:      -6.3      2.009      6.715
REMARK  Name = *****
REMARK                            x       y       z     vdW  Elec       q    Type
REMARK                         _______ _______ _______ _____ _____    ______ ____
ROOT
ATOM      1  C   LIG    1       27.289 -20.324   7.833  0.00  0.00    +0.144 C 
ENDROOT
BRANCH   1   2
ATOM      2  C   LIG    1       28.766 -19.863   8.018  0.00  0.00    -0.003 C 
ATOM      3  C   LIG    1       28.869 -18.973   9.295  0.00  0.00    +0.012 C 
ATOM      4  C   LIG    1       30.303 -18.465   9.514  0.00  0.00    -0.007 C 
ATOM      5  C   LIG    1       31.240 -19.671   9.672  0.00  0.00    +0.038 C 
ATOM      6  C   LIG    1       31.191 -20.541   8.405  0.00  0.00    +0.067 C 
ATOM      7  C   LIG    1       31.627 -19.701   7.196  0.00  0.00    +0.038 C 
ATOM      8  C   LIG    1       30.687 -18.499   7.029  0.00  0.00    -0.007 C 
ATOM      9  C   LIG    1       30.738 -17.634   8.298  0.00  0.00    +0.007 C 
ATOM     10  C   LIG    1       29.754 -21.050   8.180  0.00  0.00    +0.043 C 
ATOM     11  C   LIG    1       29.249 -19.005   6.815  0.00  0.00    +0.012 C 
BRANCH   6  12
ATOM     12  O   LIG    1       32.079 -21.642   8.547  0.00  0.00    -0.389 OA
ATOM     13  H   LIG    1       32.073 -22.139   7.712  0.00  0.00    +0.210 HD
ENDBRANCH   6  12
ENDBRANCH   1   2
BRANCH   1  16
ATOM     14  C   LIG    1       25.044 -20.980   4.711  0.00  0.00    +0.179 C 
ATOM     15  N   LIG    1       25.504 -20.739   6.096  0.00  0.00    -0.281 N 
ATOM     16  C   LIG    1       26.825 -20.435   6.353  0.00  0.00    +0.234 C 
ATOM     17  O   LIG    1       27.640 -20.315   5.431  0.00  0.00    -0.274 OA
ATOM     18  C   LIG    1       24.444 -21.000   7.032  0.00  0.00    +0.081 C 
ATOM     19  C   LIG    1       23.291 -21.617   6.292  0.00  0.00    +0.014 C 
ATOM     20  C   LIG    1       23.131 -20.270   6.941  0.00  0.00    +0.028 C 
ATOM     21  C   LIG    1       23.743 -21.805   4.865  0.00  0.00    +0.043 C 
BRANCH  14  23
ATOM     22  N   LIG    1       24.567 -18.700   3.468  0.00  0.00    -0.195 NA
ATOM     23  C   LIG    1       24.774 -19.716   3.992  0.00  0.00    +0.085 C 
ENDBRANCH  14  23
ENDBRANCH   1  16
BRANCH   1  24
ATOM     24  N   LIG    1       27.037 -21.639   8.481  0.00  0.00    -0.320 NA
ATOM     25  H   LIG    1       27.783 -21.818   9.154  0.00  0.00    +0.119 HD
ATOM     26  H   LIG    1       26.205 -21.528   9.070  0.00  0.00    +0.119 HD
ENDBRANCH   1  24
TORSDOF 5
ENDMDL
MODEL 6
REMARK VINA RESULT:      -6.2      7.454      9.816
REMARK  Name = *****
REMARK                            x       y       z     vdW  Elec       q    Type
REMARK                         _______ _______ _______ _____ _____    ______ ____
ROOT
ATOM      1  C   LIG    1       24.138 -29.743   6.890  0.00  0.00    +0.144 C 
ENDROOT
BRANCH   1   2
ATOM      2  C   LIG    1       24.843 -30.054   8.245  0.00  0.00    -0.003 C 
ATOM      3  C   LIG    1       23.764 -30.205   9.360  0.00  0.00    +0.012 C 
ATOM      4  C   LIG    1       24.404 -30.487  10.730  0.00  0.00    -0.007 C 
ATOM      5  C   LIG    1       25.214 -31.788  10.643  0.00  0.00    +0.038 C 
ATOM      6  C   LIG    1       26.315 -31.648   9.580  0.00  0.00    +0.067 C 
ATOM      7  C   LIG    1       27.243 -30.485   9.961  0.00  0.00    +0.038 C 
ATOM      8  C   LIG    1       26.438 -29.180  10.040  0.00  0.00    -0.007 C 
ATOM      9  C   LIG    1       25.338 -29.325  11.101  0.00  0.00    +0.007 C 
ATOM     10  C   LIG    1       25.678 -31.362   8.206  0.00  0.00    +0.043 C 
ATOM     11  C   LIG    1       25.792 -28.898   8.671  0.00  0.00    +0.012 C 
BRANCH   6  12
ATOM     12  O   LIG    1       27.078 -32.846   9.521  0.00  0.00    -0.389 OA
ATOM     13  H   LIG    1       27.411 -33.032  10.415  0.00  0.00    +0.210 HD
ENDBRANCH   6  12
ENDBRANCH   1   2
BRANCH   1  16
ATOM     14  C   LIG    1       25.890 -27.196   4.510  0.00  0.00    +0.179 C 
ATOM     15  N   LIG    1       25.114 -27.790   5.621  0.00  0.00    -0.281 N 
ATOM     16  C   LIG    1       25.073 -29.159   5.792  0.00  0.00    +0.234 C 
ATOM     17  O   LIG    1       25.715 -29.911   5.051  0.00  0.00    -0.274 OA
ATOM     18  C   LIG    1       24.377 -26.774   6.322  0.00  0.00    +0.081 C 
ATOM     19  C   LIG    1       24.495 -25.485   5.561  0.00  0.00    +0.014 C 
ATOM     20  C   LIG    1       25.077 -25.596   6.943  0.00  0.00    +0.028 C 
ATOM     21  C   LIG    1       25.269 -25.792   4.303  0.00  0.00    +0.043 C 
BRANCH  14  23
ATOM     22  N   LIG    1       28.454 -27.037   5.120  0.00  0.00    -0.195 NA
ATOM     23  C   LIG    1       27.327 -27.084   4.838  0.00  0.00    +0.085 C 
ENDBRANCH  14  23
ENDBRANCH   1  16
BRANCH   1  24
ATOM     24  N   LIG    1       23.481 -30.950   6.321  0.00  0.00    -0.320 NA
ATOM     25  H   LIG    1       22.628 -31.135   6.851  0.00  0.00    +0.119 HD
ATOM     26  H   LIG    1       23.134 -30.692   5.391  0.00  0.00    +0.119 HD
ENDBRANCH   1  24
TORSDOF 5
ENDMDL
MODEL 7
REMARK VINA RESULT:      -6.0      4.401      6.806
REMARK  Name = *****
REMARK                            x       y       z     vdW  Elec       q    Type
REMARK                         _______ _______ _______ _____ _____    ______ ____
ROOT
ATOM      1  C   LIG    1       23.901 -24.128   5.878  0.00  0.00    +0.144 C 
ENDROOT
BRANCH   1   2
ATOM      2  C   LIG    1       24.059 -22.579   5.948  0.00  0.00    -0.003 C 
ATOM      3  C   LIG    1       24.569 -22.180   7.366  0.00  0.00    +0.012 C 
ATOM      4  C   LIG    1       24.719 -20.656   7.504  0.00  0.00    -0.007 C 
ATOM      5  C   LIG    1       25.724 -20.158   6.456  0.00  0.00    +0.038 C 
ATOM      6  C   LIG    1       25.221 -20.500   5.045  0.00  0.00    +0.067 C 
ATOM      7  C   LIG    1       23.859 -19.828   4.816  0.00  0.00    +0.038 C 
ATOM      8  C   LIG    1       22.848 -20.332   5.856  0.00  0.00    -0.007 C 
ATOM      9  C   LIG    1       23.356 -19.990   7.265  0.00  0.00    +0.007 C 
ATOM     10  C   LIG    1       25.066 -22.026   4.904  0.00  0.00    +0.043 C 
ATOM     11  C   LIG    1       22.700 -21.858   5.724  0.00  0.00    +0.012 C 
BRANCH   6  12
ATOM     12  O   LIG    1       26.142 -20.014   4.078  0.00  0.00    -0.389 OA
ATOM     13  H   LIG    1       25.652 -19.843   3.257  0.00  0.00    +0.210 HD
ENDBRANCH   6  12
ENDBRANCH   1   2
BRANCH   1  16
ATOM     14  C   LIG    1       26.295 -27.109   6.654  0.00  0.00    +0.179 C 
ATOM     15  N   LIG    1       25.139 -26.305   6.200  0.00  0.00    -0.281 N 
ATOM     16  C   LIG    1       25.187 -24.927   6.236  0.00  0.00    +0.234 C 
ATOM     17  O   LIG    1       26.208 -24.336   6.607  0.00  0.00    -0.274 OA
ATOM     18  C   LIG    1       24.025 -27.158   5.884  0.00  0.00    +0.081 C 
ATOM     19  C   LIG    1       24.357 -28.559   6.312  0.00  0.00    +0.014 C 
ATOM     20  C   LIG    1       24.150 -28.249   4.855  0.00  0.00    +0.028 C 
ATOM     21  C   LIG    1       25.701 -28.498   6.993  0.00  0.00    +0.043 C 
BRANCH  14  23
ATOM     22  N   LIG    1       28.108 -27.314   4.746  0.00  0.00    -0.195 NA
ATOM     23  C   LIG    1       27.329 -27.231   5.603  0.00  0.00    +0.085 C 
ENDBRANCH  14  23
ENDBRANCH   1  16
BRANCH   1  24
ATOM     24  N   LIG    1       22.811 -24.612   6.766  0.00  0.00    -0.320 NA
ATOM     25  H   LIG    1       22.963 -25.604   6.956  0.00  0.00    +0.119 HD
ATOM     26  H   LIG    1       22.952 -24.170   7.681  0.00  0.00    +0.119 HD
ENDBRANCH   1  24
TORSDOF 5
ENDMDL
MODEL 8
REMARK VINA RESULT:      -6.0      9.448     11.607
REMARK  Name = *****
REMARK                            x       y       z     vdW  Elec       q    Type
REMARK                         _______ _______ _______ _____ _____    ______ ____
ROOT
ATOM      1  C   LIG    1       26.823 -32.481   8.950  0.00  0.00    +0.144 C 
ENDROOT
BRANCH   1   2
ATOM      2  C   LIG    1       26.089 -32.474   7.575  0.00  0.00    -0.003 C 
ATOM      3  C   LIG    1       25.215 -33.760   7.456  0.00  0.00    +0.012 C 
ATOM      4  C   LIG    1       24.485 -33.822   6.104  0.00  0.00    -0.007 C 
ATOM      5  C   LIG    1       23.577 -32.591   5.971  0.00  0.00    +0.038 C 
ATOM      6  C   LIG    1       24.422 -31.309   6.041  0.00  0.00    +0.067 C 
ATOM      7  C   LIG    1       25.452 -31.319   4.902  0.00  0.00    +0.038 C 
ATOM      8  C   LIG    1       26.368 -32.544   5.037  0.00  0.00    -0.007 C 
ATOM      9  C   LIG    1       25.519 -33.821   4.969  0.00  0.00    +0.007 C 
ATOM     10  C   LIG    1       25.159 -31.244   7.393  0.00  0.00    +0.043 C 
ATOM     11  C   LIG    1       27.096 -32.486   6.391  0.00  0.00    +0.012 C 
BRANCH   6  12
ATOM     12  O   LIG    1       23.581 -30.173   5.892  0.00  0.00    -0.389 OA
ATOM     13  H   LIG    1       23.669 -29.854   4.978  0.00  0.00    +0.210 HD
ENDBRANCH   6  12
ENDBRANCH   1   2
BRANCH   1  16
ATOM     14  C   LIG    1       25.419 -30.334  11.889  0.00  0.00    +0.179 C 
ATOM     15  N   LIG    1       26.137 -30.763  10.669  0.00  0.00    -0.281 N 
ATOM     16  C   LIG    1       25.948 -32.029  10.154  0.00  0.00    +0.234 C 
ATOM     17  O   LIG    1       25.148 -32.813  10.675  0.00  0.00    -0.274 OA
ATOM     18  C   LIG    1       27.075 -29.755  10.254  0.00  0.00    +0.081 C 
ATOM     19  C   LIG    1       27.144 -28.697  11.318  0.00  0.00    +0.014 C 
ATOM     20  C   LIG    1       26.624 -28.352   9.951  0.00  0.00    +0.028 C 
ATOM     21  C   LIG    1       26.263 -29.163  12.451  0.00  0.00    +0.043 C 
BRANCH  14  23
ATOM     22  N   LIG    1       22.945 -29.569  11.379  0.00  0.00    -0.195 NA
ATOM     23  C   LIG    1       24.043 -29.884  11.591  0.00  0.00    +0.085 C 
ENDBRANCH  14  23
ENDBRANCH   1  16
BRANCH   1  24
ATOM     24  N   LIG    1       27.373 -33.824   9.275  0.00  0.00    -0.320 NA
ATOM     25  H   LIG    1       26.797 -34.241  10.008  0.00  0.00    +0.119 HD
ATOM     26  H   LIG    1       27.197 -34.424   8.462  0.00  0.00    +0.119 HD
ENDBRANCH   1  24
TORSDOF 5
ENDMDL
MODEL 9
REMARK VINA RESULT:      -5.9      9.455     10.690
REMARK  Name = *****
REMARK                            x       y       z     vdW  Elec       q    Type
REMARK                         _______ _______ _______ _____ _____    ______ ____
ROOT
ATOM      1  C   LIG    1       26.111 -29.182   9.632  0.00  0.00    +0.144 C 
ENDROOT
BRANCH   1   2
ATOM      2  C   LIG    1       25.572 -30.490   8.975  0.00  0.00    -0.003 C 
ATOM      3  C   LIG    1       24.701 -31.262  10.012  0.00  0.00    +0.012 C 
ATOM      4  C   LIG    1       24.162 -32.578   9.427  0.00  0.00    -0.007 C 
ATOM      5  C   LIG    1       23.304 -32.261   8.195  0.00  0.00    +0.038 C 
ATOM      6  C   LIG    1       24.153 -31.537   7.137  0.00  0.00    +0.067 C 
ATOM      7  C   LIG    1       25.330 -32.437   6.731  0.00  0.00    +0.038 C 
ATOM      8  C   LIG    1       26.197 -32.749   7.959  0.00  0.00    -0.007 C 
ATOM      9  C   LIG    1       25.343 -33.469   9.013  0.00  0.00    +0.007 C 
ATOM     10  C   LIG    1       24.698 -30.219   7.721  0.00  0.00    +0.043 C 
ATOM     11  C   LIG    1       26.732 -31.432   8.550  0.00  0.00    +0.012 C 
BRANCH   6  12
ATOM     12  O   LIG    1       23.360 -31.269   5.989  0.00  0.00    -0.389 OA
ATOM     13  H   LIG    1       23.953 -30.968   5.280  0.00  0.00    +0.210 HD
ENDBRANCH   6  12
ENDBRANCH   1   2
BRANCH   1  16
ATOM     14  C   LIG    1       27.365 -29.063  13.324  0.00  0.00    +0.179 C 
ATOM     15  N   LIG    1       26.513 -28.986  12.117  0.00  0.00    -0.281 N 
ATOM     16  C   LIG    1       26.992 -29.407  10.894  0.00  0.00    +0.234 C 
ATOM     17  O   LIG    1       28.123 -29.895  10.788  0.00  0.00    -0.274 OA
ATOM     18  C   LIG    1       25.272 -28.325  12.417  0.00  0.00    +0.081 C 
ATOM     19  C   LIG    1       25.352 -27.763  13.808  0.00  0.00    +0.014 C 
ATOM     20  C   LIG    1       24.355 -28.843  13.491  0.00  0.00    +0.028 C 
ATOM     21  C   LIG    1       26.748 -28.039  14.308  0.00  0.00    +0.043 C 
BRANCH  14  23
ATOM     22  N   LIG    1       27.386 -31.498  14.346  0.00  0.00    -0.195 NA
ATOM     23  C   LIG    1       27.362 -30.418  13.916  0.00  0.00    +0.085 C 
ENDBRANCH  14  23
ENDBRANCH   1  16
BRANCH   1  24
ATOM     24  N   LIG    1       26.903 -28.368   8.672  0.00  0.00    -0.320 NA
ATOM     25  H   LIG    1       27.638 -28.957   8.276  0.00  0.00    +0.119 HD
ATOM     26  H   LIG    1       26.294 -28.175   7.870  0.00  0.00    +0.119 HD
ENDBRANCH   1  24
TORSDOF 5
ENDMDL
