MODEL 1
REMARK VINA RESULT:      -4.0      0.000      0.000
REMARK  Name = *****
REMARK                            x       y       z     vdW  Elec       q    Type
REMARK                         _______ _______ _______ _____ _____    ______ ____
ROOT
ATOM      1  C   LIG    1       23.419 -19.696   4.436  0.00  0.00    +0.314 C 
ATOM      2  C   LIG    1       24.408 -19.751   5.583  0.00  0.00    +0.201 C 
ATOM      3  C   LIG    1       25.515 -20.618   5.023  0.00  0.00    +0.201 C 
ATOM      4  C   LIG    1       26.069 -21.277   6.271  0.00  0.00    +0.314 C 
ATOM      5  C   LIG    1       24.778 -21.531   7.047  0.00  0.00    +0.215 C 
ATOM      6  O   LIG    1       24.875 -21.572   4.146  0.00  0.00    -0.366 OA
ATOM      7  O   LIG    1       23.870 -20.455   6.720  0.00  0.00    -0.366 OA
ATOM      8  C   LIG    1       23.526 -21.121   3.903  0.00  0.00    +0.215 C 
ENDROOT
BRANCH   1   9
ATOM      9  O   LIG    1       22.077 -19.419   4.811  0.00  0.00    -0.208 OA
BRANCH   9  11
ATOM     10  O   LIG    1       20.778 -18.311   3.416  0.00  0.00    +0.093 OA
ATOM     11  N   LIG    1       21.604 -18.182   4.319  0.00  0.00    +0.285 N 
ATOM     12  O   LIG    1       22.089 -17.158   4.800  0.00  0.00    -0.534 OA
ENDBRANCH   9  11
ENDBRANCH   1   9
BRANCH   4  13
ATOM     13  O   LIG    1       26.850 -20.372   7.060  0.00  0.00    -0.208 OA
BRANCH  13  14
ATOM     14  N   LIG    1       28.230 -20.433   6.778  0.00  0.00    +0.285 N 
ATOM     15  O   LIG    1       28.813 -21.481   7.062  0.00  0.00    -0.534 OA
ATOM     16  O   LIG    1       28.658 -19.410   6.251  0.00  0.00    +0.093 OA
ENDBRANCH  13  14
ENDBRANCH   4  13
TORSDOF 4
ENDMDL
MODEL 2
REMARK VINA RESULT:      -2.9      5.766      6.879
REMARK  Name = *****
REMARK                            x       y       z     vdW  Elec       q    Type
REMARK                         _______ _______ _______ _____ _____    ______ ____
ROOT
ATOM      1  C   LIG    1       23.937 -14.602   4.263  0.00  0.00    +0.314 C 
ATOM      2  C   LIG    1       25.450 -14.596   4.168  0.00  0.00    +0.201 C 
ATOM      3  C   LIG    1       25.762 -13.128   3.965  0.00  0.00    +0.201 C 
ATOM      4  C   LIG    1       27.043 -13.181   3.157  0.00  0.00    +0.314 C 
ATOM      5  C   LIG    1       26.743 -14.364   2.238  0.00  0.00    +0.215 C 
ATOM      6  O   LIG    1       24.662 -12.585   3.201  0.00  0.00    -0.366 OA
ATOM      7  O   LIG    1       25.915 -15.281   2.988  0.00  0.00    -0.366 OA
ATOM      8  C   LIG    1       23.585 -13.545   3.223  0.00  0.00    +0.215 C 
ENDROOT
BRANCH   1   9
ATOM      9  O   LIG    1       23.319 -15.836   3.929  0.00  0.00    -0.208 OA
BRANCH   9  11
ATOM     10  O   LIG    1       22.095 -17.473   4.755  0.00  0.00    +0.093 OA
ATOM     11  N   LIG    1       22.425 -16.299   4.921  0.00  0.00    +0.285 N 
ATOM     12  O   LIG    1       22.059 -15.493   5.775  0.00  0.00    -0.534 OA
ENDBRANCH   9  11
ENDBRANCH   1   9
BRANCH   4  13
ATOM     13  O   LIG    1       28.172 -13.557   3.955  0.00  0.00    -0.208 OA
BRANCH  13  14
ATOM     14  N   LIG    1       28.826 -12.459   4.551  0.00  0.00    +0.285 N 
ATOM     15  O   LIG    1       28.693 -12.323   5.769  0.00  0.00    -0.534 OA
ATOM     16  O   LIG    1       29.472 -11.792   3.748  0.00  0.00    +0.093 OA
ENDBRANCH  13  14
ENDBRANCH   4  13
TORSDOF 4
ENDMDL
MODEL 3
REMARK VINA RESULT:      -1.9      5.994      8.213
REMARK  Name = *****
REMARK                            x       y       z     vdW  Elec       q    Type
REMARK                         _______ _______ _______ _____ _____    ______ ____
ROOT
ATOM      1  C   LIG    1       26.797 -13.003   2.733  0.00  0.00    +0.314 C 
ATOM      2  C   LIG    1       25.953 -13.780   3.723  0.00  0.00    +0.201 C 
ATOM      3  C   LIG    1       24.750 -14.176   2.893  0.00  0.00    +0.201 C 
ATOM      4  C   LIG    1       23.651 -14.247   3.934  0.00  0.00    +0.314 C 
ATOM      5  C   LIG    1       24.019 -13.050   4.809  0.00  0.00    +0.215 C 
ATOM      6  O   LIG    1       24.538 -13.099   1.954  0.00  0.00    -0.366 OA
ATOM      7  O   LIG    1       25.460 -12.937   4.784  0.00  0.00    -0.366 OA
ATOM      8  C   LIG    1       25.713 -12.262   1.959  0.00  0.00    +0.215 C 
ENDROOT
BRANCH   1   9
ATOM      9  O   LIG    1       27.701 -12.074   3.312  0.00  0.00    -0.208 OA
BRANCH   9  11
ATOM     10  O   LIG    1       28.738 -12.306   5.244  0.00  0.00    +0.093 OA
ATOM     11  N   LIG    1       28.721 -12.687   4.074  0.00  0.00    +0.285 N 
ATOM     12  O   LIG    1       29.474 -13.465   3.490  0.00  0.00    -0.534 OA
ENDBRANCH   9  11
ENDBRANCH   1   9
BRANCH   4  13
ATOM     13  O   LIG    1       23.763 -15.411   4.762  0.00  0.00    -0.208 OA
BRANCH  13  14
ATOM     14  N   LIG    1       22.523 -16.024   5.036  0.00  0.00    +0.285 N 
ATOM     15  O   LIG    1       22.251 -17.044   4.398  0.00  0.00    -0.534 OA
ATOM     16  O   LIG    1       21.887 -15.449   5.914  0.00  0.00    +0.093 OA
ENDBRANCH  13  14
ENDBRANCH   4  13
TORSDOF 4
ENDMDL
MODEL 4
REMARK VINA RESULT:      -1.9      5.802      7.012
REMARK  Name = *****
REMARK                            x       y       z     vdW  Elec       q    Type
REMARK                         _______ _______ _______ _____ _____    ______ ____
ROOT
ATOM      1  C   LIG    1       25.766 -16.109   3.812  0.00  0.00    +0.314 C 
ATOM      2  C   LIG    1       26.561 -14.953   3.238  0.00  0.00    +0.201 C 
ATOM      3  C   LIG    1       26.204 -13.813   4.166  0.00  0.00    +0.201 C 
ATOM      4  C   LIG    1       26.327 -12.607   3.256  0.00  0.00    +0.314 C 
ATOM      5  C   LIG    1       25.748 -13.175   1.962  0.00  0.00    +0.215 C 
ATOM      6  O   LIG    1       24.837 -14.042   4.577  0.00  0.00    -0.366 OA
ATOM      7  O   LIG    1       26.091 -14.579   1.927  0.00  0.00    -0.366 OA
ATOM      8  C   LIG    1       24.483 -15.393   4.219  0.00  0.00    +0.215 C 
ENDROOT
BRANCH   1   9
ATOM      9  O   LIG    1       25.470 -17.151   2.894  0.00  0.00    -0.208 OA
BRANCH   9  11
ATOM     10  O   LIG    1       26.109 -18.953   3.992  0.00  0.00    +0.093 OA
ATOM     11  N   LIG    1       25.132 -18.370   3.523  0.00  0.00    +0.285 N 
ATOM     12  O   LIG    1       23.952 -18.717   3.489  0.00  0.00    -0.534 OA
ENDBRANCH   9  11
ENDBRANCH   1   9
BRANCH   4  13
ATOM     13  O   LIG    1       27.694 -12.273   2.983  0.00  0.00    -0.208 OA
BRANCH  13  14
ATOM     14  N   LIG    1       28.583 -12.682   3.998  0.00  0.00    +0.285 N 
ATOM     15  O   LIG    1       28.349 -12.282   5.140  0.00  0.00    -0.534 OA
ATOM     16  O   LIG    1       29.473 -13.420   3.587  0.00  0.00    +0.093 OA
ENDBRANCH  13  14
ENDBRANCH   4  13
TORSDOF 4
ENDMDL
MODEL 5
REMARK VINA RESULT:      -1.2      5.741      6.962
REMARK  Name = *****
REMARK                            x       y       z     vdW  Elec       q    Type
REMARK                         _______ _______ _______ _____ _____    ______ ____
ROOT
ATOM      1  C   LIG    1       25.723 -12.807   5.204  0.00  0.00    +0.314 C 
ATOM      2  C   LIG    1       25.500 -13.927   4.207  0.00  0.00    +0.201 C 
ATOM      3  C   LIG    1       26.584 -14.918   4.575  0.00  0.00    +0.201 C 
ATOM      4  C   LIG    1       26.868 -15.591   3.247  0.00  0.00    +0.314 C 
ATOM      5  C   LIG    1       26.767 -14.395   2.302  0.00  0.00    +0.215 C 
ATOM      6  O   LIG    1       27.707 -14.134   5.036  0.00  0.00    -0.366 OA
ATOM      7  O   LIG    1       25.774 -13.503   2.857  0.00  0.00    -0.366 OA
ATOM      8  C   LIG    1       27.247 -12.786   5.268  0.00  0.00    +0.215 C 
ENDROOT
BRANCH   1   9
ATOM      9  O   LIG    1       25.238 -11.535   4.800  0.00  0.00    -0.208 OA
BRANCH   9  11
ATOM     10  O   LIG    1       23.452 -11.447   3.510  0.00  0.00    +0.093 OA
ATOM     11  N   LIG    1       23.830 -11.487   4.680  0.00  0.00    +0.285 N 
ATOM     12  O   LIG    1       23.174 -11.447   5.720  0.00  0.00    -0.534 OA
ENDBRANCH   9  11
ENDBRANCH   1   9
BRANCH   4  13
ATOM     13  O   LIG    1       25.829 -16.502   2.869  0.00  0.00    -0.208 OA
BRANCH  13  14
ATOM     14  N   LIG    1       26.018 -17.806   3.373  0.00  0.00    +0.285 N 
ATOM     15  O   LIG    1       27.103 -18.046   3.908  0.00  0.00    -0.534 OA
ATOM     16  O   LIG    1       25.035 -18.525   3.224  0.00  0.00    +0.093 OA
ENDBRANCH  13  14
ENDBRANCH   4  13
TORSDOF 4
ENDMDL
MODEL 6
REMARK VINA RESULT:      -1.1      4.951      7.016
REMARK  Name = *****
REMARK                            x       y       z     vdW  Elec       q    Type
REMARK                         _______ _______ _______ _____ _____    ______ ____
ROOT
ATOM      1  C   LIG    1       26.097 -17.042   3.216  0.00  0.00    +0.314 C 
ATOM      2  C   LIG    1       25.607 -15.627   2.982  0.00  0.00    +0.201 C 
ATOM      3  C   LIG    1       26.893 -14.828   2.985  0.00  0.00    +0.201 C 
ATOM      4  C   LIG    1       26.431 -13.479   3.499  0.00  0.00    +0.314 C 
ATOM      5  C   LIG    1       25.422 -13.916   4.559  0.00  0.00    +0.215 C 
ATOM      6  O   LIG    1       27.775 -15.489   3.919  0.00  0.00    -0.366 OA
ATOM      7  O   LIG    1       24.820 -15.142   4.088  0.00  0.00    -0.366 OA
ATOM      8  C   LIG    1       27.223 -16.789   4.213  0.00  0.00    +0.215 C 
ENDROOT
BRANCH   1   9
ATOM      9  O   LIG    1       25.138 -17.924   3.782  0.00  0.00    -0.208 OA
BRANCH   9  11
ATOM     10  O   LIG    1       25.132 -19.876   2.755  0.00  0.00    +0.093 OA
ATOM     11  N   LIG    1       25.540 -19.279   3.751  0.00  0.00    +0.285 N 
ATOM     12  O   LIG    1       26.186 -19.700   4.710  0.00  0.00    -0.534 OA
ENDBRANCH   9  11
ENDBRANCH   1   9
BRANCH   4  13
ATOM     13  O   LIG    1       25.697 -12.745   2.511  0.00  0.00    -0.208 OA
BRANCH  13  14
ATOM     14  N   LIG    1       24.374 -12.453   2.901  0.00  0.00    +0.285 N 
ATOM     15  O   LIG    1       24.226 -11.621   3.799  0.00  0.00    -0.534 OA
ATOM     16  O   LIG    1       23.535 -13.070   2.251  0.00  0.00    +0.093 OA
ENDBRANCH  13  14
ENDBRANCH   4  13
TORSDOF 4
ENDMDL
MODEL 7
REMARK VINA RESULT:      -1.1      4.886      6.902
REMARK  Name = *****
REMARK                            x       y       z     vdW  Elec       q    Type
REMARK                         _______ _______ _______ _____ _____    ______ ____
ROOT
ATOM      1  C   LIG    1       26.102 -17.464   3.339  0.00  0.00    +0.314 C 
ATOM      2  C   LIG    1       25.315 -16.201   3.050  0.00  0.00    +0.201 C 
ATOM      3  C   LIG    1       26.406 -15.190   2.768  0.00  0.00    +0.201 C 
ATOM      4  C   LIG    1       25.765 -13.892   3.216  0.00  0.00    +0.314 C 
ATOM      5  C   LIG    1       25.020 -14.365   4.463  0.00  0.00    +0.215 C 
ATOM      6  O   LIG    1       27.523 -15.559   3.606  0.00  0.00    -0.366 OA
ATOM      7  O   LIG    1       24.611 -15.730   4.217  0.00  0.00    -0.366 OA
ATOM      8  C   LIG    1       27.284 -16.889   4.111  0.00  0.00    +0.215 C 
ENDROOT
BRANCH   1   9
ATOM      9  O   LIG    1       25.424 -18.425   4.135  0.00  0.00    -0.208 OA
BRANCH   9  11
ATOM     10  O   LIG    1       23.335 -18.940   3.656  0.00  0.00    +0.093 OA
ATOM     11  N   LIG    1       24.508 -19.212   3.401  0.00  0.00    +0.285 N 
ATOM     12  O   LIG    1       24.970 -20.074   2.656  0.00  0.00    -0.534 OA
ENDBRANCH   9  11
ENDBRANCH   1   9
BRANCH   4  13
ATOM     13  O   LIG    1       24.770 -13.433   2.293  0.00  0.00    -0.208 OA
BRANCH  13  14
ATOM     14  N   LIG    1       24.623 -12.030   2.280  0.00  0.00    +0.285 N 
ATOM     15  O   LIG    1       23.579 -11.573   2.748  0.00  0.00    -0.534 OA
ATOM     16  O   LIG    1       25.599 -11.450   1.812  0.00  0.00    +0.093 OA
ENDBRANCH  13  14
ENDBRANCH   4  13
TORSDOF 4
ENDMDL
