MODEL 1
REMARK VINA RESULT:      -5.4      0.000      0.000
REMARK  Name = *****
REMARK                            x       y       z     vdW  Elec       q    Type
REMARK                         _______ _______ _______ _____ _____    ______ ____
ROOT
ATOM      1  C   LIG    1       24.166 -18.936   3.672  0.00  0.00    +0.339 C 
ATOM      2  O   LIG    1       22.992 -19.216   3.611  0.00  0.00    -0.245 OA
ENDROOT
BRANCH   1   3
ATOM      3  C   LIG    1       24.699 -17.545   3.750  0.00  0.00    +0.059 A 
ATOM      4  C   LIG    1       26.036 -17.318   3.414  0.00  0.00    +0.017 A 
ATOM      5  C   LIG    1       26.515 -16.004   3.330  0.00  0.00    +0.024 A 
ATOM      6  C   LIG    1       25.679 -14.905   3.581  0.00  0.00    +0.029 A 
ATOM      7  C   LIG    1       24.365 -15.163   3.993  0.00  0.00    +0.024 A 
ATOM      8  C   LIG    1       23.877 -16.466   4.072  0.00  0.00    +0.017 A 
BRANCH   6   9
ATOM      9  N   LIG    1       26.068 -13.577   3.380  0.00  0.00    -0.336 N 
ATOM     10  C   LIG    1       27.515 -13.373   3.380  0.00  0.00    +0.129 C 
ATOM     11  C   LIG    1       25.304 -12.792   2.419  0.00  0.00    +0.129 C 
ENDBRANCH   6   9
ENDBRANCH   1   3
BRANCH   1  12
ATOM     12  O   LIG    1       25.208 -19.804   3.763  0.00  0.00    -0.461 OA
BRANCH  12  13
ATOM     13  C   LIG    1       25.035 -20.907   4.660  0.00  0.00    +0.236 C 
BRANCH  13  14
ATOM     14  C   LIG    1       25.291 -20.475   6.113  0.00  0.00    +0.026 C 
BRANCH  14  15
ATOM     15  C   LIG    1       24.011 -20.731   6.953  0.00  0.00    +0.003 C 
ATOM     16  C   LIG    1       22.946 -21.572   6.263  0.00  0.00    +0.004 C 
ENDBRANCH  14  15
BRANCH  14  17
ATOM     17  C   LIG    1       26.529 -21.167   6.728  0.00  0.00    +0.007 C 
BRANCH  17  18
ATOM     18  C   LIG    1       27.755 -20.261   6.926  0.00  0.00    +0.000 C 
BRANCH  18  20
ATOM     19  C   LIG    1       29.320 -18.543   5.830  0.00  0.00    +0.004 C 
ATOM     20  C   LIG    1       28.286 -19.640   5.626  0.00  0.00    -0.003 C 
ENDBRANCH  18  20
ENDBRANCH  17  18
ENDBRANCH  14  17
ENDBRANCH  13  14
ENDBRANCH  12  13
ENDBRANCH   1  12
TORSDOF 9
ENDMDL
MODEL 2
REMARK VINA RESULT:      -5.2      1.601      2.628
REMARK  Name = *****
REMARK                            x       y       z     vdW  Elec       q    Type
REMARK                         _______ _______ _______ _____ _____    ______ ____
ROOT
ATOM      1  C   LIG    1       26.451 -17.313   3.641  0.00  0.00    +0.339 C 
ATOM      2  O   LIG    1       27.592 -17.536   3.972  0.00  0.00    -0.245 OA
ENDROOT
BRANCH   1   3
ATOM      3  C   LIG    1       25.882 -15.950   3.437  0.00  0.00    +0.059 A 
ATOM      4  C   LIG    1       24.571 -15.700   3.850  0.00  0.00    +0.017 A 
ATOM      5  C   LIG    1       24.070 -14.392   3.811  0.00  0.00    +0.024 A 
ATOM      6  C   LIG    1       24.859 -13.322   3.360  0.00  0.00    +0.029 A 
ATOM      7  C   LIG    1       26.142 -13.613   2.877  0.00  0.00    +0.024 A 
ATOM      8  C   LIG    1       26.652 -14.909   2.919  0.00  0.00    +0.017 A 
BRANCH   6   9
ATOM      9  N   LIG    1       24.457 -11.984   3.427  0.00  0.00    -0.336 N 
ATOM     10  C   LIG    1       23.961 -11.447   2.162  0.00  0.00    +0.129 C 
ATOM     11  C   LIG    1       23.758 -11.554   4.632  0.00  0.00    +0.129 C 
ENDBRANCH   6   9
ENDBRANCH   1   3
BRANCH   1  12
ATOM     12  O   LIG    1       25.502 -18.231   3.316  0.00  0.00    -0.461 OA
BRANCH  12  13
ATOM     13  C   LIG    1       25.698 -19.553   3.832  0.00  0.00    +0.236 C 
BRANCH  13  14
ATOM     14  C   LIG    1       24.789 -19.805   5.047  0.00  0.00    +0.026 C 
BRANCH  14  15
ATOM     15  C   LIG    1       23.352 -20.119   4.550  0.00  0.00    +0.003 C 
ATOM     16  C   LIG    1       22.368 -18.962   4.654  0.00  0.00    +0.004 C 
ENDBRANCH  14  15
BRANCH  14  17
ATOM     17  C   LIG    1       25.332 -20.917   5.972  0.00  0.00    +0.007 C 
BRANCH  17  18
ATOM     18  C   LIG    1       26.338 -20.452   7.036  0.00  0.00    +0.000 C 
BRANCH  18  20
ATOM     19  C   LIG    1       28.860 -20.006   6.823  0.00  0.00    +0.004 C 
ATOM     20  C   LIG    1       27.746 -21.041   6.861  0.00  0.00    -0.003 C 
ENDBRANCH  18  20
ENDBRANCH  17  18
ENDBRANCH  14  17
ENDBRANCH  13  14
ENDBRANCH  12  13
ENDBRANCH   1  12
TORSDOF 9
ENDMDL
MODEL 3
REMARK VINA RESULT:      -4.9      2.785      6.918
REMARK  Name = *****
REMARK                            x       y       z     vdW  Elec       q    Type
REMARK                         _______ _______ _______ _____ _____    ______ ____
ROOT
ATOM      1  C   LIG    1       26.614 -17.149   3.597  0.00  0.00    +0.339 C 
ATOM      2  O   LIG    1       27.727 -17.062   4.059  0.00  0.00    -0.245 OA
ENDROOT
BRANCH   1   3
ATOM      3  C   LIG    1       25.677 -18.280   3.861  0.00  0.00    +0.059 A 
ATOM      4  C   LIG    1       26.187 -19.463   4.401  0.00  0.00    +0.017 A 
ATOM      5  C   LIG    1       25.307 -20.478   4.801  0.00  0.00    +0.024 A 
ATOM      6  C   LIG    1       23.918 -20.333   4.666  0.00  0.00    +0.029 A 
ATOM      7  C   LIG    1       23.438 -19.170   4.049  0.00  0.00    +0.024 A 
ATOM      8  C   LIG    1       24.304 -18.152   3.656  0.00  0.00    +0.017 A 
BRANCH   6   9
ATOM      9  N   LIG    1       22.993 -21.253   5.171  0.00  0.00    -0.336 N 
ATOM     10  C   LIG    1       23.179 -21.571   6.585  0.00  0.00    +0.129 C 
ATOM     11  C   LIG    1       21.616 -21.142   4.707  0.00  0.00    +0.129 C 
ENDBRANCH   6   9
ENDBRANCH   1   3
BRANCH   1  12
ATOM     12  O   LIG    1       25.973 -16.227   2.831  0.00  0.00    -0.461 OA
BRANCH  12  13
ATOM     13  C   LIG    1       26.419 -14.873   2.968  0.00  0.00    +0.236 C 
BRANCH  13  14
ATOM     14  C   LIG    1       26.265 -14.390   4.420  0.00  0.00    +0.026 C 
BRANCH  14  15
ATOM     15  C   LIG    1       27.584 -13.707   4.871  0.00  0.00    +0.003 C 
ATOM     16  C   LIG    1       28.392 -13.065   3.752  0.00  0.00    +0.004 C 
ENDBRANCH  14  15
BRANCH  14  17
ATOM     17  C   LIG    1       25.044 -13.462   4.610  0.00  0.00    +0.007 C 
BRANCH  17  18
ATOM     18  C   LIG    1       24.083 -13.390   3.412  0.00  0.00    +0.000 C 
BRANCH  18  20
ATOM     19  C   LIG    1       24.954 -11.577   1.813  0.00  0.00    +0.004 C 
ATOM     20  C   LIG    1       23.906 -11.975   2.841  0.00  0.00    -0.003 C 
ENDBRANCH  18  20
ENDBRANCH  17  18
ENDBRANCH  14  17
ENDBRANCH  13  14
ENDBRANCH  12  13
ENDBRANCH   1  12
TORSDOF 9
ENDMDL
MODEL 4
REMARK VINA RESULT:      -4.6      1.182      3.012
REMARK  Name = *****
REMARK                            x       y       z     vdW  Elec       q    Type
REMARK                         _______ _______ _______ _____ _____    ______ ____
ROOT
ATOM      1  C   LIG    1       25.343 -18.707   3.512  0.00  0.00    +0.339 C 
ATOM      2  O   LIG    1       24.912 -19.328   2.570  0.00  0.00    -0.245 OA
ENDROOT
BRANCH   1   3
ATOM      3  C   LIG    1       25.280 -17.222   3.645  0.00  0.00    +0.059 A 
ATOM      4  C   LIG    1       26.406 -16.469   3.304  0.00  0.00    +0.017 A 
ATOM      5  C   LIG    1       26.320 -15.071   3.272  0.00  0.00    +0.024 A 
ATOM      6  C   LIG    1       25.122 -14.407   3.581  0.00  0.00    +0.029 A 
ATOM      7  C   LIG    1       24.032 -15.183   3.996  0.00  0.00    +0.024 A 
ATOM      8  C   LIG    1       24.106 -16.574   4.023  0.00  0.00    +0.017 A 
BRANCH   6   9
ATOM      9  N   LIG    1       24.944 -13.027   3.435  0.00  0.00    -0.336 N 
ATOM     10  C   LIG    1       24.712 -12.599   2.057  0.00  0.00    +0.129 C 
ATOM     11  C   LIG    1       24.179 -12.337   4.466  0.00  0.00    +0.129 C 
ENDBRANCH   6   9
ENDBRANCH   1   3
BRANCH   1  12
ATOM     12  O   LIG    1       25.885 -19.220   4.649  0.00  0.00    -0.461 OA
BRANCH  12  13
ATOM     13  C   LIG    1       25.824 -20.644   4.790  0.00  0.00    +0.236 C 
BRANCH  13  14
ATOM     14  C   LIG    1       25.717 -21.041   6.272  0.00  0.00    +0.026 C 
BRANCH  14  15
ATOM     15  C   LIG    1       26.878 -20.380   7.062  0.00  0.00    +0.003 C 
ATOM     16  C   LIG    1       28.275 -20.758   6.589  0.00  0.00    +0.004 C 
ENDBRANCH  14  15
BRANCH  14  17
ATOM     17  C   LIG    1       24.339 -20.693   6.881  0.00  0.00    +0.007 C 
BRANCH  17  18
ATOM     18  C   LIG    1       23.171 -21.568   6.400  0.00  0.00    +0.000 C 
BRANCH  18  20
ATOM     19  C   LIG    1       22.352 -19.457   5.183  0.00  0.00    +0.004 C 
ATOM     20  C   LIG    1       22.402 -20.978   5.208  0.00  0.00    -0.003 C 
ENDBRANCH  18  20
ENDBRANCH  17  18
ENDBRANCH  14  17
ENDBRANCH  13  14
ENDBRANCH  12  13
ENDBRANCH   1  12
TORSDOF 9
ENDMDL
MODEL 5
REMARK VINA RESULT:      -4.0      1.334      2.278
REMARK  Name = *****
REMARK                            x       y       z     vdW  Elec       q    Type
REMARK                         _______ _______ _______ _____ _____    ______ ____
ROOT
ATOM      1  C   LIG    1       23.635 -17.009   3.967  0.00  0.00    +0.339 C 
ATOM      2  O   LIG    1       22.499 -16.834   4.341  0.00  0.00    -0.245 OA
ENDROOT
BRANCH   1   3
ATOM      3  C   LIG    1       24.664 -15.934   3.859  0.00  0.00    +0.059 A 
ATOM      4  C   LIG    1       24.340 -14.648   4.299  0.00  0.00    +0.017 A 
ATOM      5  C   LIG    1       25.335 -13.663   4.352  0.00  0.00    +0.024 A 
ATOM      6  C   LIG    1       26.656 -13.940   3.967  0.00  0.00    +0.029 A 
ATOM      7  C   LIG    1       26.935 -15.214   3.455  0.00  0.00    +0.024 A 
ATOM      8  C   LIG    1       25.954 -16.203   3.406  0.00  0.00    +0.017 A 
BRANCH   6   9
ATOM      9  N   LIG    1       27.712 -13.037   4.126  0.00  0.00    -0.336 N 
ATOM     10  C   LIG    1       27.960 -12.648   5.513  0.00  0.00    +0.129 C 
ATOM     11  C   LIG    1       28.889 -13.227   3.287  0.00  0.00    +0.129 C 
ENDBRANCH   6   9
ENDBRANCH   1   3
BRANCH   1  12
ATOM     12  O   LIG    1       24.217 -18.198   3.655  0.00  0.00    -0.461 OA
BRANCH  12  13
ATOM     13  C   LIG    1       23.443 -19.371   3.927  0.00  0.00    +0.236 C 
BRANCH  13  14
ATOM     14  C   LIG    1       23.897 -20.033   5.239  0.00  0.00    +0.026 C 
BRANCH  14  15
ATOM     15  C   LIG    1       22.893 -21.156   5.616  0.00  0.00    +0.003 C 
ATOM     16  C   LIG    1       21.611 -21.176   4.795  0.00  0.00    +0.004 C 
ENDBRANCH  14  15
BRANCH  14  17
ATOM     17  C   LIG    1       25.347 -20.561   5.166  0.00  0.00    +0.007 C 
BRANCH  17  18
ATOM     18  C   LIG    1       25.890 -21.170   6.469  0.00  0.00    +0.000 C 
BRANCH  18  20
ATOM     19  C   LIG    1       28.134 -19.993   6.042  0.00  0.00    +0.004 C 
ATOM     20  C   LIG    1       27.084 -20.408   7.062  0.00  0.00    -0.003 C 
ENDBRANCH  18  20
ENDBRANCH  17  18
ENDBRANCH  14  17
ENDBRANCH  13  14
ENDBRANCH  12  13
ENDBRANCH   1  12
TORSDOF 9
ENDMDL
MODEL 6
REMARK VINA RESULT:      -4.0      1.955      3.945
REMARK  Name = *****
REMARK                            x       y       z     vdW  Elec       q    Type
REMARK                         _______ _______ _______ _____ _____    ______ ____
ROOT
ATOM      1  C   LIG    1       27.294 -16.712   3.896  0.00  0.00    +0.339 C 
ATOM      2  O   LIG    1       28.307 -16.942   4.513  0.00  0.00    -0.245 OA
ENDROOT
BRANCH   1   3
ATOM      3  C   LIG    1       26.725 -15.349   3.687  0.00  0.00    +0.059 A 
ATOM      4  C   LIG    1       26.256 -15.004   2.417  0.00  0.00    +0.017 A 
ATOM      5  C   LIG    1       25.579 -13.791   2.235  0.00  0.00    +0.024 A 
ATOM      6  C   LIG    1       25.364 -12.908   3.304  0.00  0.00    +0.029 A 
ATOM      7  C   LIG    1       25.914 -13.242   4.549  0.00  0.00    +0.024 A 
ATOM      8  C   LIG    1       26.582 -14.449   4.742  0.00  0.00    +0.017 A 
BRANCH   6   9
ATOM      9  N   LIG    1       24.580 -11.754   3.207  0.00  0.00    -0.336 N 
ATOM     10  C   LIG    1       24.137 -11.447   1.848  0.00  0.00    +0.129 C 
ATOM     11  C   LIG    1       23.619 -11.504   4.273  0.00  0.00    +0.129 C 
ENDBRANCH   6   9
ENDBRANCH   1   3
BRANCH   1  12
ATOM     12  O   LIG    1       26.531 -17.609   3.217  0.00  0.00    -0.461 OA
BRANCH  12  13
ATOM     13  C   LIG    1       25.439 -18.187   3.942  0.00  0.00    +0.236 C 
BRANCH  13  14
ATOM     14  C   LIG    1       25.541 -19.721   3.949  0.00  0.00    +0.026 C 
BRANCH  14  15
ATOM     15  C   LIG    1       26.039 -20.191   5.343  0.00  0.00    +0.003 C 
ATOM     16  C   LIG    1       27.543 -20.088   5.558  0.00  0.00    +0.004 C 
ENDBRANCH  14  15
BRANCH  14  17
ATOM     17  C   LIG    1       24.213 -20.406   3.555  0.00  0.00    +0.007 C 
BRANCH  17  18
ATOM     18  C   LIG    1       23.247 -20.682   4.718  0.00  0.00    +0.000 C 
BRANCH  18  20
ATOM     19  C   LIG    1       22.142 -18.362   4.658  0.00  0.00    +0.004 C 
ATOM     20  C   LIG    1       21.944 -19.871   4.650  0.00  0.00    -0.003 C 
ENDBRANCH  18  20
ENDBRANCH  17  18
ENDBRANCH  14  17
ENDBRANCH  13  14
ENDBRANCH  12  13
ENDBRANCH   1  12
TORSDOF 9
ENDMDL
MODEL 7
REMARK VINA RESULT:      -4.0      2.812      6.288
REMARK  Name = *****
REMARK                            x       y       z     vdW  Elec       q    Type
REMARK                         _______ _______ _______ _____ _____    ______ ____
ROOT
ATOM      1  C   LIG    1       26.459 -17.108   3.424  0.00  0.00    +0.339 C 
ATOM      2  O   LIG    1       27.645 -17.101   3.652  0.00  0.00    -0.245 OA
ENDROOT
BRANCH   1   3
ATOM      3  C   LIG    1       25.547 -18.249   3.730  0.00  0.00    +0.059 A 
ATOM      4  C   LIG    1       26.101 -19.446   4.191  0.00  0.00    +0.017 A 
ATOM      5  C   LIG    1       25.257 -20.475   4.631  0.00  0.00    +0.024 A 
ATOM      6  C   LIG    1       23.862 -20.331   4.613  0.00  0.00    +0.029 A 
ATOM      7  C   LIG    1       23.332 -19.153   4.072  0.00  0.00    +0.024 A 
ATOM      8  C   LIG    1       24.163 -18.120   3.639  0.00  0.00    +0.017 A 
BRANCH   6   9
ATOM      9  N   LIG    1       22.982 -21.269   5.163  0.00  0.00    -0.336 N 
ATOM     10  C   LIG    1       23.236 -21.572   6.570  0.00  0.00    +0.129 C 
ATOM     11  C   LIG    1       21.583 -21.193   4.760  0.00  0.00    +0.129 C 
ENDBRANCH   6   9
ENDBRANCH   1   3
BRANCH   1  12
ATOM     12  O   LIG    1       25.716 -16.081   2.933  0.00  0.00    -0.461 OA
BRANCH  12  13
ATOM     13  C   LIG    1       26.357 -14.801   2.892  0.00  0.00    +0.236 C 
BRANCH  13  14
ATOM     14  C   LIG    1       25.426 -13.707   3.441  0.00  0.00    +0.026 C 
BRANCH  14  15
ATOM     15  C   LIG    1       23.961 -14.219   3.403  0.00  0.00    +0.003 C 
ATOM     16  C   LIG    1       23.430 -14.748   4.729  0.00  0.00    +0.004 C 
ENDBRANCH  14  15
BRANCH  14  17
ATOM     17  C   LIG    1       25.833 -13.237   4.856  0.00  0.00    +0.007 C 
BRANCH  17  18
ATOM     18  C   LIG    1       27.229 -13.682   5.318  0.00  0.00    +0.000 C 
BRANCH  18  20
ATOM     19  C   LIG    1       29.075 -12.695   3.827  0.00  0.00    +0.004 C 
ATOM     20  C   LIG    1       28.315 -12.609   5.142  0.00  0.00    -0.003 C 
ENDBRANCH  18  20
ENDBRANCH  17  18
ENDBRANCH  14  17
ENDBRANCH  13  14
ENDBRANCH  12  13
ENDBRANCH   1  12
TORSDOF 9
ENDMDL
MODEL 8
REMARK VINA RESULT:      -3.9      1.088      2.010
REMARK  Name = *****
REMARK                            x       y       z     vdW  Elec       q    Type
REMARK                         _______ _______ _______ _____ _____    ______ ____
ROOT
ATOM      1  C   LIG    1       22.659 -18.076   4.419  0.00  0.00    +0.339 C 
ATOM      2  O   LIG    1       21.464 -17.970   4.560  0.00  0.00    -0.245 OA
ENDROOT
BRANCH   1   3
ATOM      3  C   LIG    1       23.569 -16.951   4.052  0.00  0.00    +0.059 A 
ATOM      4  C   LIG    1       23.129 -15.640   4.246  0.00  0.00    +0.017 A 
ATOM      5  C   LIG    1       24.019 -14.575   4.056  0.00  0.00    +0.024 A 
ATOM      6  C   LIG    1       25.349 -14.798   3.668  0.00  0.00    +0.029 A 
ATOM      7  C   LIG    1       25.742 -16.116   3.403  0.00  0.00    +0.024 A 
ATOM      8  C   LIG    1       24.866 -17.183   3.597  0.00  0.00    +0.017 A 
BRANCH   6   9
ATOM      9  N   LIG    1       26.312 -13.785   3.595  0.00  0.00    -0.336 N 
ATOM     10  C   LIG    1       27.672 -14.235   3.883  0.00  0.00    +0.129 C 
ATOM     11  C   LIG    1       26.166 -12.798   2.533  0.00  0.00    +0.129 C 
ENDBRANCH   6   9
ENDBRANCH   1   3
BRANCH   1  12
ATOM     12  O   LIG    1       23.412 -19.187   4.639  0.00  0.00    -0.461 OA
BRANCH  12  13
ATOM     13  C   LIG    1       22.888 -20.128   5.583  0.00  0.00    +0.236 C 
BRANCH  13  14
ATOM     14  C   LIG    1       23.929 -21.211   5.909  0.00  0.00    +0.026 C 
BRANCH  14  15
ATOM     15  C   LIG    1       24.711 -21.570   4.616  0.00  0.00    +0.003 C 
ATOM     16  C   LIG    1       23.899 -21.496   3.331  0.00  0.00    +0.004 C 
ENDBRANCH  14  15
BRANCH  14  17
ATOM     17  C   LIG    1       24.878 -20.796   7.056  0.00  0.00    +0.007 C 
BRANCH  17  18
ATOM     18  C   LIG    1       26.274 -21.438   7.016  0.00  0.00    +0.000 C 
BRANCH  18  20
ATOM     19  C   LIG    1       27.753 -19.791   5.710  0.00  0.00    +0.004 C 
ATOM     20  C   LIG    1       27.426 -20.423   7.055  0.00  0.00    -0.003 C 
ENDBRANCH  18  20
ENDBRANCH  17  18
ENDBRANCH  14  17
ENDBRANCH  13  14
ENDBRANCH  12  13
ENDBRANCH   1  12
TORSDOF 9
ENDMDL
MODEL 9
REMARK VINA RESULT:      -3.9      2.174      5.583
REMARK  Name = *****
REMARK                            x       y       z     vdW  Elec       q    Type
REMARK                         _______ _______ _______ _____ _____    ______ ____
ROOT
ATOM      1  C   LIG    1       23.122 -19.981   4.646  0.00  0.00    +0.339 C 
ATOM      2  O   LIG    1       22.188 -20.725   4.837  0.00  0.00    -0.245 OA
ENDROOT
BRANCH   1   3
ATOM      3  C   LIG    1       24.492 -20.187   5.200  0.00  0.00    +0.059 A 
ATOM      4  C   LIG    1       25.593 -19.952   4.373  0.00  0.00    +0.017 A 
ATOM      5  C   LIG    1       26.885 -19.988   4.914  0.00  0.00    +0.024 A 
ATOM      6  C   LIG    1       27.099 -20.261   6.274  0.00  0.00    +0.029 A 
ATOM      7  C   LIG    1       25.984 -20.572   7.062  0.00  0.00    +0.024 A 
ATOM      8  C   LIG    1       24.694 -20.531   6.535  0.00  0.00    +0.017 A 
BRANCH   6   9
ATOM      9  N   LIG    1       28.352 -20.177   6.890  0.00  0.00    -0.336 N 
ATOM     10  C   LIG    1       29.043 -21.459   7.011  0.00  0.00    +0.129 C 
ATOM     11  C   LIG    1       29.180 -19.022   6.570  0.00  0.00    +0.129 C 
ENDBRANCH   6   9
ENDBRANCH   1   3
BRANCH   1  12
ATOM     12  O   LIG    1       23.139 -18.882   3.847  0.00  0.00    -0.461 OA
BRANCH  12  13
ATOM     13  C   LIG    1       22.679 -17.662   4.439  0.00  0.00    +0.236 C 
BRANCH  13  14
ATOM     14  C   LIG    1       23.438 -16.455   3.864  0.00  0.00    +0.026 C 
BRANCH  14  15
ATOM     15  C   LIG    1       23.175 -15.215   4.760  0.00  0.00    +0.003 C 
ATOM     16  C   LIG    1       23.755 -13.908   4.236  0.00  0.00    +0.004 C 
ENDBRANCH  14  15
BRANCH  14  17
ATOM     17  C   LIG    1       24.950 -16.730   3.697  0.00  0.00    +0.007 C 
BRANCH  17  18
ATOM     18  C   LIG    1       25.776 -15.549   3.164  0.00  0.00    +0.000 C 
BRANCH  18  20
ATOM     19  C   LIG    1       27.691 -14.091   4.065  0.00  0.00    +0.004 C 
ATOM     20  C   LIG    1       27.208 -15.492   3.718  0.00  0.00    -0.003 C 
ENDBRANCH  18  20
ENDBRANCH  17  18
ENDBRANCH  14  17
ENDBRANCH  13  14
ENDBRANCH  12  13
ENDBRANCH   1  12
TORSDOF 9
ENDMDL
