MODEL 1
REMARK VINA RESULT:      -7.9      0.000      0.000
REMARK  Name = *****
REMARK                            x       y       z     vdW  Elec       q    Type
REMARK                         _______ _______ _______ _____ _____    ______ ____
ROOT
ATOM      1  C   LIG    1       24.607 -25.053   6.580  0.00  0.00    -0.025 A 
ATOM      2  C   LIG    1       25.901 -24.590   6.778  0.00  0.00    +0.011 A 
ATOM      3  C   LIG    1       26.128 -23.236   7.031  0.00  0.00    +0.046 A 
ATOM      4  C   LIG    1       25.069 -22.333   7.125  0.00  0.00    +0.121 A 
ATOM      5  C   LIG    1       23.768 -22.803   6.909  0.00  0.00    +0.046 A 
ATOM      6  C   LIG    1       23.537 -24.158   6.632  0.00  0.00    +0.011 A 
ENDROOT
BRANCH   1   8
ATOM      7  C   LIG    1       25.155 -27.406   6.922  0.00  0.00    +0.008 C 
ATOM      8  C   LIG    1       24.406 -26.482   6.329  0.00  0.00    +0.008 C 
BRANCH   7  12
ATOM      9  C   LIG    1       24.498 -31.570   6.152  0.00  0.00    +0.027 A 
ATOM     10  C   LIG    1       25.070 -30.726   5.194  0.00  0.00    +0.023 A 
ATOM     11  C   LIG    1       25.268 -29.368   5.446  0.00  0.00    +0.009 A 
ATOM     12  C   LIG    1       24.928 -28.833   6.686  0.00  0.00    -0.025 A 
ATOM     13  C   LIG    1       24.397 -29.662   7.673  0.00  0.00    +0.009 A 
ATOM     14  C   LIG    1       24.183 -31.021   7.404  0.00  0.00    +0.023 A 
BRANCH   9  16
ATOM     15  C   LIG    1       23.146 -33.375   5.184  0.00  0.00    +0.125 C 
ATOM     16  N   LIG    1       24.304 -32.941   5.945  0.00  0.00    -0.347 N 
ATOM     17  H   LIG    1       24.449 -33.467   6.805  0.00  0.00    +0.146 HD
ENDBRANCH   9  16
ENDBRANCH   7  12
ENDBRANCH   1   8
BRANCH   4  18
ATOM     18  O   LIG    1       25.172 -21.001   7.420  0.00  0.00    -0.490 OA
BRANCH  18  19
ATOM     19  C   LIG    1       26.189 -20.584   8.337  0.00  0.00    +0.257 C 
BRANCH  19  20
ATOM     20  C   LIG    1       27.477 -20.256   7.593  0.00  0.00    +0.201 C 
BRANCH  20  21
ATOM     21  O   LIG    1       28.472 -19.841   8.532  0.00  0.00    -0.374 OA
BRANCH  21  22
ATOM     22  C   LIG    1       29.725 -19.594   7.901  0.00  0.00    +0.188 C 
BRANCH  22  23
ATOM     23  C   LIG    1       30.804 -20.499   8.494  0.00  0.00    +0.188 C 
BRANCH  23  24
ATOM     24  O   LIG    1       31.824 -19.719   9.125  0.00  0.00    -0.375 OA
BRANCH  24  25
ATOM     25  C   LIG    1       31.606 -18.309   9.020  0.00  0.00    +0.193 C 
BRANCH  25  26
ATOM     26  C   LIG    1       31.317 -17.659  10.365  0.00  0.00    +0.241 C 
ATOM     27  F   LIG    1       30.144 -16.979  10.305  0.00  0.00    -0.247 F 
ENDBRANCH  25  26
ENDBRANCH  24  25
ENDBRANCH  23  24
ENDBRANCH  22  23
ENDBRANCH  21  22
ENDBRANCH  20  21
ENDBRANCH  19  20
ENDBRANCH  18  19
ENDBRANCH   4  18
TORSDOF 12
ENDMDL
MODEL 2
REMARK VINA RESULT:      -7.6      5.185     10.803
REMARK  Name = *****
REMARK                            x       y       z     vdW  Elec       q    Type
REMARK                         _______ _______ _______ _____ _____    ______ ____
ROOT
ATOM      1  C   LIG    1       26.454 -21.167   7.622  0.00  0.00    -0.025 A 
ATOM      2  C   LIG    1       25.178 -20.702   7.336  0.00  0.00    +0.011 A 
ATOM      3  C   LIG    1       24.171 -21.598   6.975  0.00  0.00    +0.046 A 
ATOM      4  C   LIG    1       24.411 -22.972   6.927  0.00  0.00    +0.121 A 
ATOM      5  C   LIG    1       25.704 -23.434   7.201  0.00  0.00    +0.046 A 
ATOM      6  C   LIG    1       26.725 -22.534   7.543  0.00  0.00    +0.011 A 
ENDROOT
BRANCH   1   8
ATOM      7  C   LIG    1       28.763 -20.384   7.711  0.00  0.00    +0.008 C 
ATOM      8  C   LIG    1       27.482 -20.198   8.009  0.00  0.00    +0.008 C 
BRANCH   7  12
ATOM      9  C   LIG    1       31.679 -17.447   8.820  0.00  0.00    +0.027 A 
ATOM     10  C   LIG    1       30.414 -17.487   9.414  0.00  0.00    +0.023 A 
ATOM     11  C   LIG    1       29.463 -18.437   9.037  0.00  0.00    +0.009 A 
ATOM     12  C   LIG    1       29.779 -19.396   8.079  0.00  0.00    -0.025 A 
ATOM     13  C   LIG    1       31.049 -19.404   7.504  0.00  0.00    +0.009 A 
ATOM     14  C   LIG    1       31.991 -18.434   7.874  0.00  0.00    +0.023 A 
BRANCH   9  16
ATOM     15  C   LIG    1       32.992 -16.373  10.594  0.00  0.00    +0.125 C 
ATOM     16  N   LIG    1       32.667 -16.525   9.186  0.00  0.00    -0.347 N 
ATOM     17  H   LIG    1       32.544 -15.640   8.697  0.00  0.00    +0.146 HD
ENDBRANCH   9  16
ENDBRANCH   7  12
ENDBRANCH   1   8
BRANCH   4  18
ATOM     18  O   LIG    1       23.489 -23.939   6.640  0.00  0.00    -0.490 OA
BRANCH  18  19
ATOM     19  C   LIG    1       23.956 -25.258   6.337  0.00  0.00    +0.257 C 
BRANCH  19  20
ATOM     20  C   LIG    1       24.620 -25.288   4.966  0.00  0.00    +0.201 C 
BRANCH  20  21
ATOM     21  O   LIG    1       25.390 -26.486   4.841  0.00  0.00    -0.374 OA
BRANCH  21  22
ATOM     22  C   LIG    1       25.092 -27.417   5.877  0.00  0.00    +0.188 C 
BRANCH  22  23
ATOM     23  C   LIG    1       25.230 -28.848   5.359  0.00  0.00    +0.188 C 
BRANCH  23  24
ATOM     24  O   LIG    1       25.252 -29.777   6.448  0.00  0.00    -0.375 OA
BRANCH  24  25
ATOM     25  C   LIG    1       24.768 -29.224   7.676  0.00  0.00    +0.193 C 
BRANCH  25  26
ATOM     26  C   LIG    1       25.766 -29.368   8.816  0.00  0.00    +0.241 C 
ATOM     27  F   LIG    1       26.599 -28.296   8.837  0.00  0.00    -0.247 F 
ENDBRANCH  25  26
ENDBRANCH  24  25
ENDBRANCH  23  24
ENDBRANCH  22  23
ENDBRANCH  21  22
ENDBRANCH  20  21
ENDBRANCH  19  20
ENDBRANCH  18  19
ENDBRANCH   4  18
TORSDOF 12
ENDMDL
MODEL 3
REMARK VINA RESULT:      -7.5      5.650     11.529
REMARK  Name = *****
REMARK                            x       y       z     vdW  Elec       q    Type
REMARK                         _______ _______ _______ _____ _____    ______ ____
ROOT
ATOM      1  C   LIG    1       26.909 -20.975   7.396  0.00  0.00    -0.025 A 
ATOM      2  C   LIG    1       26.799 -22.189   8.060  0.00  0.00    +0.011 A 
ATOM      3  C   LIG    1       25.929 -23.171   7.583  0.00  0.00    +0.046 A 
ATOM      4  C   LIG    1       25.184 -22.970   6.421  0.00  0.00    +0.121 A 
ATOM      5  C   LIG    1       25.286 -21.738   5.765  0.00  0.00    +0.046 A 
ATOM      6  C   LIG    1       26.143 -20.740   6.253  0.00  0.00    +0.011 A 
ENDROOT
BRANCH   1   8
ATOM      7  C   LIG    1       29.148 -20.049   7.687  0.00  0.00    +0.008 C 
ATOM      8  C   LIG    1       27.842 -19.973   7.919  0.00  0.00    +0.008 C 
BRANCH   7  12
ATOM      9  C   LIG    1       31.904 -17.104   9.132  0.00  0.00    +0.027 A 
ATOM     10  C   LIG    1       32.271 -18.039   8.159  0.00  0.00    +0.023 A 
ATOM     11  C   LIG    1       31.372 -19.005   7.703  0.00  0.00    +0.009 A 
ATOM     12  C   LIG    1       30.068 -19.028   8.190  0.00  0.00    -0.025 A 
ATOM     13  C   LIG    1       29.666 -18.079   9.129  0.00  0.00    +0.009 A 
ATOM     14  C   LIG    1       30.580 -17.124   9.596  0.00  0.00    +0.023 A 
BRANCH   9  16
ATOM     15  C   LIG    1       32.910 -15.919  11.031  0.00  0.00    +0.125 C 
ATOM     16  N   LIG    1       32.769 -16.106   9.598  0.00  0.00    -0.347 N 
ATOM     17  H   LIG    1       32.640 -15.237   9.083  0.00  0.00    +0.146 HD
ENDBRANCH   9  16
ENDBRANCH   7  12
ENDBRANCH   1   8
BRANCH   4  18
ATOM     18  O   LIG    1       24.345 -23.880   5.837  0.00  0.00    -0.490 OA
BRANCH  18  19
ATOM     19  C   LIG    1       24.814 -24.604   4.695  0.00  0.00    +0.257 C 
BRANCH  19  20
ATOM     20  C   LIG    1       25.127 -26.047   5.069  0.00  0.00    +0.201 C 
BRANCH  20  21
ATOM     21  O   LIG    1       24.295 -26.442   6.163  0.00  0.00    -0.374 OA
BRANCH  21  22
ATOM     22  C   LIG    1       24.616 -27.750   6.626  0.00  0.00    +0.188 C 
BRANCH  22  23
ATOM     23  C   LIG    1       24.348 -28.780   5.530  0.00  0.00    +0.188 C 
BRANCH  23  24
ATOM     24  O   LIG    1       23.576 -29.871   6.043  0.00  0.00    -0.375 OA
BRANCH  24  25
ATOM     25  C   LIG    1       24.305 -31.100   6.110  0.00  0.00    +0.193 C 
BRANCH  25  26
ATOM     26  C   LIG    1       25.561 -31.084   5.253  0.00  0.00    +0.241 C 
ATOM     27  F   LIG    1       25.482 -32.047   4.300  0.00  0.00    -0.247 F 
ENDBRANCH  25  26
ENDBRANCH  24  25
ENDBRANCH  23  24
ENDBRANCH  22  23
ENDBRANCH  21  22
ENDBRANCH  20  21
ENDBRANCH  19  20
ENDBRANCH  18  19
ENDBRANCH   4  18
TORSDOF 12
ENDMDL
MODEL 4
REMARK VINA RESULT:      -7.5      1.376      1.720
REMARK  Name = *****
REMARK                            x       y       z     vdW  Elec       q    Type
REMARK                         _______ _______ _______ _____ _____    ______ ____
ROOT
ATOM      1  C   LIG    1       25.142 -24.091   6.502  0.00  0.00    -0.025 A 
ATOM      2  C   LIG    1       24.762 -23.259   5.459  0.00  0.00    +0.011 A 
ATOM      3  C   LIG    1       25.182 -21.927   5.437  0.00  0.00    +0.046 A 
ATOM      4  C   LIG    1       26.013 -21.418   6.435  0.00  0.00    +0.121 A 
ATOM      5  C   LIG    1       26.381 -22.258   7.493  0.00  0.00    +0.046 A 
ATOM      6  C   LIG    1       25.943 -23.590   7.530  0.00  0.00    +0.011 A 
ENDROOT
BRANCH   1   8
ATOM      7  C   LIG    1       25.549 -26.495   6.596  0.00  0.00    +0.008 C 
ATOM      8  C   LIG    1       24.693 -25.486   6.484  0.00  0.00    +0.008 C 
BRANCH   7  12
ATOM      9  C   LIG    1       24.149 -30.545   6.559  0.00  0.00    +0.027 A 
ATOM     10  C   LIG    1       23.995 -29.703   5.453  0.00  0.00    +0.023 A 
ATOM     11  C   LIG    1       24.440 -28.381   5.477  0.00  0.00    +0.009 A 
ATOM     12  C   LIG    1       25.087 -27.884   6.605  0.00  0.00    -0.025 A 
ATOM     13  C   LIG    1       25.292 -28.717   7.705  0.00  0.00    +0.009 A 
ATOM     14  C   LIG    1       24.824 -30.038   7.680  0.00  0.00    +0.023 A 
BRANCH   9  16
ATOM     15  C   LIG    1       24.419 -32.818   7.443  0.00  0.00    +0.125 C 
ATOM     16  N   LIG    1       23.737 -31.883   6.566  0.00  0.00    -0.347 N 
ATOM     17  H   LIG    1       23.604 -32.232   5.619  0.00  0.00    +0.146 HD
ENDBRANCH   9  16
ENDBRANCH   7  12
ENDBRANCH   1   8
BRANCH   4  18
ATOM     18  O   LIG    1       26.526 -20.151   6.484  0.00  0.00    -0.490 OA
BRANCH  18  19
ATOM     19  C   LIG    1       27.651 -19.838   5.656  0.00  0.00    +0.257 C 
BRANCH  19  20
ATOM     20  C   LIG    1       28.951 -20.195   6.364  0.00  0.00    +0.201 C 
BRANCH  20  21
ATOM     21  O   LIG    1       29.653 -18.994   6.695  0.00  0.00    -0.374 OA
BRANCH  21  22
ATOM     22  C   LIG    1       31.006 -19.255   7.058  0.00  0.00    +0.188 C 
BRANCH  22  23
ATOM     23  C   LIG    1       31.061 -20.016   8.381  0.00  0.00    +0.188 C 
BRANCH  23  24
ATOM     24  O   LIG    1       31.931 -19.354   9.305  0.00  0.00    -0.375 OA
BRANCH  24  25
ATOM     25  C   LIG    1       31.834 -17.928   9.254  0.00  0.00    +0.193 C 
BRANCH  25  26
ATOM     26  C   LIG    1       30.783 -17.378  10.206  0.00  0.00    +0.241 C 
ATOM     27  F   LIG    1       30.671 -18.190  11.288  0.00  0.00    -0.247 F 
ENDBRANCH  25  26
ENDBRANCH  24  25
ENDBRANCH  23  24
ENDBRANCH  22  23
ENDBRANCH  21  22
ENDBRANCH  20  21
ENDBRANCH  19  20
ENDBRANCH  18  19
ENDBRANCH   4  18
TORSDOF 12
ENDMDL
MODEL 5
REMARK VINA RESULT:      -7.5      1.692      2.333
REMARK  Name = *****
REMARK                            x       y       z     vdW  Elec       q    Type
REMARK                         _______ _______ _______ _____ _____    ______ ____
ROOT
ATOM      1  C   LIG    1       24.565 -25.346   6.490  0.00  0.00    -0.025 A 
ATOM      2  C   LIG    1       23.458 -24.509   6.502  0.00  0.00    +0.011 A 
ATOM      3  C   LIG    1       23.623 -23.133   6.671  0.00  0.00    +0.046 A 
ATOM      4  C   LIG    1       24.893 -22.570   6.796  0.00  0.00    +0.121 A 
ATOM      5  C   LIG    1       26.005 -23.421   6.799  0.00  0.00    +0.046 A 
ATOM      6  C   LIG    1       25.842 -24.806   6.651  0.00  0.00    +0.011 A 
ENDROOT
BRANCH   1   8
ATOM      7  C   LIG    1       25.216 -27.683   6.756  0.00  0.00    +0.008 C 
ATOM      8  C   LIG    1       24.354 -26.783   6.297  0.00  0.00    +0.008 C 
BRANCH   7  12
ATOM      9  C   LIG    1       24.519 -31.888   6.325  0.00  0.00    +0.027 A 
ATOM     10  C   LIG    1       24.115 -31.189   7.467  0.00  0.00    +0.023 A 
ATOM     11  C   LIG    1       24.359 -29.822   7.607  0.00  0.00    +0.009 A 
ATOM     12  C   LIG    1       24.982 -29.117   6.581  0.00  0.00    -0.025 A 
ATOM     13  C   LIG    1       25.355 -29.783   5.415  0.00  0.00    +0.009 A 
ATOM     14  C   LIG    1       25.125 -31.160   5.291  0.00  0.00    +0.023 A 
BRANCH   9  16
ATOM     15  C   LIG    1       23.189 -33.653   5.258  0.00  0.00    +0.125 C 
ATOM     16  N   LIG    1       24.274 -33.254   6.138  0.00  0.00    -0.347 N 
ATOM     17  H   LIG    1       24.288 -33.755   7.024  0.00  0.00    +0.146 HD
ENDBRANCH   9  16
ENDBRANCH   7  12
ENDBRANCH   1   8
BRANCH   4  18
ATOM     18  O   LIG    1       25.172 -21.236   6.913  0.00  0.00    -0.490 OA
BRANCH  18  19
ATOM     19  C   LIG    1       25.261 -20.452   5.718  0.00  0.00    +0.257 C 
BRANCH  19  20
ATOM     20  C   LIG    1       26.711 -20.086   5.427  0.00  0.00    +0.201 C 
BRANCH  20  21
ATOM     21  O   LIG    1       27.471 -20.170   6.635  0.00  0.00    -0.374 OA
BRANCH  21  22
ATOM     22  C   LIG    1       28.867 -20.288   6.374  0.00  0.00    +0.188 C 
BRANCH  22  23
ATOM     23  C   LIG    1       29.655 -19.328   7.264  0.00  0.00    +0.188 C 
BRANCH  23  24
ATOM     24  O   LIG    1       29.825 -19.881   8.572  0.00  0.00    -0.375 OA
BRANCH  24  25
ATOM     25  C   LIG    1       31.102 -20.497   8.766  0.00  0.00    +0.193 C 
BRANCH  25  26
ATOM     26  C   LIG    1       30.990 -21.945   9.219  0.00  0.00    +0.241 C 
ATOM     27  F   LIG    1       32.012 -22.671   8.697  0.00  0.00    -0.247 F 
ENDBRANCH  25  26
ENDBRANCH  24  25
ENDBRANCH  23  24
ENDBRANCH  22  23
ENDBRANCH  21  22
ENDBRANCH  20  21
ENDBRANCH  19  20
ENDBRANCH  18  19
ENDBRANCH   4  18
TORSDOF 12
ENDMDL
MODEL 6
REMARK VINA RESULT:      -7.2      1.640      2.297
REMARK  Name = *****
REMARK                            x       y       z     vdW  Elec       q    Type
REMARK                         _______ _______ _______ _____ _____    ______ ____
ROOT
ATOM      1  C   LIG    1       25.059 -25.707   6.534  0.00  0.00    -0.025 A 
ATOM      2  C   LIG    1       23.734 -25.345   6.334  0.00  0.00    +0.011 A 
ATOM      3  C   LIG    1       23.330 -24.025   6.541  0.00  0.00    +0.046 A 
ATOM      4  C   LIG    1       24.246 -23.041   6.916  0.00  0.00    +0.121 A 
ATOM      5  C   LIG    1       25.578 -23.415   7.132  0.00  0.00    +0.046 A 
ATOM      6  C   LIG    1       25.983 -24.745   6.946  0.00  0.00    +0.011 A 
ENDROOT
BRANCH   1   8
ATOM      7  C   LIG    1       24.797 -28.111   6.855  0.00  0.00    +0.008 C 
ATOM      8  C   LIG    1       25.449 -27.099   6.295  0.00  0.00    +0.008 C 
BRANCH   7  12
ATOM      9  C   LIG    1       25.888 -32.165   5.995  0.00  0.00    +0.027 A 
ATOM     10  C   LIG    1       25.736 -31.213   4.981  0.00  0.00    +0.023 A 
ATOM     11  C   LIG    1       25.367 -29.898   5.268  0.00  0.00    +0.009 A 
ATOM     12  C   LIG    1       25.177 -29.499   6.588  0.00  0.00    -0.025 A 
ATOM     13  C   LIG    1       25.365 -30.418   7.619  0.00  0.00    +0.009 A 
ATOM     14  C   LIG    1       25.717 -31.742   7.322  0.00  0.00    +0.023 A 
BRANCH   9  16
ATOM     15  C   LIG    1       27.295 -33.739   4.744  0.00  0.00    +0.125 C 
ATOM     16  N   LIG    1       26.279 -33.487   5.751  0.00  0.00    -0.347 N 
ATOM     17  H   LIG    1       25.471 -34.103   5.681  0.00  0.00    +0.146 HD
ENDBRANCH   9  16
ENDBRANCH   7  12
ENDBRANCH   1   8
BRANCH   4  18
ATOM     18  O   LIG    1       23.971 -21.714   7.093  0.00  0.00    -0.490 OA
BRANCH  18  19
ATOM     19  C   LIG    1       25.030 -20.768   6.909  0.00  0.00    +0.257 C 
BRANCH  19  20
ATOM     20  C   LIG    1       25.213 -20.452   5.431  0.00  0.00    +0.201 C 
BRANCH  20  21
ATOM     21  O   LIG    1       26.551 -20.002   5.207  0.00  0.00    -0.374 OA
BRANCH  21  22
ATOM     22  C   LIG    1       27.404 -20.313   6.305  0.00  0.00    +0.188 C 
BRANCH  22  23
ATOM     23  C   LIG    1       28.842 -19.903   5.990  0.00  0.00    +0.188 C 
BRANCH  23  24
ATOM     24  O   LIG    1       29.471 -19.347   7.149  0.00  0.00    -0.375 OA
BRANCH  24  25
ATOM     25  C   LIG    1       30.888 -19.542   7.176  0.00  0.00    +0.193 C 
BRANCH  25  26
ATOM     26  C   LIG    1       31.603 -18.527   8.054  0.00  0.00    +0.241 C 
ATOM     27  F   LIG    1       31.919 -19.091   9.248  0.00  0.00    -0.247 F 
ENDBRANCH  25  26
ENDBRANCH  24  25
ENDBRANCH  23  24
ENDBRANCH  22  23
ENDBRANCH  21  22
ENDBRANCH  20  21
ENDBRANCH  19  20
ENDBRANCH  18  19
ENDBRANCH   4  18
TORSDOF 12
ENDMDL
MODEL 7
REMARK VINA RESULT:      -7.0      5.951      9.847
REMARK  Name = *****
REMARK                            x       y       z     vdW  Elec       q    Type
REMARK                         _______ _______ _______ _____ _____    ______ ____
ROOT
ATOM      1  C   LIG    1       24.592 -28.621   6.218  0.00  0.00    -0.025 A 
ATOM      2  C   LIG    1       24.193 -29.415   7.284  0.00  0.00    +0.011 A 
ATOM      3  C   LIG    1       24.471 -30.783   7.281  0.00  0.00    +0.046 A 
ATOM      4  C   LIG    1       25.179 -31.372   6.233  0.00  0.00    +0.121 A 
ATOM      5  C   LIG    1       25.565 -30.569   5.152  0.00  0.00    +0.046 A 
ATOM      6  C   LIG    1       25.269 -29.198   5.142  0.00  0.00    +0.011 A 
ENDROOT
BRANCH   1   8
ATOM      7  C   LIG    1       25.207 -26.297   6.637  0.00  0.00    +0.008 C 
ATOM      8  C   LIG    1       24.295 -27.187   6.263  0.00  0.00    +0.008 C 
BRANCH   7  12
ATOM      9  C   LIG    1       24.257 -22.119   6.656  0.00  0.00    +0.027 A 
ATOM     10  C   LIG    1       23.260 -23.100   6.661  0.00  0.00    +0.023 A 
ATOM     11  C   LIG    1       23.576 -24.459   6.640  0.00  0.00    +0.009 A 
ATOM     12  C   LIG    1       24.908 -24.864   6.652  0.00  0.00    -0.025 A 
ATOM     13  C   LIG    1       25.920 -23.906   6.691  0.00  0.00    +0.009 A 
ATOM     14  C   LIG    1       25.594 -22.543   6.692  0.00  0.00    +0.023 A 
BRANCH   9  16
ATOM     15  C   LIG    1       22.896 -20.228   5.885  0.00  0.00    +0.125 C 
ATOM     16  N   LIG    1       23.981 -20.747   6.700  0.00  0.00    -0.347 N 
ATOM     17  H   LIG    1       24.836 -20.197   6.641  0.00  0.00    +0.146 HD
ENDBRANCH   9  16
ENDBRANCH   7  12
ENDBRANCH   1   8
BRANCH   4  18
ATOM     18  O   LIG    1       25.550 -32.685   6.153  0.00  0.00    -0.490 OA
BRANCH  18  19
ATOM     19  C   LIG    1       25.903 -33.368   7.360  0.00  0.00    +0.257 C 
BRANCH  19  20
ATOM     20  C   LIG    1       27.253 -32.885   7.872  0.00  0.00    +0.201 C 
BRANCH  20  21
ATOM     21  O   LIG    1       27.226 -32.836   9.301  0.00  0.00    -0.374 OA
BRANCH  21  22
ATOM     22  C   LIG    1       25.942 -33.177   9.817  0.00  0.00    +0.188 C 
BRANCH  22  23
ATOM     23  C   LIG    1       25.414 -32.052  10.706  0.00  0.00    +0.188 C 
BRANCH  23  24
ATOM     24  O   LIG    1       26.421 -31.056  10.909  0.00  0.00    -0.375 OA
BRANCH  24  25
ATOM     25  C   LIG    1       25.930 -29.718  10.789  0.00  0.00    +0.193 C 
BRANCH  25  26
ATOM     26  C   LIG    1       26.953 -28.771  10.180  0.00  0.00    +0.241 C 
ATOM     27  F   LIG    1       26.365 -28.015   9.217  0.00  0.00    -0.247 F 
ENDBRANCH  25  26
ENDBRANCH  24  25
ENDBRANCH  23  24
ENDBRANCH  22  23
ENDBRANCH  21  22
ENDBRANCH  20  21
ENDBRANCH  19  20
ENDBRANCH  18  19
ENDBRANCH   4  18
TORSDOF 12
ENDMDL
MODEL 8
REMARK VINA RESULT:      -6.8      2.837      3.768
REMARK  Name = *****
REMARK                            x       y       z     vdW  Elec       q    Type
REMARK                         _______ _______ _______ _____ _____    ______ ____
ROOT
ATOM      1  C   LIG    1       24.282 -24.862   5.823  0.00  0.00    -0.025 A 
ATOM      2  C   LIG    1       23.287 -24.473   6.709  0.00  0.00    +0.011 A 
ATOM      3  C   LIG    1       22.950 -23.124   6.834  0.00  0.00    +0.046 A 
ATOM      4  C   LIG    1       23.573 -22.150   6.054  0.00  0.00    +0.121 A 
ATOM      5  C   LIG    1       24.588 -22.546   5.174  0.00  0.00    +0.046 A 
ATOM      6  C   LIG    1       24.945 -23.897   5.061  0.00  0.00    +0.011 A 
ENDROOT
BRANCH   1   8
ATOM      7  C   LIG    1       24.662 -27.075   6.777  0.00  0.00    +0.008 C 
ATOM      8  C   LIG    1       24.601 -26.287   5.709  0.00  0.00    +0.008 C 
BRANCH   7  12
ATOM      9  C   LIG    1       25.499 -31.253   6.327  0.00  0.00    +0.027 A 
ATOM     10  C   LIG    1       25.460 -30.389   5.228  0.00  0.00    +0.023 A 
ATOM     11  C   LIG    1       25.172 -29.031   5.380  0.00  0.00    +0.009 A 
ATOM     12  C   LIG    1       24.954 -28.504   6.650  0.00  0.00    -0.025 A 
ATOM     13  C   LIG    1       25.031 -29.337   7.765  0.00  0.00    +0.009 A 
ATOM     14  C   LIG    1       25.301 -30.703   7.602  0.00  0.00    +0.023 A 
BRANCH   9  16
ATOM     15  C   LIG    1       26.666 -33.051   5.133  0.00  0.00    +0.125 C 
ATOM     16  N   LIG    1       25.806 -32.615   6.218  0.00  0.00    -0.347 N 
ATOM     17  H   LIG    1       24.974 -33.190   6.337  0.00  0.00    +0.146 HD
ENDBRANCH   9  16
ENDBRANCH   7  12
ENDBRANCH   1   8
BRANCH   4  18
ATOM     18  O   LIG    1       23.285 -20.813   6.057  0.00  0.00    -0.490 OA
BRANCH  18  19
ATOM     19  C   LIG    1       22.380 -20.310   5.068  0.00  0.00    +0.257 C 
BRANCH  19  20
ATOM     20  C   LIG    1       22.968 -19.084   4.380  0.00  0.00    +0.201 C 
BRANCH  20  21
ATOM     21  O   LIG    1       23.977 -19.500   3.458  0.00  0.00    -0.374 OA
BRANCH  21  22
ATOM     22  C   LIG    1       25.231 -18.879   3.729  0.00  0.00    +0.188 C 
BRANCH  22  23
ATOM     23  C   LIG    1       26.187 -19.878   4.379  0.00  0.00    +0.188 C 
BRANCH  23  24
ATOM     24  O   LIG    1       27.214 -19.191   5.102  0.00  0.00    -0.375 OA
BRANCH  24  25
ATOM     25  C   LIG    1       27.996 -20.054   5.934  0.00  0.00    +0.193 C 
BRANCH  25  26
ATOM     26  C   LIG    1       27.149 -20.843   6.920  0.00  0.00    +0.241 C 
ATOM     27  F   LIG    1       26.251 -20.018   7.518  0.00  0.00    -0.247 F 
ENDBRANCH  25  26
ENDBRANCH  24  25
ENDBRANCH  23  24
ENDBRANCH  22  23
ENDBRANCH  21  22
ENDBRANCH  20  21
ENDBRANCH  19  20
ENDBRANCH  18  19
ENDBRANCH   4  18
TORSDOF 12
ENDMDL
MODEL 9
REMARK VINA RESULT:      -6.8      3.665      4.325
REMARK  Name = *****
REMARK                            x       y       z     vdW  Elec       q    Type
REMARK                         _______ _______ _______ _____ _____    ______ ____
ROOT
ATOM      1  C   LIG    1       25.438 -24.805   6.296  0.00  0.00    -0.025 A 
ATOM      2  C   LIG    1       25.816 -23.960   7.329  0.00  0.00    +0.011 A 
ATOM      3  C   LIG    1       25.676 -22.578   7.189  0.00  0.00    +0.046 A 
ATOM      4  C   LIG    1       25.127 -22.022   6.033  0.00  0.00    +0.121 A 
ATOM      5  C   LIG    1       24.763 -22.879   4.987  0.00  0.00    +0.046 A 
ATOM      6  C   LIG    1       24.922 -24.267   5.115  0.00  0.00    +0.011 A 
ENDROOT
BRANCH   1   8
ATOM      7  C   LIG    1       24.597 -27.095   6.217  0.00  0.00    +0.008 C 
ATOM      8  C   LIG    1       25.587 -26.251   6.484  0.00  0.00    +0.008 C 
BRANCH   7  12
ATOM      9  C   LIG    1       25.090 -31.313   6.780  0.00  0.00    +0.027 A 
ATOM     10  C   LIG    1       24.646 -30.481   7.812  0.00  0.00    +0.023 A 
ATOM     11  C   LIG    1       24.501 -29.105   7.626  0.00  0.00    +0.009 A 
ATOM     12  C   LIG    1       24.766 -28.539   6.382  0.00  0.00    -0.025 A 
ATOM     13  C   LIG    1       25.168 -29.354   5.325  0.00  0.00    +0.009 A 
ATOM     14  C   LIG    1       25.330 -30.732   5.526  0.00  0.00    +0.023 A 
BRANCH   9  16
ATOM     15  C   LIG    1       24.881 -33.552   5.797  0.00  0.00    +0.125 C 
ATOM     16  N   LIG    1       25.227 -32.700   6.921  0.00  0.00    -0.347 N 
ATOM     17  H   LIG    1       24.844 -33.019   7.809  0.00  0.00    +0.146 HD
ENDBRANCH   9  16
ENDBRANCH   7  12
ENDBRANCH   1   8
BRANCH   4  18
ATOM     18  O   LIG    1       24.896 -20.693   5.812  0.00  0.00    -0.490 OA
BRANCH  18  19
ATOM     19  C   LIG    1       25.483 -20.082   4.657  0.00  0.00    +0.257 C 
BRANCH  19  20
ATOM     20  C   LIG    1       24.401 -19.610   3.695  0.00  0.00    +0.201 C 
BRANCH  20  21
ATOM     21  O   LIG    1       24.521 -18.198   3.506  0.00  0.00    -0.374 OA
BRANCH  21  22
ATOM     22  C   LIG    1       25.880 -17.801   3.340  0.00  0.00    +0.188 C 
BRANCH  22  23
ATOM     23  C   LIG    1       25.971 -16.285   3.165  0.00  0.00    +0.188 C 
BRANCH  23  24
ATOM     24  O   LIG    1       27.217 -15.796   3.671  0.00  0.00    -0.375 OA
BRANCH  24  25
ATOM     25  C   LIG    1       27.355 -14.376   3.562  0.00  0.00    +0.193 C 
BRANCH  25  26
ATOM     26  C   LIG    1       27.177 -13.666   4.896  0.00  0.00    +0.241 C 
ATOM     27  F   LIG    1       25.865 -13.669   5.248  0.00  0.00    -0.247 F 
ENDBRANCH  25  26
ENDBRANCH  24  25
ENDBRANCH  23  24
ENDBRANCH  22  23
ENDBRANCH  21  22
ENDBRANCH  20  21
ENDBRANCH  19  20
ENDBRANCH  18  19
ENDBRANCH   4  18
TORSDOF 12
ENDMDL
