MODEL 1
REMARK VINA RESULT:      -3.0      0.000      0.000
REMARK  Name = *****
REMARK                            x       y       z     vdW  Elec       q    Type
REMARK                         _______ _______ _______ _____ _____    ______ ____
ROOT
ATOM      1  C   LIG    1       21.886 -20.097   5.185  0.00  0.00    +0.036 C 
ATOM      2  C   LIG    1       22.544 -18.819   4.776  0.00  0.00    -0.021 C 
ATOM      3  C   LIG    1       23.784 -18.598   4.274  0.00  0.00    -0.015 C 
ENDROOT
BRANCH   3   4
ATOM      4  C   LIG    1       24.066 -17.153   4.049  0.00  0.00    -0.017 A 
ATOM      5  C   LIG    1       23.158 -16.160   4.438  0.00  0.00    +0.012 A 
ATOM      6  C   LIG    1       23.472 -14.809   4.259  0.00  0.00    +0.046 A 
ATOM      7  C   LIG    1       24.689 -14.449   3.691  0.00  0.00    +0.117 A 
ATOM      8  C   LIG    1       25.608 -15.420   3.306  0.00  0.00    +0.046 A 
ATOM      9  C   LIG    1       25.297 -16.770   3.488  0.00  0.00    +0.012 A 
BRANCH   7  10
ATOM     10  O   LIG    1       24.952 -13.121   3.532  0.00  0.00    -0.507 OA
ATOM     11  H   LIG    1       25.039 -12.714   4.410  0.00  0.00    +0.292 HD
ENDBRANCH   7  10
ENDBRANCH   3   4
BRANCH   3  12
ATOM     12  C   LIG    1       24.776 -19.634   3.952  0.00  0.00    -0.015 C 
ATOM     13  C   LIG    1       24.657 -20.552   2.960  0.00  0.00    -0.021 C 
ATOM     14  C   LIG    1       23.548 -20.748   1.979  0.00  0.00    +0.036 C 
BRANCH  12  15
ATOM     15  C   LIG    1       26.005 -19.809   4.775  0.00  0.00    -0.017 A 
ATOM     16  C   LIG    1       27.220 -19.233   4.378  0.00  0.00    +0.012 A 
ATOM     17  C   LIG    1       28.371 -19.405   5.153  0.00  0.00    +0.046 A 
ATOM     18  C   LIG    1       28.311 -20.154   6.324  0.00  0.00    +0.117 A 
ATOM     19  C   LIG    1       27.122 -20.756   6.722  0.00  0.00    +0.046 A 
ATOM     20  C   LIG    1       25.971 -20.584   5.946  0.00  0.00    +0.012 A 
BRANCH  18  21
ATOM     21  O   LIG    1       29.452 -20.275   7.062  0.00  0.00    -0.507 OA
ATOM     22  H   LIG    1       29.797 -19.386   7.247  0.00  0.00    +0.292 HD
ENDBRANCH  18  21
ENDBRANCH  12  15
ENDBRANCH   3  12
TORSDOF 5
ENDMDL
MODEL 2
REMARK VINA RESULT:      -1.2      2.942      4.750
REMARK  Name = *****
REMARK                            x       y       z     vdW  Elec       q    Type
REMARK                         _______ _______ _______ _____ _____    ______ ____
ROOT
ATOM      1  C   LIG    1       25.515 -19.271   2.974  0.00  0.00    +0.036 C 
ATOM      2  C   LIG    1       25.965 -17.855   3.121  0.00  0.00    -0.021 C 
ATOM      3  C   LIG    1       25.285 -16.763   3.556  0.00  0.00    -0.015 C 
ENDROOT
BRANCH   3   4
ATOM      4  C   LIG    1       26.097 -15.517   3.495  0.00  0.00    -0.017 A 
ATOM      5  C   LIG    1       27.197 -15.316   4.340  0.00  0.00    +0.012 A 
ATOM      6  C   LIG    1       27.971 -14.157   4.226  0.00  0.00    +0.046 A 
ATOM      7  C   LIG    1       27.646 -13.198   3.272  0.00  0.00    +0.117 A 
ATOM      8  C   LIG    1       26.563 -13.381   2.419  0.00  0.00    +0.046 A 
ATOM      9  C   LIG    1       25.792 -14.542   2.529  0.00  0.00    +0.012 A 
BRANCH   7  10
ATOM     10  O   LIG    1       28.425 -12.081   3.199  0.00  0.00    -0.507 OA
ATOM     11  H   LIG    1       29.175 -12.264   2.609  0.00  0.00    +0.292 HD
ENDBRANCH   7  10
ENDBRANCH   3   4
BRANCH   3  12
ATOM     12  C   LIG    1       23.904 -16.758   4.058  0.00  0.00    -0.015 C 
ATOM     13  C   LIG    1       23.208 -15.654   4.429  0.00  0.00    -0.021 C 
ATOM     14  C   LIG    1       23.634 -14.222   4.428  0.00  0.00    +0.036 C 
BRANCH  12  15
ATOM     15  C   LIG    1       23.157 -18.028   4.277  0.00  0.00    -0.017 A 
ATOM     16  C   LIG    1       21.906 -18.235   3.678  0.00  0.00    +0.012 A 
ATOM     17  C   LIG    1       21.208 -19.427   3.891  0.00  0.00    +0.046 A 
ATOM     18  C   LIG    1       21.756 -20.414   4.703  0.00  0.00    +0.117 A 
ATOM     19  C   LIG    1       22.984 -20.219   5.328  0.00  0.00    +0.046 A 
ATOM     20  C   LIG    1       23.682 -19.026   5.114  0.00  0.00    +0.012 A 
BRANCH  18  21
ATOM     21  O   LIG    1       21.053 -21.572   4.864  0.00  0.00    -0.507 OA
ATOM     22  H   LIG    1       20.151 -21.435   4.528  0.00  0.00    +0.292 HD
ENDBRANCH  18  21
ENDBRANCH  12  15
ENDBRANCH   3  12
TORSDOF 5
ENDMDL
MODEL 3
REMARK VINA RESULT:      -0.4      1.811      2.881
REMARK  Name = *****
REMARK                            x       y       z     vdW  Elec       q    Type
REMARK                         _______ _______ _______ _____ _____    ______ ____
ROOT
ATOM      1  C   LIG    1       21.079 -15.981   6.483  0.00  0.00    +0.036 C 
ATOM      2  C   LIG    1       22.154 -15.522   5.553  0.00  0.00    -0.021 C 
ATOM      3  C   LIG    1       22.861 -16.214   4.624  0.00  0.00    -0.015 C 
ENDROOT
BRANCH   3   4
ATOM      4  C   LIG    1       23.889 -15.381   3.942  0.00  0.00    -0.017 A 
ATOM      5  C   LIG    1       23.631 -14.053   3.575  0.00  0.00    +0.012 A 
ATOM      6  C   LIG    1       24.632 -13.279   2.981  0.00  0.00    +0.046 A 
ATOM      7  C   LIG    1       25.889 -13.830   2.751  0.00  0.00    +0.117 A 
ATOM      8  C   LIG    1       26.168 -15.143   3.115  0.00  0.00    +0.046 A 
ATOM      9  C   LIG    1       25.168 -15.915   3.713  0.00  0.00    +0.012 A 
BRANCH   7  10
ATOM     10  O   LIG    1       26.834 -13.040   2.165  0.00  0.00    -0.507 OA
ATOM     11  H   LIG    1       27.185 -12.429   2.833  0.00  0.00    +0.292 HD
ENDBRANCH   7  10
ENDBRANCH   3   4
BRANCH   3  12
ATOM     12  C   LIG    1       22.663 -17.629   4.278  0.00  0.00    -0.015 C 
ATOM     13  C   LIG    1       21.586 -18.134   3.624  0.00  0.00    -0.021 C 
ATOM     14  C   LIG    1       20.376 -17.427   3.108  0.00  0.00    +0.036 C 
BRANCH  12  15
ATOM     15  C   LIG    1       23.638 -18.672   4.702  0.00  0.00    -0.017 A 
ATOM     16  C   LIG    1       24.845 -18.847   4.011  0.00  0.00    +0.012 A 
ATOM     17  C   LIG    1       25.754 -19.831   4.412  0.00  0.00    +0.046 A 
ATOM     18  C   LIG    1       25.459 -20.642   5.503  0.00  0.00    +0.117 A 
ATOM     19  C   LIG    1       24.256 -20.503   6.186  0.00  0.00    +0.046 A 
ATOM     20  C   LIG    1       23.346 -19.519   5.784  0.00  0.00    +0.012 A 
BRANCH  18  21
ATOM     21  O   LIG    1       26.385 -21.572   5.875  0.00  0.00    -0.507 OA
ATOM     22  H   LIG    1       26.074 -22.448   5.594  0.00  0.00    +0.292 HD
ENDBRANCH  18  21
ENDBRANCH  12  15
ENDBRANCH   3  12
TORSDOF 5
ENDMDL
MODEL 4
REMARK VINA RESULT:      -0.0      1.829      5.822
REMARK  Name = *****
REMARK                            x       y       z     vdW  Elec       q    Type
REMARK                         _______ _______ _______ _____ _____    ______ ____
ROOT
ATOM      1  C   LIG    1       20.394 -17.302   3.113  0.00  0.00    +0.036 C 
ATOM      2  C   LIG    1       21.568 -18.036   3.672  0.00  0.00    -0.021 C 
ATOM      3  C   LIG    1       22.666 -17.566   4.316  0.00  0.00    -0.015 C 
ENDROOT
BRANCH   3   4
ATOM      4  C   LIG    1       23.635 -18.641   4.665  0.00  0.00    -0.017 A 
ATOM      5  C   LIG    1       24.860 -18.768   3.997  0.00  0.00    +0.012 A 
ATOM      6  C   LIG    1       25.772 -19.757   4.380  0.00  0.00    +0.046 A 
ATOM      7  C   LIG    1       25.461 -20.620   5.426  0.00  0.00    +0.117 A 
ATOM      8  C   LIG    1       24.253 -20.505   6.107  0.00  0.00    +0.046 A 
ATOM      9  C   LIG    1       23.344 -19.514   5.727  0.00  0.00    +0.012 A 
BRANCH   7  10
ATOM     10  O   LIG    1       26.377 -21.571   5.763  0.00  0.00    -0.507 OA
ATOM     11  H   LIG    1       27.246 -21.147   5.853  0.00  0.00    +0.292 HD
ENDBRANCH   7  10
ENDBRANCH   3   4
BRANCH   3  12
ATOM     12  C   LIG    1       22.915 -16.162   4.672  0.00  0.00    -0.015 C 
ATOM     13  C   LIG    1       22.219 -15.451   5.596  0.00  0.00    -0.021 C 
ATOM     14  C   LIG    1       21.076 -15.881   6.456  0.00  0.00    +0.036 C 
BRANCH  12  15
ATOM     15  C   LIG    1       23.945 -15.355   3.960  0.00  0.00    -0.017 A 
ATOM     16  C   LIG    1       23.649 -14.065   3.497  0.00  0.00    +0.012 A 
ATOM     17  C   LIG    1       24.619 -13.315   2.825  0.00  0.00    +0.046 A 
ATOM     18  C   LIG    1       25.885 -13.851   2.614  0.00  0.00    +0.117 A 
ATOM     19  C   LIG    1       26.191 -15.138   3.043  0.00  0.00    +0.046 A 
ATOM     20  C   LIG    1       25.220 -15.889   3.714  0.00  0.00    +0.012 A 
BRANCH  18  21
ATOM     21  O   LIG    1       26.808 -13.075   1.977  0.00  0.00    -0.507 OA
ATOM     22  H   LIG    1       27.664 -13.534   1.995  0.00  0.00    +0.292 HD
ENDBRANCH  18  21
ENDBRANCH  12  15
ENDBRANCH   3  12
TORSDOF 5
ENDMDL
