MODEL 1
REMARK VINA RESULT:      -9.7      0.000      0.000
REMARK  Name = *****
REMARK                            x       y       z     vdW  Elec       q    Type
REMARK                         _______ _______ _______ _____ _____    ______ ____
ROOT
ATOM      1  C   LIG    1       26.890 -20.993   6.388  0.00  0.00    +0.043 A 
ATOM      2  C   LIG    1       27.379 -20.020   5.492  0.00  0.00    +0.124 A 
ATOM      3  C   LIG    1       28.509 -19.216   5.775  0.00  0.00    +0.049 A 
ATOM      4  C   LIG    1       29.186 -19.325   6.994  0.00  0.00    -0.041 A 
ATOM      5  C   LIG    1       28.676 -20.221   7.930  0.00  0.00    +0.049 A 
ATOM      6  C   LIG    1       27.570 -21.038   7.628  0.00  0.00    +0.124 A 
ENDROOT
BRANCH   1   8
ATOM      7  C   LIG    1       24.835 -22.512   7.217  0.00  0.00    +0.026 C 
ATOM      8  C   LIG    1       25.643 -21.859   6.025  0.00  0.00    +0.056 C 
ATOM      9  C   LIG    1       24.628 -21.118   5.169  0.00  0.00    -0.019 C 
ATOM     10  C   LIG    1       23.567 -20.474   5.662  0.00  0.00    -0.076 C 
ATOM     11  C   LIG    1       22.642 -19.702   4.780  0.00  0.00    +0.038 C 
ATOM     12  C   LIG    1       23.239 -20.463   7.142  0.00  0.00    +0.031 C 
ATOM     13  C   LIG    1       24.085 -21.415   8.003  0.00  0.00    +0.013 C 
BRANCH   7  15
ATOM     14  C   LIG    1       22.561 -23.690   6.810  0.00  0.00    +0.007 C 
ATOM     15  C   LIG    1       23.908 -23.692   6.779  0.00  0.00    -0.076 C 
ATOM     16  C   LIG    1       24.589 -24.961   6.332  0.00  0.00    +0.038 C 
ENDBRANCH   7  15
ENDBRANCH   1   8
BRANCH   2  17
ATOM     17  O   LIG    1       26.723 -19.821   4.304  0.00  0.00    -0.506 OA
ATOM     18  H   LIG    1       26.539 -20.685   3.901  0.00  0.00    +0.292 HD
ENDBRANCH   2  17
BRANCH   6  19
ATOM     19  O   LIG    1       27.176 -21.874   8.638  0.00  0.00    -0.506 OA
ATOM     20  H   LIG    1       27.889 -21.933   9.292  0.00  0.00    +0.292 HD
ENDBRANCH   6  19
BRANCH   4  21
ATOM     21  C   LIG    1       30.437 -18.531   7.310  0.00  0.00    +0.035 C 
BRANCH  21  22
ATOM     22  C   LIG    1       30.812 -18.520   8.799  0.00  0.00    +0.005 C 
BRANCH  22  23
ATOM     23  C   LIG    1       30.325 -17.250   9.520  0.00  0.00    +0.000 C 
BRANCH  23  24
ATOM     24  C   LIG    1       30.362 -17.413  11.046  0.00  0.00    -0.003 C 
ATOM     25  C   LIG    1       31.471 -16.594  11.696  0.00  0.00    +0.004 C 
ENDBRANCH  23  24
ENDBRANCH  22  23
ENDBRANCH  21  22
ENDBRANCH   4  21
TORSDOF 8
ENDMDL
MODEL 2
REMARK VINA RESULT:      -9.4      0.210      1.736
REMARK  Name = *****
REMARK                            x       y       z     vdW  Elec       q    Type
REMARK                         _______ _______ _______ _____ _____    ______ ____
ROOT
ATOM      1  C   LIG    1       26.778 -20.960   6.259  0.00  0.00    +0.043 A 
ATOM      2  C   LIG    1       27.560 -21.235   7.400  0.00  0.00    +0.124 A 
ATOM      3  C   LIG    1       28.714 -20.489   7.736  0.00  0.00    +0.049 A 
ATOM      4  C   LIG    1       29.163 -19.446   6.919  0.00  0.00    -0.041 A 
ATOM      5  C   LIG    1       28.457 -19.205   5.744  0.00  0.00    +0.049 A 
ATOM      6  C   LIG    1       27.292 -19.933   5.433  0.00  0.00    +0.124 A 
ENDROOT
BRANCH   1   8
ATOM      7  C   LIG    1       24.712 -22.427   7.153  0.00  0.00    +0.026 C 
ATOM      8  C   LIG    1       25.509 -21.810   5.936  0.00  0.00    +0.056 C 
ATOM      9  C   LIG    1       24.491 -21.065   5.086  0.00  0.00    -0.019 C 
ATOM     10  C   LIG    1       23.451 -20.392   5.588  0.00  0.00    -0.076 C 
ATOM     11  C   LIG    1       22.523 -19.618   4.711  0.00  0.00    +0.038 C 
ATOM     12  C   LIG    1       23.152 -20.350   7.073  0.00  0.00    +0.031 C 
ATOM     13  C   LIG    1       23.997 -21.303   7.935  0.00  0.00    +0.013 C 
BRANCH   7  15
ATOM     14  C   LIG    1       22.409 -23.561   6.789  0.00  0.00    +0.007 C 
ATOM     15  C   LIG    1       23.756 -23.597   6.754  0.00  0.00    -0.076 C 
ATOM     16  C   LIG    1       24.405 -24.894   6.342  0.00  0.00    +0.038 C 
ENDBRANCH   7  15
ENDBRANCH   1   8
BRANCH   2  17
ATOM     17  O   LIG    1       27.208 -22.284   8.210  0.00  0.00    -0.506 OA
ATOM     18  H   LIG    1       26.570 -22.843   7.737  0.00  0.00    +0.292 HD
ENDBRANCH   2  17
BRANCH   6  19
ATOM     19  O   LIG    1       26.696 -19.591   4.249  0.00  0.00    -0.506 OA
ATOM     20  H   LIG    1       26.583 -20.392   3.713  0.00  0.00    +0.292 HD
ENDBRANCH   6  19
BRANCH   4  21
ATOM     21  C   LIG    1       30.355 -18.581   7.277  0.00  0.00    +0.035 C 
BRANCH  21  22
ATOM     22  C   LIG    1       30.704 -18.584   8.772  0.00  0.00    +0.005 C 
BRANCH  22  23
ATOM     23  C   LIG    1       30.289 -17.279   9.477  0.00  0.00    +0.000 C 
BRANCH  23  24
ATOM     24  C   LIG    1       30.348 -17.414  11.004  0.00  0.00    -0.003 C 
ATOM     25  C   LIG    1       31.467 -16.584  11.623  0.00  0.00    +0.004 C 
ENDBRANCH  23  24
ENDBRANCH  22  23
ENDBRANCH  21  22
ENDBRANCH   4  21
TORSDOF 8
ENDMDL
MODEL 3
REMARK VINA RESULT:      -9.1      1.049      3.231
REMARK  Name = *****
REMARK                            x       y       z     vdW  Elec       q    Type
REMARK                         _______ _______ _______ _____ _____    ______ ____
ROOT
ATOM      1  C   LIG    1       26.248 -20.489   6.875  0.00  0.00    +0.043 A 
ATOM      2  C   LIG    1       26.753 -20.779   8.159  0.00  0.00    +0.124 A 
ATOM      3  C   LIG    1       28.131 -20.706   8.475  0.00  0.00    +0.049 A 
ATOM      4  C   LIG    1       29.078 -20.370   7.501  0.00  0.00    -0.041 A 
ATOM      5  C   LIG    1       28.616 -20.157   6.206  0.00  0.00    +0.049 A 
ATOM      6  C   LIG    1       27.241 -20.203   5.908  0.00  0.00    +0.124 A 
ENDROOT
BRANCH   1   8
ATOM      7  C   LIG    1       24.248 -20.354   5.086  0.00  0.00    +0.026 C 
ATOM      8  C   LIG    1       24.718 -20.579   6.579  0.00  0.00    +0.056 C 
ATOM      9  C   LIG    1       24.096 -21.890   7.036  0.00  0.00    -0.019 C 
ATOM     10  C   LIG    1       23.929 -22.951   6.242  0.00  0.00    -0.076 C 
ATOM     11  C   LIG    1       23.378 -24.238   6.763  0.00  0.00    +0.038 C 
ATOM     12  C   LIG    1       24.302 -22.934   4.773  0.00  0.00    +0.031 C 
ATOM     13  C   LIG    1       24.683 -21.553   4.215  0.00  0.00    +0.013 C 
BRANCH   7  15
ATOM     14  C   LIG    1       21.725 -20.916   4.871  0.00  0.00    +0.007 C 
ATOM     15  C   LIG    1       22.727 -20.018   4.948  0.00  0.00    -0.076 C 
ATOM     16  C   LIG    1       22.362 -18.560   4.839  0.00  0.00    +0.038 C 
ENDBRANCH   7  15
ENDBRANCH   1   8
BRANCH   2  17
ATOM     17  O   LIG    1       25.884 -21.174   9.142  0.00  0.00    -0.506 OA
ATOM     18  H   LIG    1       24.985 -20.902   8.892  0.00  0.00    +0.292 HD
ENDBRANCH   2  17
BRANCH   6  19
ATOM     19  O   LIG    1       26.925 -19.973   4.595  0.00  0.00    -0.506 OA
ATOM     20  H   LIG    1       26.353 -20.689   4.281  0.00  0.00    +0.292 HD
ENDBRANCH   6  19
BRANCH   4  21
ATOM     21  C   LIG    1       30.554 -20.216   7.814  0.00  0.00    +0.035 C 
BRANCH  21  22
ATOM     22  C   LIG    1       31.125 -18.833   7.469  0.00  0.00    +0.005 C 
BRANCH  22  23
ATOM     23  C   LIG    1       31.519 -18.029   8.722  0.00  0.00    +0.000 C 
BRANCH  23  24
ATOM     24  C   LIG    1       30.295 -17.399   9.401  0.00  0.00    -0.003 C 
ATOM     25  C   LIG    1       30.380 -17.447  10.922  0.00  0.00    +0.004 C 
ENDBRANCH  23  24
ENDBRANCH  22  23
ENDBRANCH  21  22
ENDBRANCH   4  21
TORSDOF 8
ENDMDL
MODEL 4
REMARK VINA RESULT:      -8.5      1.318      2.502
REMARK  Name = *****
REMARK                            x       y       z     vdW  Elec       q    Type
REMARK                         _______ _______ _______ _____ _____    ______ ____
ROOT
ATOM      1  C   LIG    1       26.733 -20.904   6.537  0.00  0.00    +0.043 A 
ATOM      2  C   LIG    1       27.210 -20.925   7.864  0.00  0.00    +0.124 A 
ATOM      3  C   LIG    1       28.275 -20.105   8.309  0.00  0.00    +0.049 A 
ATOM      4  C   LIG    1       28.940 -19.245   7.429  0.00  0.00    -0.041 A 
ATOM      5  C   LIG    1       28.543 -19.263   6.094  0.00  0.00    +0.049 A 
ATOM      6  C   LIG    1       27.463 -20.060   5.668  0.00  0.00    +0.124 A 
ENDROOT
BRANCH   1   8
ATOM      7  C   LIG    1       24.431 -22.136   7.167  0.00  0.00    +0.026 C 
ATOM      8  C   LIG    1       25.551 -21.824   6.097  0.00  0.00    +0.056 C 
ATOM      9  C   LIG    1       24.834 -21.323   4.853  0.00  0.00    -0.019 C 
ATOM     10  C   LIG    1       23.736 -20.563   4.882  0.00  0.00    -0.076 C 
ATOM     11  C   LIG    1       23.114 -20.040   3.629  0.00  0.00    +0.038 C 
ATOM     12  C   LIG    1       23.059 -20.163   6.178  0.00  0.00    +0.031 C 
ATOM     13  C   LIG    1       23.595 -20.865   7.436  0.00  0.00    +0.013 C 
BRANCH   7  15
ATOM     14  C   LIG    1       22.205 -23.414   6.792  0.00  0.00    +0.007 C 
ATOM     15  C   LIG    1       23.553 -23.381   6.817  0.00  0.00    -0.076 C 
ATOM     16  C   LIG    1       24.283 -24.669   6.534  0.00  0.00    +0.038 C 
ENDBRANCH   7  15
ENDBRANCH   1   8
BRANCH   2  17
ATOM     17  O   LIG    1       26.640 -21.791   8.761  0.00  0.00    -0.506 OA
ATOM     18  H   LIG    1       25.675 -21.756   8.659  0.00  0.00    +0.292 HD
ENDBRANCH   2  17
BRANCH   6  19
ATOM     19  O   LIG    1       27.179 -19.980   4.331  0.00  0.00    -0.506 OA
ATOM     20  H   LIG    1       26.742 -20.800   4.054  0.00  0.00    +0.292 HD
ENDBRANCH   6  19
BRANCH   4  21
ATOM     21  C   LIG    1       30.039 -18.304   7.879  0.00  0.00    +0.035 C 
BRANCH  21  22
ATOM     22  C   LIG    1       31.434 -18.945   7.920  0.00  0.00    +0.005 C 
BRANCH  22  23
ATOM     23  C   LIG    1       31.631 -19.847   9.153  0.00  0.00    +0.000 C 
BRANCH  23  24
ATOM     24  C   LIG    1       31.743 -21.327   8.762  0.00  0.00    -0.003 C 
ATOM     25  C   LIG    1       30.808 -22.219   9.571  0.00  0.00    +0.004 C 
ENDBRANCH  23  24
ENDBRANCH  22  23
ENDBRANCH  21  22
ENDBRANCH   4  21
TORSDOF 8
ENDMDL
MODEL 5
REMARK VINA RESULT:      -7.8      3.330      7.183
REMARK  Name = *****
REMARK                            x       y       z     vdW  Elec       q    Type
REMARK                         _______ _______ _______ _____ _____    ______ ____
ROOT
ATOM      1  C   LIG    1       25.271 -23.863   5.697  0.00  0.00    +0.043 A 
ATOM      2  C   LIG    1       25.019 -24.743   4.624  0.00  0.00    +0.124 A 
ATOM      3  C   LIG    1       25.108 -26.150   4.750  0.00  0.00    +0.049 A 
ATOM      4  C   LIG    1       25.489 -26.744   5.957  0.00  0.00    -0.041 A 
ATOM      5  C   LIG    1       25.821 -25.897   7.010  0.00  0.00    +0.049 A 
ATOM      6  C   LIG    1       25.701 -24.500   6.885  0.00  0.00    +0.124 A 
ENDROOT
BRANCH   1   8
ATOM      7  C   LIG    1       23.702 -21.703   5.390  0.00  0.00    +0.026 C 
ATOM      8  C   LIG    1       25.154 -22.318   5.508  0.00  0.00    +0.056 C 
ATOM      9  C   LIG    1       25.871 -21.527   6.591  0.00  0.00    -0.019 C 
ATOM     10  C   LIG    1       25.275 -21.059   7.690  0.00  0.00    -0.076 C 
ATOM     11  C   LIG    1       26.044 -20.350   8.756  0.00  0.00    +0.038 C 
ATOM     12  C   LIG    1       23.790 -21.229   7.943  0.00  0.00    +0.031 C 
ATOM     13  C   LIG    1       22.987 -21.785   6.756  0.00  0.00    +0.013 C 
BRANCH   7  15
ATOM     14  C   LIG    1       24.615 -19.739   3.963  0.00  0.00    +0.007 C 
ATOM     15  C   LIG    1       23.673 -20.269   4.769  0.00  0.00    -0.076 C 
ATOM     16  C   LIG    1       22.512 -19.387   5.151  0.00  0.00    +0.038 C 
ENDBRANCH   7  15
ENDBRANCH   1   8
BRANCH   2  17
ATOM     17  O   LIG    1       24.700 -24.221   3.397  0.00  0.00    -0.506 OA
ATOM     18  H   LIG    1       24.075 -23.488   3.522  0.00  0.00    +0.292 HD
ENDBRANCH   2  17
BRANCH   6  19
ATOM     19  O   LIG    1       26.058 -23.787   7.998  0.00  0.00    -0.506 OA
ATOM     20  H   LIG    1       26.336 -22.899   7.725  0.00  0.00    +0.292 HD
ENDBRANCH   6  19
BRANCH   4  21
ATOM     21  C   LIG    1       25.531 -28.247   6.152  0.00  0.00    +0.035 C 
BRANCH  21  22
ATOM     22  C   LIG    1       24.531 -28.771   7.193  0.00  0.00    +0.005 C 
BRANCH  22  23
ATOM     23  C   LIG    1       25.117 -29.907   8.053  0.00  0.00    +0.000 C 
BRANCH  23  24
ATOM     24  C   LIG    1       25.397 -29.446   9.490  0.00  0.00    -0.003 C 
ATOM     25  C   LIG    1       26.638 -28.566   9.592  0.00  0.00    +0.004 C 
ENDBRANCH  23  24
ENDBRANCH  22  23
ENDBRANCH  21  22
ENDBRANCH   4  21
TORSDOF 8
ENDMDL
MODEL 6
REMARK VINA RESULT:      -7.7      5.822      9.658
REMARK  Name = *****
REMARK                            x       y       z     vdW  Elec       q    Type
REMARK                         _______ _______ _______ _____ _____    ______ ____
ROOT
ATOM      1  C   LIG    1       24.810 -29.175   6.926  0.00  0.00    +0.043 A 
ATOM      2  C   LIG    1       24.176 -28.462   5.888  0.00  0.00    +0.124 A 
ATOM      3  C   LIG    1       24.483 -27.113   5.586  0.00  0.00    +0.049 A 
ATOM      4  C   LIG    1       25.421 -26.400   6.339  0.00  0.00    -0.041 A 
ATOM      5  C   LIG    1       26.004 -27.055   7.421  0.00  0.00    +0.049 A 
ATOM      6  C   LIG    1       25.715 -28.405   7.695  0.00  0.00    +0.124 A 
ENDROOT
BRANCH   1   8
ATOM      7  C   LIG    1       24.133 -31.595   5.975  0.00  0.00    +0.026 C 
ATOM      8  C   LIG    1       24.441 -30.664   7.215  0.00  0.00    +0.056 C 
ATOM      9  C   LIG    1       25.486 -31.388   8.050  0.00  0.00    -0.019 C 
ATOM     10  C   LIG    1       26.472 -32.126   7.533  0.00  0.00    -0.076 C 
ATOM     11  C   LIG    1       27.513 -32.757   8.399  0.00  0.00    +0.038 C 
ATOM     12  C   LIG    1       26.616 -32.359   6.043  0.00  0.00    +0.031 C 
ATOM     13  C   LIG    1       25.435 -31.868   5.190  0.00  0.00    +0.013 C 
BRANCH   7  15
ATOM     14  C   LIG    1       23.018 -33.292   7.588  0.00  0.00    +0.007 C 
ATOM     15  C   LIG    1       23.356 -32.900   6.343  0.00  0.00    -0.076 C 
ATOM     16  C   LIG    1       23.001 -33.823   5.206  0.00  0.00    +0.038 C 
ENDBRANCH   7  15
ENDBRANCH   1   8
BRANCH   2  17
ATOM     17  O   LIG    1       23.203 -29.086   5.150  0.00  0.00    -0.506 OA
ATOM     18  H   LIG    1       23.240 -28.752   4.239  0.00  0.00    +0.292 HD
ENDBRANCH   2  17
BRANCH   6  19
ATOM     19  O   LIG    1       26.359 -28.924   8.786  0.00  0.00    -0.506 OA
ATOM     20  H   LIG    1       25.901 -29.731   9.065  0.00  0.00    +0.292 HD
ENDBRANCH   6  19
BRANCH   4  21
ATOM     21  C   LIG    1       25.825 -24.977   6.008  0.00  0.00    +0.035 C 
BRANCH  21  22
ATOM     22  C   LIG    1       25.227 -23.922   6.950  0.00  0.00    +0.005 C 
BRANCH  22  23
ATOM     23  C   LIG    1       23.736 -23.658   6.669  0.00  0.00    +0.000 C 
BRANCH  23  24
ATOM     24  C   LIG    1       23.277 -22.314   7.249  0.00  0.00    -0.003 C 
ATOM     25  C   LIG    1       23.655 -21.133   6.362  0.00  0.00    +0.004 C 
ENDBRANCH  23  24
ENDBRANCH  22  23
ENDBRANCH  21  22
ENDBRANCH   4  21
TORSDOF 8
ENDMDL
MODEL 7
REMARK VINA RESULT:      -7.4      5.744      9.731
REMARK  Name = *****
REMARK                            x       y       z     vdW  Elec       q    Type
REMARK                         _______ _______ _______ _____ _____    ______ ____
ROOT
ATOM      1  C   LIG    1       24.968 -29.040   7.212  0.00  0.00    +0.043 A 
ATOM      2  C   LIG    1       25.928 -28.095   7.628  0.00  0.00    +0.124 A 
ATOM      3  C   LIG    1       26.039 -26.808   7.048  0.00  0.00    +0.049 A 
ATOM      4  C   LIG    1       25.209 -26.419   5.991  0.00  0.00    -0.041 A 
ATOM      5  C   LIG    1       24.307 -27.361   5.506  0.00  0.00    +0.049 A 
ATOM      6  C   LIG    1       24.183 -28.627   6.109  0.00  0.00    +0.124 A 
ENDROOT
BRANCH   1   8
ATOM      7  C   LIG    1       23.703 -31.399   7.445  0.00  0.00    +0.026 C 
ATOM      8  C   LIG    1       24.882 -30.444   7.888  0.00  0.00    +0.056 C 
ATOM      9  C   LIG    1       26.165 -31.251   7.756  0.00  0.00    -0.019 C 
ATOM     10  C   LIG    1       26.384 -32.147   6.790  0.00  0.00    -0.076 C 
ATOM     11  C   LIG    1       27.691 -32.859   6.666  0.00  0.00    +0.038 C 
ATOM     12  C   LIG    1       25.340 -32.489   5.746  0.00  0.00    +0.031 C 
ATOM     13  C   LIG    1       23.945 -31.895   6.002  0.00  0.00    +0.013 C 
BRANCH   7  15
ATOM     14  C   LIG    1       23.087 -33.825   8.122  0.00  0.00    +0.007 C 
ATOM     15  C   LIG    1       23.419 -32.561   8.451  0.00  0.00    -0.076 C 
ATOM     16  C   LIG    1       23.474 -32.217   9.918  0.00  0.00    +0.038 C 
ENDBRANCH   7  15
ENDBRANCH   1   8
BRANCH   2  17
ATOM     17  O   LIG    1       26.812 -28.437   8.619  0.00  0.00    -0.506 OA
ATOM     18  H   LIG    1       27.675 -28.038   8.419  0.00  0.00    +0.292 HD
ENDBRANCH   2  17
BRANCH   6  19
ATOM     19  O   LIG    1       23.256 -29.454   5.533  0.00  0.00    -0.506 OA
ATOM     20  H   LIG    1       22.393 -29.290   5.944  0.00  0.00    +0.292 HD
ENDBRANCH   6  19
BRANCH   4  21
ATOM     21  C   LIG    1       25.251 -25.029   5.387  0.00  0.00    +0.035 C 
BRANCH  21  22
ATOM     22  C   LIG    1       25.041 -23.899   6.404  0.00  0.00    +0.005 C 
BRANCH  22  23
ATOM     23  C   LIG    1       23.553 -23.659   6.719  0.00  0.00    +0.000 C 
BRANCH  23  24
ATOM     24  C   LIG    1       23.305 -22.240   7.250  0.00  0.00    -0.003 C 
ATOM     25  C   LIG    1       23.058 -21.232   6.133  0.00  0.00    +0.004 C 
ENDBRANCH  23  24
ENDBRANCH  22  23
ENDBRANCH  21  22
ENDBRANCH   4  21
TORSDOF 8
ENDMDL
MODEL 8
REMARK VINA RESULT:      -7.4      5.455      9.177
REMARK  Name = *****
REMARK                            x       y       z     vdW  Elec       q    Type
REMARK                         _______ _______ _______ _____ _____    ______ ____
ROOT
ATOM      1  C   LIG    1       25.087 -28.864   7.000  0.00  0.00    +0.043 A 
ATOM      2  C   LIG    1       24.220 -28.402   5.989  0.00  0.00    +0.124 A 
ATOM      3  C   LIG    1       24.268 -27.081   5.483  0.00  0.00    +0.049 A 
ATOM      4  C   LIG    1       25.172 -26.144   5.995  0.00  0.00    -0.041 A 
ATOM      5  C   LIG    1       25.985 -26.549   7.049  0.00  0.00    +0.049 A 
ATOM      6  C   LIG    1       25.951 -27.874   7.526  0.00  0.00    +0.124 A 
ENDROOT
BRANCH   1   8
ATOM      7  C   LIG    1       26.178 -30.859   8.431  0.00  0.00    +0.026 C 
ATOM      8  C   LIG    1       24.998 -30.333   7.521  0.00  0.00    +0.056 C 
ATOM      9  C   LIG    1       23.709 -30.624   8.273  0.00  0.00    -0.019 C 
ATOM     10  C   LIG    1       23.587 -30.545   9.600  0.00  0.00    -0.076 C 
ATOM     11  C   LIG    1       22.277 -30.772  10.280  0.00  0.00    +0.038 C 
ATOM     12  C   LIG    1       24.754 -30.203  10.504  0.00  0.00    +0.031 C 
ATOM     13  C   LIG    1       26.125 -30.163   9.809  0.00  0.00    +0.013 C 
BRANCH   7  15
ATOM     14  C   LIG    1       26.287 -33.130   9.679  0.00  0.00    +0.007 C 
ATOM     15  C   LIG    1       26.248 -32.417   8.536  0.00  0.00    -0.076 C 
ATOM     16  C   LIG    1       26.332 -33.181   7.239  0.00  0.00    +0.038 C 
ENDBRANCH   7  15
ENDBRANCH   1   8
BRANCH   2  17
ATOM     17  O   LIG    1       23.271 -29.254   5.487  0.00  0.00    -0.506 OA
ATOM     18  H   LIG    1       23.707 -29.903   4.910  0.00  0.00    +0.292 HD
ENDBRANCH   2  17
BRANCH   6  19
ATOM     19  O   LIG    1       26.804 -28.136   8.564  0.00  0.00    -0.506 OA
ATOM     20  H   LIG    1       26.947 -27.319   9.066  0.00  0.00    +0.292 HD
ENDBRANCH   6  19
BRANCH   4  21
ATOM     21  C   LIG    1       25.300 -24.740   5.436  0.00  0.00    +0.035 C 
BRANCH  21  22
ATOM     22  C   LIG    1       25.077 -23.631   6.474  0.00  0.00    +0.005 C 
BRANCH  22  23
ATOM     23  C   LIG    1       23.587 -23.415   6.794  0.00  0.00    +0.000 C 
BRANCH  23  24
ATOM     24  C   LIG    1       23.309 -21.981   7.267  0.00  0.00    -0.003 C 
ATOM     25  C   LIG    1       23.052 -21.023   6.110  0.00  0.00    +0.004 C 
ENDBRANCH  23  24
ENDBRANCH  22  23
ENDBRANCH  21  22
ENDBRANCH   4  21
TORSDOF 8
ENDMDL
MODEL 9
REMARK VINA RESULT:      -7.3      5.501      9.245
REMARK  Name = *****
REMARK                            x       y       z     vdW  Elec       q    Type
REMARK                         _______ _______ _______ _____ _____    ______ ____
ROOT
ATOM      1  C   LIG    1       25.048 -28.863   7.243  0.00  0.00    +0.043 A 
ATOM      2  C   LIG    1       26.003 -27.894   7.614  0.00  0.00    +0.124 A 
ATOM      3  C   LIG    1       26.051 -26.603   7.036  0.00  0.00    +0.049 A 
ATOM      4  C   LIG    1       25.159 -26.232   6.025  0.00  0.00    -0.041 A 
ATOM      5  C   LIG    1       24.257 -27.195   5.582  0.00  0.00    +0.049 A 
ATOM      6  C   LIG    1       24.197 -28.466   6.184  0.00  0.00    +0.124 A 
ENDROOT
BRANCH   1   8
ATOM      7  C   LIG    1       26.038 -30.521   9.110  0.00  0.00    +0.026 C 
ATOM      8  C   LIG    1       25.033 -30.271   7.916  0.00  0.00    +0.056 C 
ATOM      9  C   LIG    1       23.656 -30.682   8.415  0.00  0.00    -0.019 C 
ATOM     10  C   LIG    1       23.232 -30.494   9.667  0.00  0.00    -0.076 C 
ATOM     11  C   LIG    1       21.843 -30.852  10.084  0.00  0.00    +0.038 C 
ATOM     12  C   LIG    1       24.115 -29.892  10.742  0.00  0.00    +0.031 C 
ATOM     13  C   LIG    1       25.590 -29.712  10.348  0.00  0.00    +0.013 C 
BRANCH   7  15
ATOM     14  C   LIG    1       25.856 -32.688  10.522  0.00  0.00    +0.007 C 
ATOM     15  C   LIG    1       26.281 -32.033   9.424  0.00  0.00    -0.076 C 
ATOM     16  C   LIG    1       27.110 -32.807   8.432  0.00  0.00    +0.038 C 
ENDBRANCH   7  15
ENDBRANCH   1   8
BRANCH   2  17
ATOM     17  O   LIG    1       26.945 -28.217   8.557  0.00  0.00    -0.506 OA
ATOM     18  H   LIG    1       27.805 -27.866   8.272  0.00  0.00    +0.292 HD
ENDBRANCH   2  17
BRANCH   6  19
ATOM     19  O   LIG    1       23.263 -29.315   5.652  0.00  0.00    -0.506 OA
ATOM     20  H   LIG    1       22.648 -29.582   6.352  0.00  0.00    +0.292 HD
ENDBRANCH   6  19
BRANCH   4  21
ATOM     21  C   LIG    1       25.134 -24.839   5.426  0.00  0.00    +0.035 C 
BRANCH  21  22
ATOM     22  C   LIG    1       24.959 -23.717   6.460  0.00  0.00    +0.005 C 
BRANCH  22  23
ATOM     23  C   LIG    1       23.479 -23.412   6.754  0.00  0.00    +0.000 C 
BRANCH  23  24
ATOM     24  C   LIG    1       23.280 -21.968   7.235  0.00  0.00    -0.003 C 
ATOM     25  C   LIG    1       23.053 -20.994   6.085  0.00  0.00    +0.004 C 
ENDBRANCH  23  24
ENDBRANCH  22  23
ENDBRANCH  21  22
ENDBRANCH   4  21
TORSDOF 8
ENDMDL
