MODEL 1
REMARK VINA RESULT:      -6.8      0.000      0.000
REMARK  Name = *****
REMARK                            x       y       z     vdW  Elec       q    Type
REMARK                         _______ _______ _______ _____ _____    ______ ____
ROOT
ATOM      1  C   LIG    1       27.578 -17.913   4.255  0.00  0.00    +0.121 A 
ATOM      2  C   LIG    1       28.648 -17.993   5.158  0.00  0.00    +0.056 A 
ATOM      3  C   LIG    1       28.754 -19.103   6.046  0.00  0.00    +0.008 A 
ATOM      4  C   LIG    1       29.814 -19.645   6.835  0.00  0.00    -0.008 C 
ATOM      5  C   LIG    1       29.328 -20.819   7.406  0.00  0.00    +0.028 C 
ATOM      6  N   LIG    1       27.945 -20.891   7.185  0.00  0.00    -0.280 N 
ATOM      7  C   LIG    1       26.991 -21.650   7.949  0.00  0.00    +0.263 C 
ATOM      8  O   LIG    1       27.342 -21.947   9.106  0.00  0.00    -0.267 OA
ATOM      9  C   LIG    1       30.108 -21.896   8.096  0.00  0.00    +0.064 C 
ATOM     10  C   LIG    1       27.705 -20.032   6.095  0.00  0.00    +0.057 A 
ATOM     11  C   LIG    1       26.679 -19.930   5.168  0.00  0.00    +0.030 A 
ATOM     12  C   LIG    1       26.642 -18.919   4.239  0.00  0.00    +0.048 A 
ENDROOT
BRANCH   7  13
ATOM     13  C   LIG    1       25.580 -22.001   7.571  0.00  0.00    +0.040 A 
ATOM     14  C   LIG    1       25.221 -23.280   7.141  0.00  0.00    +0.015 A 
ATOM     15  C   LIG    1       23.985 -23.519   6.523  0.00  0.00    +0.021 A 
ATOM     16  C   LIG    1       23.004 -22.541   6.558  0.00  0.00    +0.041 A 
ATOM     17 CL   LIG    1       21.458 -22.856   5.877  0.00  0.00    -0.084 Cl
ATOM     18  C   LIG    1       23.266 -21.328   7.192  0.00  0.00    +0.021 A 
ATOM     19  C   LIG    1       24.554 -21.053   7.682  0.00  0.00    +0.015 A 
ENDBRANCH   7  13
BRANCH   1  21
ATOM     20  C   LIG    1       26.310 -16.094   3.465  0.00  0.00    +0.277 C 
ATOM     21  O   LIG    1       27.524 -16.854   3.387  0.00  0.00    -0.495 OA
ENDBRANCH   1  21
BRANCH   4  22
ATOM     22  C   LIG    1       31.228 -19.128   6.894  0.00  0.00    +0.158 C 
BRANCH  22  23
ATOM     23  C   LIG    1       31.699 -18.541   8.220  0.00  0.00    +0.309 C 
ATOM     24  O   LIG    1       31.734 -17.354   8.417  0.00  0.00    -0.251 OA
BRANCH  23  25
ATOM     25  O   LIG    1       32.087 -19.421   9.183  0.00  0.00    -0.480 OA
ATOM     26  H   LIG    1       32.552 -19.038   9.939  0.00  0.00    +0.295 HD
ENDBRANCH  23  25
ENDBRANCH  22  23
ENDBRANCH   4  22
TORSDOF 5
ENDMDL
MODEL 2
REMARK VINA RESULT:      -6.6      7.252     10.988
REMARK  Name = *****
REMARK                            x       y       z     vdW  Elec       q    Type
REMARK                         _______ _______ _______ _____ _____    ______ ____
ROOT
ATOM      1  C   LIG    1       26.373 -29.373  10.940  0.00  0.00    +0.121 A 
ATOM      2  C   LIG    1       25.932 -30.496  10.226  0.00  0.00    +0.056 A 
ATOM      3  C   LIG    1       25.729 -30.414   8.818  0.00  0.00    +0.008 A 
ATOM      4  C   LIG    1       25.597 -31.383   7.775  0.00  0.00    -0.008 C 
ATOM      5  C   LIG    1       25.535 -30.675   6.577  0.00  0.00    +0.028 C 
ATOM      6  N   LIG    1       25.388 -29.310   6.863  0.00  0.00    -0.280 N 
ATOM      7  C   LIG    1       24.846 -28.303   5.993  0.00  0.00    +0.263 C 
ATOM      8  O   LIG    1       24.101 -28.718   5.085  0.00  0.00    -0.267 OA
ATOM      9  C   LIG    1       25.662 -31.214   5.185  0.00  0.00    +0.064 C 
ATOM     10  C   LIG    1       25.843 -29.166   8.189  0.00  0.00    +0.057 A 
ATOM     11  C   LIG    1       26.307 -28.087   8.927  0.00  0.00    +0.030 A 
ATOM     12  C   LIG    1       26.608 -28.201  10.262  0.00  0.00    +0.048 A 
ENDROOT
BRANCH   7  13
ATOM     13  C   LIG    1       24.955 -26.810   6.131  0.00  0.00    +0.040 A 
ATOM     14  C   LIG    1       26.186 -26.152   6.147  0.00  0.00    +0.015 A 
ATOM     15  C   LIG    1       26.293 -24.817   6.562  0.00  0.00    +0.021 A 
ATOM     16  C   LIG    1       25.143 -24.059   6.722  0.00  0.00    +0.041 A 
ATOM     17 CL   LIG    1       25.267 -22.399   7.149  0.00  0.00    -0.084 Cl
ATOM     18  C   LIG    1       23.899 -24.640   6.485  0.00  0.00    +0.021 A 
ATOM     19  C   LIG    1       23.805 -26.014   6.207  0.00  0.00    +0.015 A 
ENDBRANCH   7  13
BRANCH   1  21
ATOM     20  C   LIG    1       26.033 -30.675  12.872  0.00  0.00    +0.277 C 
ATOM     21  O   LIG    1       26.596 -29.493  12.287  0.00  0.00    -0.495 OA
ENDBRANCH   1  21
BRANCH   4  22
ATOM     22  C   LIG    1       25.679 -32.878   7.941  0.00  0.00    +0.158 C 
BRANCH  22  23
ATOM     23  C   LIG    1       27.060 -33.476   8.180  0.00  0.00    +0.309 C 
ATOM     24  O   LIG    1       27.462 -33.736   9.285  0.00  0.00    -0.251 OA
BRANCH  23  25
ATOM     25  O   LIG    1       27.834 -33.707   7.084  0.00  0.00    -0.480 OA
ATOM     26  H   LIG    1       27.589 -33.218   6.286  0.00  0.00    +0.295 HD
ENDBRANCH  23  25
ENDBRANCH  22  23
ENDBRANCH   4  22
TORSDOF 5
ENDMDL
MODEL 3
REMARK VINA RESULT:      -6.3      3.413      7.101
REMARK  Name = *****
REMARK                            x       y       z     vdW  Elec       q    Type
REMARK                         _______ _______ _______ _____ _____    ______ ____
ROOT
ATOM      1  C   LIG    1       27.529 -21.152   6.891  0.00  0.00    +0.121 A 
ATOM      2  C   LIG    1       26.299 -21.767   7.163  0.00  0.00    +0.056 A 
ATOM      3  C   LIG    1       25.139 -21.409   6.417  0.00  0.00    +0.008 A 
ATOM      4  C   LIG    1       23.861 -22.017   6.216  0.00  0.00    -0.008 C 
ATOM      5  C   LIG    1       23.190 -21.237   5.277  0.00  0.00    +0.028 C 
ATOM      6  N   LIG    1       23.913 -20.052   5.073  0.00  0.00    -0.280 N 
ATOM      7  C   LIG    1       23.398 -18.808   4.568  0.00  0.00    +0.263 C 
ATOM      8  O   LIG    1       22.169 -18.645   4.687  0.00  0.00    -0.267 OA
ATOM      9  C   LIG    1       21.939 -21.577   4.526  0.00  0.00    +0.064 C 
ATOM     10  C   LIG    1       25.220 -20.343   5.510  0.00  0.00    +0.057 A 
ATOM     11  C   LIG    1       26.460 -19.780   5.251  0.00  0.00    +0.030 A 
ATOM     12  C   LIG    1       27.596 -20.207   5.895  0.00  0.00    +0.048 A 
ENDROOT
BRANCH   7  13
ATOM     13  C   LIG    1       24.177 -17.633   4.047  0.00  0.00    +0.040 A 
ATOM     14  C   LIG    1       25.379 -17.785   3.354  0.00  0.00    +0.015 A 
ATOM     15  C   LIG    1       26.233 -16.696   3.131  0.00  0.00    +0.021 A 
ATOM     16  C   LIG    1       25.777 -15.410   3.375  0.00  0.00    +0.041 A 
ATOM     17 CL   LIG    1       26.786 -14.064   3.025  0.00  0.00    -0.084 Cl
ATOM     18  C   LIG    1       24.483 -15.220   3.856  0.00  0.00    +0.021 A 
ATOM     19  C   LIG    1       23.692 -16.328   4.206  0.00  0.00    +0.015 A 
ENDBRANCH   7  13
BRANCH   1  21
ATOM     20  C   LIG    1       29.651 -20.537   7.704  0.00  0.00    +0.277 C 
ATOM     21  O   LIG    1       28.635 -21.544   7.598  0.00  0.00    -0.495 OA
ENDBRANCH   1  21
BRANCH   4  22
ATOM     22  C   LIG    1       23.408 -23.335   6.787  0.00  0.00    +0.158 C 
BRANCH  22  23
ATOM     23  C   LIG    1       23.930 -24.600   6.117  0.00  0.00    +0.309 C 
ATOM     24  O   LIG    1       23.700 -25.698   6.556  0.00  0.00    -0.251 OA
BRANCH  23  25
ATOM     25  O   LIG    1       24.677 -24.441   4.990  0.00  0.00    -0.480 OA
ATOM     26  H   LIG    1       25.615 -24.659   5.075  0.00  0.00    +0.295 HD
ENDBRANCH  23  25
ENDBRANCH  22  23
ENDBRANCH   4  22
TORSDOF 5
ENDMDL
MODEL 4
REMARK VINA RESULT:      -6.2     10.533     12.538
REMARK  Name = *****
REMARK                            x       y       z     vdW  Elec       q    Type
REMARK                         _______ _______ _______ _____ _____    ______ ____
ROOT
ATOM      1  C   LIG    1       24.451 -26.380  13.614  0.00  0.00    +0.121 A 
ATOM      2  C   LIG    1       23.051 -26.423  13.683  0.00  0.00    +0.056 A 
ATOM      3  C   LIG    1       22.344 -27.553  13.179  0.00  0.00    +0.008 A 
ATOM      4  C   LIG    1       21.017 -28.055  13.355  0.00  0.00    -0.008 C 
ATOM      5  C   LIG    1       20.958 -29.275  12.687  0.00  0.00    +0.028 C 
ATOM      6  N   LIG    1       22.120 -29.427  11.917  0.00  0.00    -0.280 N 
ATOM      7  C   LIG    1       22.282 -30.269  10.763  0.00  0.00    +0.263 C 
ATOM      8  O   LIG    1       21.231 -30.583  10.172  0.00  0.00    -0.267 OA
ATOM      9  C   LIG    1       19.892 -30.323  12.783  0.00  0.00    +0.064 C 
ATOM     10  C   LIG    1       23.057 -28.548  12.495  0.00  0.00    +0.057 A 
ATOM     11  C   LIG    1       24.442 -28.480  12.473  0.00  0.00    +0.030 A 
ATOM     12  C   LIG    1       25.124 -27.442  13.059  0.00  0.00    +0.048 A 
ENDROOT
BRANCH   7  13
ATOM     13  C   LIG    1       23.565 -30.696  10.107  0.00  0.00    +0.040 A 
ATOM     14  C   LIG    1       24.073 -30.053   8.976  0.00  0.00    +0.015 A 
ATOM     15  C   LIG    1       25.097 -30.628   8.211  0.00  0.00    +0.021 A 
ATOM     16  C   LIG    1       25.790 -31.720   8.709  0.00  0.00    +0.041 A 
ATOM     17 CL   LIG    1       27.101 -32.379   7.816  0.00  0.00    -0.084 Cl
ATOM     18  C   LIG    1       25.446 -32.241   9.955  0.00  0.00    +0.021 A 
ATOM     19  C   LIG    1       24.328 -31.742  10.643  0.00  0.00    +0.015 A 
ENDBRANCH   7  13
BRANCH   1  21
ATOM     20  C   LIG    1       24.746 -25.000  15.498  0.00  0.00    +0.277 C 
ATOM     21  O   LIG    1       25.105 -25.299  14.142  0.00  0.00    -0.495 OA
ENDBRANCH   1  21
BRANCH   4  22
ATOM     22  C   LIG    1       19.953 -27.451  14.235  0.00  0.00    +0.158 C 
BRANCH  22  23
ATOM     23  C   LIG    1       19.036 -26.411  13.603  0.00  0.00    +0.309 C 
ATOM     24  O   LIG    1       18.009 -26.062  14.127  0.00  0.00    -0.251 OA
BRANCH  23  25
ATOM     25  O   LIG    1       19.425 -25.885  12.410  0.00  0.00    -0.480 OA
ATOM     26  H   LIG    1       19.331 -26.468  11.644  0.00  0.00    +0.295 HD
ENDBRANCH  23  25
ENDBRANCH  22  23
ENDBRANCH   4  22
TORSDOF 5
ENDMDL
MODEL 5
REMARK VINA RESULT:      -6.2      3.328      6.183
REMARK  Name = *****
REMARK                            x       y       z     vdW  Elec       q    Type
REMARK                         _______ _______ _______ _____ _____    ______ ____
ROOT
ATOM      1  C   LIG    1       28.078 -21.046   7.615  0.00  0.00    +0.121 A 
ATOM      2  C   LIG    1       27.411 -22.249   7.890  0.00  0.00    +0.056 A 
ATOM      3  C   LIG    1       26.243 -22.603   7.155  0.00  0.00    +0.008 A 
ATOM      4  C   LIG    1       25.526 -23.824   6.957  0.00  0.00    -0.008 C 
ATOM      5  C   LIG    1       24.522 -23.552   6.031  0.00  0.00    +0.028 C 
ATOM      6  N   LIG    1       24.450 -22.166   5.833  0.00  0.00    -0.280 N 
ATOM      7  C   LIG    1       23.318 -21.425   5.345  0.00  0.00    +0.263 C 
ATOM      8  O   LIG    1       22.212 -21.983   5.475  0.00  0.00    -0.267 OA
ATOM      9  C   LIG    1       23.671 -24.535   5.285  0.00  0.00    +0.064 C 
ATOM     10  C   LIG    1       25.698 -21.672   6.258  0.00  0.00    +0.057 A 
ATOM     11  C   LIG    1       26.404 -20.507   5.997  0.00  0.00    +0.030 A 
ATOM     12  C   LIG    1       27.590 -20.223   6.628  0.00  0.00    +0.048 A 
ENDROOT
BRANCH   7  13
ATOM     13  C   LIG    1       23.294 -20.013   4.831  0.00  0.00    +0.040 A 
ATOM     14  C   LIG    1       24.279 -19.515   3.976  0.00  0.00    +0.015 A 
ATOM     15  C   LIG    1       24.409 -18.140   3.739  0.00  0.00    +0.021 A 
ATOM     16  C   LIG    1       23.404 -17.279   4.151  0.00  0.00    +0.041 A 
ATOM     17 CL   LIG    1       23.514 -15.602   3.790  0.00  0.00    -0.084 Cl
ATOM     18  C   LIG    1       22.288 -17.790   4.811  0.00  0.00    +0.021 A 
ATOM     19  C   LIG    1       22.242 -19.149   5.164  0.00  0.00    +0.015 A 
ENDBRANCH   7  13
BRANCH   1  21
ATOM     20  C   LIG    1       30.199 -20.026   7.551  0.00  0.00    +0.277 C 
ATOM     21  O   LIG    1       29.221 -20.751   8.310  0.00  0.00    -0.495 OA
ENDBRANCH   1  21
BRANCH   4  22
ATOM     22  C   LIG    1       25.901 -25.171   7.518  0.00  0.00    +0.158 C 
BRANCH  22  23
ATOM     23  C   LIG    1       26.269 -26.262   6.520  0.00  0.00    +0.309 C 
ATOM     24  O   LIG    1       26.688 -26.008   5.420  0.00  0.00    -0.251 OA
BRANCH  23  25
ATOM     25  O   LIG    1       26.101 -27.552   6.923  0.00  0.00    -0.480 OA
ATOM     26  H   LIG    1       26.789 -27.902   7.505  0.00  0.00    +0.295 HD
ENDBRANCH  23  25
ENDBRANCH  22  23
ENDBRANCH   4  22
TORSDOF 5
ENDMDL
MODEL 6
REMARK VINA RESULT:      -6.2     10.535     11.859
REMARK  Name = *****
REMARK                            x       y       z     vdW  Elec       q    Type
REMARK                         _______ _______ _______ _____ _____    ______ ____
ROOT
ATOM      1  C   LIG    1       22.323 -31.037  10.309  0.00  0.00    +0.121 A 
ATOM      2  C   LIG    1       23.651 -30.589  10.279  0.00  0.00    +0.056 A 
ATOM      3  C   LIG    1       24.113 -29.657  11.252  0.00  0.00    +0.008 A 
ATOM      4  C   LIG    1       25.408 -29.245  11.696  0.00  0.00    -0.008 C 
ATOM      5  C   LIG    1       25.207 -28.378  12.767  0.00  0.00    +0.028 C 
ATOM      6  N   LIG    1       23.843 -28.062  12.845  0.00  0.00    -0.280 N 
ATOM      7  C   LIG    1       23.263 -26.904  13.470  0.00  0.00    +0.263 C 
ATOM      8  O   LIG    1       24.023 -25.927  13.605  0.00  0.00    -0.267 OA
ATOM      9  C   LIG    1       26.224 -27.880  13.748  0.00  0.00    +0.064 C 
ATOM     10  C   LIG    1       23.190 -29.096  12.146  0.00  0.00    +0.057 A 
ATOM     11  C   LIG    1       21.893 -29.587  12.160  0.00  0.00    +0.030 A 
ATOM     12  C   LIG    1       21.482 -30.568  11.291  0.00  0.00    +0.048 A 
ENDROOT
BRANCH   7  13
ATOM     13  C   LIG    1       21.825 -26.684  13.846  0.00  0.00    +0.040 A 
ATOM     14  C   LIG    1       21.395 -26.680  15.174  0.00  0.00    +0.015 A 
ATOM     15  C   LIG    1       20.033 -26.765  15.498  0.00  0.00    +0.021 A 
ATOM     16  C   LIG    1       19.084 -26.599  14.503  0.00  0.00    +0.041 A 
ATOM     17 CL   LIG    1       17.413 -26.618  14.904  0.00  0.00    -0.084 Cl
ATOM     18  C   LIG    1       19.496 -26.370  13.191  0.00  0.00    +0.021 A 
ATOM     19  C   LIG    1       20.860 -26.428  12.862  0.00  0.00    +0.015 A 
ENDBRANCH   7  13
BRANCH   1  21
ATOM     20  C   LIG    1       22.993 -32.610   8.691  0.00  0.00    +0.277 C 
ATOM     21  O   LIG    1       21.917 -31.963   9.385  0.00  0.00    -0.495 OA
ENDBRANCH   1  21
BRANCH   4  22
ATOM     22  C   LIG    1       26.726 -29.782  11.201  0.00  0.00    +0.158 C 
BRANCH  22  23
ATOM     23  C   LIG    1       26.930 -29.840   9.691  0.00  0.00    +0.309 C 
ATOM     24  O   LIG    1       26.976 -30.885   9.093  0.00  0.00    -0.251 OA
BRANCH  23  25
ATOM     25  O   LIG    1       27.062 -28.654   9.038  0.00  0.00    -0.480 OA
ATOM     26  H   LIG    1       26.393 -27.986   9.241  0.00  0.00    +0.295 HD
ENDBRANCH  23  25
ENDBRANCH  22  23
ENDBRANCH   4  22
TORSDOF 5
ENDMDL
MODEL 7
REMARK VINA RESULT:      -6.2      9.578     11.002
REMARK  Name = *****
REMARK                            x       y       z     vdW  Elec       q    Type
REMARK                         _______ _______ _______ _____ _____    ______ ____
ROOT
ATOM      1  C   LIG    1       26.213 -24.978  13.972  0.00  0.00    +0.121 A 
ATOM      2  C   LIG    1       26.832 -26.114  13.432  0.00  0.00    +0.056 A 
ATOM      3  C   LIG    1       26.043 -27.170  12.890  0.00  0.00    +0.008 A 
ATOM      4  C   LIG    1       26.319 -28.271  12.022  0.00  0.00    -0.008 C 
ATOM      5  C   LIG    1       25.100 -28.891  11.761  0.00  0.00    +0.028 C 
ATOM      6  N   LIG    1       24.127 -28.356  12.618  0.00  0.00    -0.280 N 
ATOM      7  C   LIG    1       22.892 -28.979  13.011  0.00  0.00    +0.263 C 
ATOM      8  O   LIG    1       22.856 -30.219  12.906  0.00  0.00    -0.267 OA
ATOM      9  C   LIG    1       24.797 -29.916  10.711  0.00  0.00    +0.064 C 
ATOM     10  C   LIG    1       24.649 -27.115  13.032  0.00  0.00    +0.057 A 
ATOM     11  C   LIG    1       24.076 -25.962  13.548  0.00  0.00    +0.030 A 
ATOM     12  C   LIG    1       24.840 -24.900  13.966  0.00  0.00    +0.048 A 
ENDROOT
BRANCH   7  13
ATOM     13  C   LIG    1       21.700 -28.332  13.660  0.00  0.00    +0.040 A 
ATOM     14  C   LIG    1       21.302 -28.643  14.961  0.00  0.00    +0.015 A 
ATOM     15  C   LIG    1       20.044 -28.261  15.448  0.00  0.00    +0.021 A 
ATOM     16  C   LIG    1       19.281 -27.355  14.729  0.00  0.00    +0.041 A 
ATOM     17 CL   LIG    1       17.775 -26.818  15.358  0.00  0.00    -0.084 Cl
ATOM     18  C   LIG    1       19.767 -26.851  13.525  0.00  0.00    +0.021 A 
ATOM     19  C   LIG    1       20.964 -27.349  12.985  0.00  0.00    +0.015 A 
ENDBRANCH   7  13
BRANCH   1  21
ATOM     20  C   LIG    1       28.207 -24.403  15.082  0.00  0.00    +0.277 C 
ATOM     21  O   LIG    1       26.997 -23.962  14.451  0.00  0.00    -0.495 OA
ENDBRANCH   1  21
BRANCH   4  22
ATOM     22  C   LIG    1       27.649 -28.586  11.388  0.00  0.00    +0.158 C 
BRANCH  22  23
ATOM     23  C   LIG    1       28.635 -29.407  12.210  0.00  0.00    +0.309 C 
ATOM     24  O   LIG    1       28.279 -30.106  13.125  0.00  0.00    -0.251 OA
BRANCH  23  25
ATOM     25  O   LIG    1       29.950 -29.320  11.868  0.00  0.00    -0.480 OA
ATOM     26  H   LIG    1       30.449 -30.147  11.906  0.00  0.00    +0.295 HD
ENDBRANCH  23  25
ENDBRANCH  22  23
ENDBRANCH   4  22
TORSDOF 5
ENDMDL
MODEL 8
REMARK VINA RESULT:      -5.9      9.465     11.294
REMARK  Name = *****
REMARK                            x       y       z     vdW  Elec       q    Type
REMARK                         _______ _______ _______ _____ _____    ______ ____
ROOT
ATOM      1  C   LIG    1       20.879 -26.771  14.478  0.00  0.00    +0.121 A 
ATOM      2  C   LIG    1       22.063 -26.259  15.026  0.00  0.00    +0.056 A 
ATOM      3  C   LIG    1       23.316 -26.534  14.405  0.00  0.00    +0.008 A 
ATOM      4  C   LIG    1       24.619 -25.952  14.497  0.00  0.00    -0.008 C 
ATOM      5  C   LIG    1       25.410 -26.592  13.546  0.00  0.00    +0.028 C 
ATOM      6  N   LIG    1       24.709 -27.696  13.041  0.00  0.00    -0.280 N 
ATOM      7  C   LIG    1       25.275 -28.859  12.412  0.00  0.00    +0.263 C 
ATOM      8  O   LIG    1       26.470 -29.088  12.678  0.00  0.00    -0.267 OA
ATOM      9  C   LIG    1       26.764 -26.182  13.052  0.00  0.00    +0.064 C 
ATOM     10  C   LIG    1       23.356 -27.431  13.328  0.00  0.00    +0.057 A 
ATOM     11  C   LIG    1       22.159 -27.893  12.801  0.00  0.00    +0.030 A 
ATOM     12  C   LIG    1       20.947 -27.534  13.337  0.00  0.00    +0.048 A 
ENDROOT
BRANCH   7  13
ATOM     13  C   LIG    1       24.565 -29.900  11.592  0.00  0.00    +0.040 A 
ATOM     14  C   LIG    1       24.394 -29.772  10.213  0.00  0.00    +0.015 A 
ATOM     15  C   LIG    1       23.494 -30.587   9.512  0.00  0.00    +0.021 A 
ATOM     16  C   LIG    1       22.949 -31.697  10.139  0.00  0.00    +0.041 A 
ATOM     17 CL   LIG    1       21.910 -32.749   9.263  0.00  0.00    -0.084 Cl
ATOM     18  C   LIG    1       23.290 -31.976  11.461  0.00  0.00    +0.021 A 
ATOM     19  C   LIG    1       24.082 -31.072  12.189  0.00  0.00    +0.015 A 
ENDBRANCH   7  13
BRANCH   1  21
ATOM     20  C   LIG    1       18.591 -26.319  14.158  0.00  0.00    +0.277 C 
ATOM     21  O   LIG    1       19.686 -26.458  15.074  0.00  0.00    -0.495 OA
ENDBRANCH   1  21
BRANCH   4  22
ATOM     22  C   LIG    1       25.001 -24.766  15.343  0.00  0.00    +0.158 C 
BRANCH  22  23
ATOM     23  C   LIG    1       25.631 -23.576  14.629  0.00  0.00    +0.309 C 
ATOM     24  O   LIG    1       25.031 -22.932  13.807  0.00  0.00    -0.251 OA
BRANCH  23  25
ATOM     25  O   LIG    1       26.914 -23.265  14.959  0.00  0.00    -0.480 OA
ATOM     26  H   LIG    1       27.217 -23.586  15.819  0.00  0.00    +0.295 HD
ENDBRANCH  23  25
ENDBRANCH  22  23
ENDBRANCH   4  22
TORSDOF 5
ENDMDL
MODEL 9
REMARK VINA RESULT:      -5.7     10.558     13.053
REMARK  Name = *****
REMARK                            x       y       z     vdW  Elec       q    Type
REMARK                         _______ _______ _______ _____ _____    ______ ____
ROOT
ATOM      1  C   LIG    1       19.921 -30.864  11.498  0.00  0.00    +0.121 A 
ATOM      2  C   LIG    1       19.992 -30.014  12.611  0.00  0.00    +0.056 A 
ATOM      3  C   LIG    1       21.137 -29.190  12.810  0.00  0.00    +0.008 A 
ATOM      4  C   LIG    1       21.404 -28.037  13.612  0.00  0.00    -0.008 C 
ATOM      5  C   LIG    1       22.688 -27.610  13.284  0.00  0.00    +0.028 C 
ATOM      6  N   LIG    1       23.302 -28.588  12.489  0.00  0.00    -0.280 N 
ATOM      7  C   LIG    1       24.715 -28.786  12.307  0.00  0.00    +0.263 C 
ATOM      8  O   LIG    1       25.444 -28.324  13.205  0.00  0.00    -0.267 OA
ATOM      9  C   LIG    1       23.340 -26.308  13.635  0.00  0.00    +0.064 C 
ATOM     10  C   LIG    1       22.240 -29.345  11.957  0.00  0.00    +0.057 A 
ATOM     11  C   LIG    1       22.117 -30.177  10.855  0.00  0.00    +0.030 A 
ATOM     12  C   LIG    1       20.967 -30.884  10.607  0.00  0.00    +0.048 A 
ENDROOT
BRANCH   7  13
ATOM     13  C   LIG    1       25.402 -29.599  11.246  0.00  0.00    +0.040 A 
ATOM     14  C   LIG    1       26.034 -29.010  10.150  0.00  0.00    +0.015 A 
ATOM     15  C   LIG    1       26.413 -29.769   9.033  0.00  0.00    +0.021 A 
ATOM     16  C   LIG    1       26.390 -31.153   9.110  0.00  0.00    +0.041 A 
ATOM     17 CL   LIG    1       26.932 -32.091   7.777  0.00  0.00    -0.084 Cl
ATOM     18  C   LIG    1       25.976 -31.768  10.289  0.00  0.00    +0.021 A 
ATOM     19  C   LIG    1       25.468 -30.995  11.347  0.00  0.00    +0.015 A 
ENDBRANCH   7  13
BRANCH   1  21
ATOM     20  C   LIG    1       18.193 -31.465  10.017  0.00  0.00    +0.277 C 
ATOM     21  O   LIG    1       18.791 -31.616  11.312  0.00  0.00    -0.495 OA
ENDBRANCH   1  21
BRANCH   4  22
ATOM     22  C   LIG    1       20.417 -27.335  14.508  0.00  0.00    +0.158 C 
BRANCH  22  23
ATOM     23  C   LIG    1       19.290 -26.564  13.832  0.00  0.00    +0.309 C 
ATOM     24  O   LIG    1       18.228 -26.381  14.370  0.00  0.00    -0.251 OA
BRANCH  23  25
ATOM     25  O   LIG    1       19.531 -26.085  12.581  0.00  0.00    -0.480 OA
ATOM     26  H   LIG    1       18.968 -26.441  11.880  0.00  0.00    +0.295 HD
ENDBRANCH  23  25
ENDBRANCH  22  23
ENDBRANCH   4  22
TORSDOF 5
ENDMDL
