MODEL 1
REMARK VINA RESULT:      -5.0      0.000      0.000
REMARK  Name = *****
REMARK                            x       y       z     vdW  Elec       q    Type
REMARK                         _______ _______ _______ _____ _____    ______ ____
ROOT
ATOM      1  CA  MET A  1       30.520 -20.680   8.354  0.00  0.00    +0.161 C 
ENDROOT
BRANCH   1   2
ATOM      2  N   MET A  1       31.602 -20.154   7.478  0.00  0.00    -0.318 NA
ATOM      3  H1  MET A  1       32.024 -20.964   7.003  0.00  0.00    +0.119 HD
ATOM      4  H2  MET A  1       32.374 -19.857   8.091  0.00  0.00    +0.119 HD
ENDBRANCH   1   2
BRANCH   1   5
ATOM      5  C   MET A  1       31.139 -21.822   9.193  0.00  0.00    +0.322 C 
ATOM      6  O   MET A  1       30.783 -22.182  10.297  0.00  0.00    -0.249 OA
BRANCH   5   7
ATOM      7  OXT MET A  1       32.201 -22.368   8.530  0.00  0.00    -0.479 OA
ATOM      8  HXT MET A  1       31.816 -23.067   7.941  0.00  0.00    +0.295 HD
ENDBRANCH   5   7
ENDBRANCH   1   5
BRANCH   1   9
ATOM      9  CB  MET A  1       29.269 -21.137   7.588  0.00  0.00    +0.040 C 
BRANCH   9  10
ATOM     10  CG  MET A  1       28.318 -20.013   7.145  0.00  0.00    +0.071 C 
BRANCH  10  12
ATOM     11  CE  MET A  1       25.971 -20.651   8.505  0.00  0.00    +0.084 C 
ATOM     12  SD  MET A  1       26.614 -20.583   6.812  0.00  0.00    -0.164 S 
ENDBRANCH  10  12
ENDBRANCH   9  10
ENDBRANCH   1   9
TORSDOF 6
ENDMDL
MODEL 2
REMARK VINA RESULT:      -5.0      3.243      3.552
REMARK  Name = *****
REMARK                            x       y       z     vdW  Elec       q    Type
REMARK                         _______ _______ _______ _____ _____    ______ ____
ROOT
ATOM      1  CA  MET A  1       31.703 -18.666   8.397  0.00  0.00    +0.161 C 
ENDROOT
BRANCH   1   2
ATOM      2  N   MET A  1       31.928 -19.964   9.090  0.00  0.00    -0.318 NA
ATOM      3  H1  MET A  1       32.313 -20.615   8.392  0.00  0.00    +0.119 HD
ATOM      4  H2  MET A  1       31.003 -20.380   9.265  0.00  0.00    +0.119 HD
ENDBRANCH   1   2
BRANCH   1   5
ATOM      5  C   MET A  1       32.187 -17.556   9.358  0.00  0.00    +0.322 C 
ATOM      6  O   MET A  1       32.292 -17.642  10.565  0.00  0.00    -0.249 OA
BRANCH   5   7
ATOM      7  OXT MET A  1       32.449 -16.412   8.659  0.00  0.00    -0.479 OA
ATOM      8  HXT MET A  1       31.890 -15.710   9.079  0.00  0.00    +0.295 HD
ENDBRANCH   5   7
ENDBRANCH   1   5
BRANCH   1   9
ATOM      9  CB  MET A  1       30.251 -18.448   7.945  0.00  0.00    +0.040 C 
BRANCH   9  10
ATOM     10  CG  MET A  1       29.958 -18.790   6.475  0.00  0.00    +0.071 C 
BRANCH  10  12
ATOM     11  CE  MET A  1       28.936 -21.182   7.471  0.00  0.00    +0.084 C 
ATOM     12  SD  MET A  1       28.528 -19.905   6.252  0.00  0.00    -0.164 S 
ENDBRANCH  10  12
ENDBRANCH   9  10
ENDBRANCH   1   9
TORSDOF 6
ENDMDL
MODEL 3
REMARK VINA RESULT:      -4.8      3.381      4.057
REMARK  Name = *****
REMARK                            x       y       z     vdW  Elec       q    Type
REMARK                         _______ _______ _______ _____ _____    ______ ____
ROOT
ATOM      1  CA  MET A  1       31.260 -19.478   8.359  0.00  0.00    +0.161 C 
ENDROOT
BRANCH   1   2
ATOM      2  N   MET A  1       31.592 -19.609   6.913  0.00  0.00    -0.318 NA
ATOM      3  H1  MET A  1       31.327 -18.723   6.463  0.00  0.00    +0.119 HD
ATOM      4  H2  MET A  1       30.907 -20.257   6.501  0.00  0.00    +0.119 HD
ENDBRANCH   1   2
BRANCH   1   5
ATOM      5  C   MET A  1       31.066 -20.911   8.905  0.00  0.00    +0.322 C 
ATOM      6  O   MET A  1       30.023 -21.532   8.947  0.00  0.00    -0.249 OA
BRANCH   5   7
ATOM      7  OXT MET A  1       32.248 -21.391   9.391  0.00  0.00    -0.479 OA
ATOM      8  HXT MET A  1       32.956 -20.921   8.880  0.00  0.00    +0.295 HD
ENDBRANCH   5   7
ENDBRANCH   1   5
BRANCH   1   9
ATOM      9  CB  MET A  1       30.042 -18.583   8.636  0.00  0.00    +0.040 C 
BRANCH   9  10
ATOM     10  CG  MET A  1       30.303 -17.377   9.552  0.00  0.00    +0.071 C 
BRANCH  10  12
ATOM     11  CE  MET A  1       32.452 -16.799  11.228  0.00  0.00    +0.084 C 
ATOM     12  SD  MET A  1       32.018 -16.751   9.470  0.00  0.00    -0.164 S 
ENDBRANCH  10  12
ENDBRANCH   9  10
ENDBRANCH   1   9
TORSDOF 6
ENDMDL
MODEL 4
REMARK VINA RESULT:      -4.8      4.372      5.155
REMARK  Name = *****
REMARK                            x       y       z     vdW  Elec       q    Type
REMARK                         _______ _______ _______ _____ _____    ______ ____
ROOT
ATOM      1  CA  MET A  1       30.658 -18.929   8.857  0.00  0.00    +0.161 C 
ENDROOT
BRANCH   1   2
ATOM      2  N   MET A  1       31.925 -19.536   9.352  0.00  0.00    -0.318 NA
ATOM      3  H1  MET A  1       32.697 -19.017   8.913  0.00  0.00    +0.119 HD
ATOM      4  H2  MET A  1       32.018 -20.456   8.900  0.00  0.00    +0.119 HD
ENDBRANCH   1   2
BRANCH   1   5
ATOM      5  C   MET A  1       30.733 -18.933   7.313  0.00  0.00    +0.322 C 
ATOM      6  O   MET A  1       30.053 -18.272   6.555  0.00  0.00    -0.249 OA
BRANCH   5   7
ATOM      7  OXT MET A  1       31.665 -19.839   6.892  0.00  0.00    -0.479 OA
ATOM      8  HXT MET A  1       31.280 -20.259   6.081  0.00  0.00    +0.295 HD
ENDBRANCH   5   7
ENDBRANCH   1   5
BRANCH   1   9
ATOM      9  CB  MET A  1       30.383 -17.525   9.419  0.00  0.00    +0.040 C 
BRANCH   9  10
ATOM     10  CG  MET A  1       30.596 -17.367  10.933  0.00  0.00    +0.071 C 
BRANCH  10  12
ATOM     11  CE  MET A  1       32.642 -15.927   9.706  0.00  0.00    +0.084 C 
ATOM     12  SD  MET A  1       32.068 -16.373  11.366  0.00  0.00    -0.164 S 
ENDBRANCH  10  12
ENDBRANCH   9  10
ENDBRANCH   1   9
TORSDOF 6
ENDMDL
MODEL 5
REMARK VINA RESULT:      -4.8      1.874      1.994
REMARK  Name = *****
REMARK                            x       y       z     vdW  Elec       q    Type
REMARK                         _______ _______ _______ _____ _____    ______ ____
ROOT
ATOM      1  CA  MET A  1       30.849 -20.413   8.904  0.00  0.00    +0.161 C 
ENDROOT
BRANCH   1   2
ATOM      2  N   MET A  1       32.108 -19.624   8.993  0.00  0.00    -0.318 NA
ATOM      3  H1  MET A  1       31.969 -18.917   9.728  0.00  0.00    +0.119 HD
ATOM      4  H2  MET A  1       32.157 -19.032   8.152  0.00  0.00    +0.119 HD
ENDBRANCH   1   2
BRANCH   1   5
ATOM      5  C   MET A  1       31.197 -21.860   9.323  0.00  0.00    +0.322 C 
ATOM      6  O   MET A  1       30.676 -22.498  10.215  0.00  0.00    -0.249 OA
BRANCH   5   7
ATOM      7  OXT MET A  1       32.229 -22.332   8.563  0.00  0.00    -0.479 OA
ATOM      8  HXT MET A  1       32.489 -21.580   7.971  0.00  0.00    +0.295 HD
ENDBRANCH   5   7
ENDBRANCH   1   5
BRANCH   1   9
ATOM      9  CB  MET A  1       30.177 -20.355   7.524  0.00  0.00    +0.040 C 
BRANCH   9  10
ATOM     10  CG  MET A  1       30.584 -19.165   6.641  0.00  0.00    +0.071 C 
BRANCH  10  12
ATOM     11  CE  MET A  1       28.036 -19.902   5.789  0.00  0.00    +0.084 C 
ATOM     12  SD  MET A  1       29.251 -18.582   5.535  0.00  0.00    -0.164 S 
ENDBRANCH  10  12
ENDBRANCH   9  10
ENDBRANCH   1   9
TORSDOF 6
ENDMDL
MODEL 6
REMARK VINA RESULT:      -4.7      3.632      4.385
REMARK  Name = *****
REMARK                            x       y       z     vdW  Elec       q    Type
REMARK                         _______ _______ _______ _____ _____    ______ ____
ROOT
ATOM      1  CA  MET A  1       31.336 -17.215   9.017  0.00  0.00    +0.161 C 
ENDROOT
BRANCH   1   2
ATOM      2  N   MET A  1       32.398 -16.172   9.036  0.00  0.00    -0.318 NA
ATOM      3  H1  MET A  1       32.037 -15.367   8.507  0.00  0.00    +0.119 HD
ATOM      4  H2  MET A  1       33.154 -16.497   8.418  0.00  0.00    +0.119 HD
ENDBRANCH   1   2
BRANCH   1   5
ATOM      5  C   MET A  1       30.732 -17.265  10.440  0.00  0.00    +0.322 C 
ATOM      6  O   MET A  1       30.307 -16.322  11.077  0.00  0.00    -0.249 OA
BRANCH   5   7
ATOM      7  OXT MET A  1       30.778 -18.541  10.924  0.00  0.00    -0.479 OA
ATOM      8  HXT MET A  1       31.272 -18.482  11.781  0.00  0.00    +0.295 HD
ENDBRANCH   5   7
ENDBRANCH   1   5
BRANCH   1   9
ATOM      9  CB  MET A  1       31.828 -18.593   8.550  0.00  0.00    +0.040 C 
BRANCH   9  10
ATOM     10  CG  MET A  1       31.048 -19.211   7.378  0.00  0.00    +0.071 C 
BRANCH  10  12
ATOM     11  CE  MET A  1       31.045 -21.515   8.945  0.00  0.00    +0.084 C 
ATOM     12  SD  MET A  1       29.930 -20.568   7.876  0.00  0.00    -0.164 S 
ENDBRANCH  10  12
ENDBRANCH   9  10
ENDBRANCH   1   9
TORSDOF 6
ENDMDL
MODEL 7
REMARK VINA RESULT:      -4.7      2.673      2.832
REMARK  Name = *****
REMARK                            x       y       z     vdW  Elec       q    Type
REMARK                         _______ _______ _______ _____ _____    ______ ____
ROOT
ATOM      1  CA  MET A  1       31.347 -19.139   7.459  0.00  0.00    +0.161 C 
ENDROOT
BRANCH   1   2
ATOM      2  N   MET A  1       31.518 -20.583   7.779  0.00  0.00    -0.318 NA
ATOM      3  H1  MET A  1       32.393 -20.670   8.313  0.00  0.00    +0.119 HD
ATOM      4  H2  MET A  1       31.768 -21.062   6.903  0.00  0.00    +0.119 HD
ENDBRANCH   1   2
BRANCH   1   5
ATOM      5  C   MET A  1       31.860 -18.346   8.683  0.00  0.00    +0.322 C 
ATOM      6  O   MET A  1       31.878 -18.729   9.835  0.00  0.00    -0.249 OA
BRANCH   5   7
ATOM      7  OXT MET A  1       32.265 -17.100   8.298  0.00  0.00    -0.479 OA
ATOM      8  HXT MET A  1       32.323 -17.133   7.309  0.00  0.00    +0.295 HD
ENDBRANCH   5   7
ENDBRANCH   1   5
BRANCH   1   9
ATOM      9  CB  MET A  1       29.908 -18.754   7.081  0.00  0.00    +0.040 C 
BRANCH   9  10
ATOM     10  CG  MET A  1       29.064 -19.880   6.464  0.00  0.00    +0.071 C 
BRANCH  10  12
ATOM     11  CE  MET A  1       26.362 -20.543   6.319  0.00  0.00    +0.084 C 
ATOM     12  SD  MET A  1       27.698 -20.446   7.538  0.00  0.00    -0.164 S 
ENDBRANCH  10  12
ENDBRANCH   9  10
ENDBRANCH   1   9
TORSDOF 6
ENDMDL
MODEL 8
REMARK VINA RESULT:      -4.6      4.455      5.072
REMARK  Name = *****
REMARK                            x       y       z     vdW  Elec       q    Type
REMARK                         _______ _______ _______ _____ _____    ______ ____
ROOT
ATOM      1  CA  MET A  1       30.344 -18.306   8.518  0.00  0.00    +0.161 C 
ENDROOT
BRANCH   1   2
ATOM      2  N   MET A  1       29.109 -19.073   8.841  0.00  0.00    -0.318 NA
ATOM      3  H1  MET A  1       28.419 -18.851   8.111  0.00  0.00    +0.119 HD
ATOM      4  H2  MET A  1       28.681 -18.629   9.664  0.00  0.00    +0.119 HD
ENDBRANCH   1   2
BRANCH   1   5
ATOM      5  C   MET A  1       31.491 -19.335   8.397  0.00  0.00    +0.322 C 
ATOM      6  O   MET A  1       32.069 -19.883   9.314  0.00  0.00    -0.249 OA
BRANCH   5   7
ATOM      7  OXT MET A  1       31.813 -19.525   7.083  0.00  0.00    -0.479 OA
ATOM      8  HXT MET A  1       32.537 -20.202   7.082  0.00  0.00    +0.295 HD
ENDBRANCH   5   7
ENDBRANCH   1   5
BRANCH   1   9
ATOM      9  CB  MET A  1       30.666 -17.196   9.531  0.00  0.00    +0.040 C 
BRANCH   9  10
ATOM     10  CG  MET A  1       32.012 -16.483   9.324  0.00  0.00    +0.071 C 
BRANCH  10  12
ATOM     11  CE  MET A  1       31.674 -16.322  12.084  0.00  0.00    +0.084 C 
ATOM     12  SD  MET A  1       33.002 -16.326  10.851  0.00  0.00    -0.164 S 
ENDBRANCH  10  12
ENDBRANCH   9  10
ENDBRANCH   1   9
TORSDOF 6
ENDMDL
MODEL 9
REMARK VINA RESULT:      -4.6      2.902      3.238
REMARK  Name = *****
REMARK                            x       y       z     vdW  Elec       q    Type
REMARK                         _______ _______ _______ _____ _____    ______ ____
ROOT
ATOM      1  CA  MET A  1       31.255 -18.408   8.699  0.00  0.00    +0.161 C 
ENDROOT
BRANCH   1   2
ATOM      2  N   MET A  1       31.953 -19.620   9.208  0.00  0.00    -0.318 NA
ATOM      3  H1  MET A  1       32.231 -19.421  10.179  0.00  0.00    +0.119 HD
ATOM      4  H2  MET A  1       32.869 -19.663   8.741  0.00  0.00    +0.119 HD
ENDBRANCH   1   2
BRANCH   1   5
ATOM      5  C   MET A  1       30.606 -17.719   9.922  0.00  0.00    +0.322 C 
ATOM      6  O   MET A  1       30.154 -16.592   9.960  0.00  0.00    -0.249 OA
BRANCH   5   7
ATOM      7  OXT MET A  1       30.645 -18.552  11.004  0.00  0.00    -0.479 OA
ATOM      8  HXT MET A  1       29.708 -18.618  11.322  0.00  0.00    +0.295 HD
ENDBRANCH   5   7
ENDBRANCH   1   5
BRANCH   1   9
ATOM      9  CB  MET A  1       30.233 -18.701   7.590  0.00  0.00    +0.040 C 
BRANCH   9  10
ATOM     10  CG  MET A  1       29.489 -20.040   7.715  0.00  0.00    +0.071 C 
BRANCH  10  12
ATOM     11  CE  MET A  1       26.737 -20.457   7.593  0.00  0.00    +0.084 C 
ATOM     12  SD  MET A  1       28.155 -20.255   6.484  0.00  0.00    -0.164 S 
ENDBRANCH  10  12
ENDBRANCH   9  10
ENDBRANCH   1   9
TORSDOF 6
ENDMDL
