MODEL 1
REMARK VINA RESULT:      -5.3      0.000      0.000
REMARK  Name = *****
REMARK                            x       y       z     vdW  Elec       q    Type
REMARK                         _______ _______ _______ _____ _____    ______ ____
ROOT
ATOM      1  O   LIG    1       25.018 -16.045   3.194  0.00  0.00    -0.458 OA
ENDROOT
BRANCH   1   3
ATOM      2  C   LIG    1       25.816 -13.848   2.578  0.00  0.00    +0.032 C 
ATOM      3  C   LIG    1       25.774 -14.930   3.693  0.00  0.00    +0.180 C 
ATOM      4  C   LIG    1       27.175 -15.433   4.071  0.00  0.00    +0.048 C 
ATOM      5  C   LIG    1       28.132 -14.304   4.454  0.00  0.00    -0.011 C 
ATOM      6  C   LIG    1       27.757 -13.674   5.798  0.00  0.00    +0.007 C 
ATOM      7  C   LIG    1       28.189 -13.274   3.324  0.00  0.00    +0.004 C 
ATOM      8  C   LIG    1       26.815 -12.731   2.933  0.00  0.00    +0.007 C 
BRANCH   2  10
ATOM      9  C   LIG    1       24.421 -11.827   1.812  0.00  0.00    +0.007 C 
ATOM     10  C   LIG    1       24.391 -13.307   2.216  0.00  0.00    -0.011 C 
ATOM     11  C   LIG    1       23.346 -13.508   3.318  0.00  0.00    +0.007 C 
ENDBRANCH   2  10
ENDBRANCH   1   3
BRANCH   1  12
ATOM     12  C   LIG    1       25.558 -17.287   3.320  0.00  0.00    +0.341 C 
ATOM     13  O   LIG    1       26.690 -17.609   3.017  0.00  0.00    -0.245 OA
BRANCH  12  14
ATOM     14  C   LIG    1       24.524 -18.207   3.887  0.00  0.00    +0.080 A 
ATOM     15  C   LIG    1       24.855 -19.519   4.288  0.00  0.00    +0.039 A 
ATOM     16  C   LIG    1       23.815 -20.364   4.706  0.00  0.00    +0.023 A 
ATOM     17  C   LIG    1       22.499 -19.904   4.806  0.00  0.00    +0.002 A 
ATOM     18  C   LIG    1       22.193 -18.591   4.479  0.00  0.00    +0.001 A 
ATOM     19  C   LIG    1       23.200 -17.746   4.027  0.00  0.00    +0.017 A 
BRANCH  15  20
ATOM     20  N   LIG    1       26.121 -20.093   4.075  0.00  0.00    -0.357 N 
ATOM     21  H   LIG    1       26.599 -19.714   3.253  0.00  0.00    +0.142 HD
ATOM     22  H   LIG    1       26.718 -20.116   4.896  0.00  0.00    +0.142 HD
ENDBRANCH  15  20
ENDBRANCH  12  14
ENDBRANCH   1  12
TORSDOF 5
ENDMDL
MODEL 2
REMARK VINA RESULT:      -5.1      1.425      2.548
REMARK  Name = *****
REMARK                            x       y       z     vdW  Elec       q    Type
REMARK                         _______ _______ _______ _____ _____    ______ ____
ROOT
ATOM      1  O   LIG    1       25.271 -16.895   3.185  0.00  0.00    -0.458 OA
ENDROOT
BRANCH   1   3
ATOM      2  C   LIG    1       23.932 -15.005   3.877  0.00  0.00    +0.032 C 
ATOM      3  C   LIG    1       25.374 -15.556   3.697  0.00  0.00    +0.180 C 
ATOM      4  C   LIG    1       26.196 -14.726   2.700  0.00  0.00    +0.048 C 
ATOM      5  C   LIG    1       26.230 -13.237   3.049  0.00  0.00    -0.011 C 
ATOM      6  C   LIG    1       27.068 -12.967   4.301  0.00  0.00    +0.007 C 
ATOM      7  C   LIG    1       24.799 -12.708   3.179  0.00  0.00    +0.004 C 
ATOM      8  C   LIG    1       23.955 -13.496   4.180  0.00  0.00    +0.007 C 
BRANCH   2  10
ATOM      9  C   LIG    1       22.140 -16.815   4.244  0.00  0.00    +0.007 C 
ATOM     10  C   LIG    1       23.103 -15.829   4.920  0.00  0.00    -0.011 C 
ATOM     11  C   LIG    1       22.324 -14.969   5.921  0.00  0.00    +0.007 C 
ENDBRANCH   2  10
ENDBRANCH   1   3
BRANCH   1  12
ATOM     12  C   LIG    1       26.180 -17.811   3.612  0.00  0.00    +0.341 C 
ATOM     13  O   LIG    1       27.385 -17.658   3.653  0.00  0.00    -0.245 OA
BRANCH  12  14
ATOM     14  C   LIG    1       25.456 -19.055   4.021  0.00  0.00    +0.080 A 
ATOM     15  C   LIG    1       26.071 -20.017   4.850  0.00  0.00    +0.039 A 
ATOM     16  C   LIG    1       25.375 -21.211   5.102  0.00  0.00    +0.023 A 
ATOM     17  C   LIG    1       24.080 -21.415   4.619  0.00  0.00    +0.002 A 
ATOM     18  C   LIG    1       23.455 -20.433   3.864  0.00  0.00    +0.001 A 
ATOM     19  C   LIG    1       24.137 -19.258   3.571  0.00  0.00    +0.017 A 
BRANCH  15  20
ATOM     20  N   LIG    1       27.418 -19.947   5.246  0.00  0.00    -0.357 N 
ATOM     21  H   LIG    1       27.983 -19.350   4.636  0.00  0.00    +0.142 HD
ATOM     22  H   LIG    1       27.560 -19.743   6.230  0.00  0.00    +0.142 HD
ENDBRANCH  15  20
ENDBRANCH  12  14
ENDBRANCH   1  12
TORSDOF 5
ENDMDL
MODEL 3
REMARK VINA RESULT:      -5.0      2.210      6.223
REMARK  Name = *****
REMARK                            x       y       z     vdW  Elec       q    Type
REMARK                         _______ _______ _______ _____ _____    ______ ____
ROOT
ATOM      1  O   LIG    1       26.425 -17.777   3.288  0.00  0.00    -0.458 OA
ENDROOT
BRANCH   1   3
ATOM      2  C   LIG    1       26.139 -19.768   4.629  0.00  0.00    +0.032 C 
ATOM      3  C   LIG    1       25.447 -18.502   4.052  0.00  0.00    +0.180 C 
ATOM      4  C   LIG    1       24.276 -18.848   3.121  0.00  0.00    +0.048 C 
ATOM      5  C   LIG    1       23.247 -19.772   3.775  0.00  0.00    -0.011 C 
ATOM      6  C   LIG    1       22.451 -19.051   4.866  0.00  0.00    +0.007 C 
ATOM      7  C   LIG    1       23.944 -21.030   4.297  0.00  0.00    +0.004 C 
ATOM      8  C   LIG    1       25.103 -20.726   5.245  0.00  0.00    +0.007 C 
BRANCH   2  10
ATOM      9  C   LIG    1       28.684 -19.744   5.005  0.00  0.00    +0.007 C 
ATOM     10  C   LIG    1       27.311 -19.417   5.607  0.00  0.00    -0.011 C 
ATOM     11  C   LIG    1       27.194 -20.075   6.986  0.00  0.00    +0.007 C 
ENDBRANCH   2  10
ENDBRANCH   1   3
BRANCH   1  12
ATOM     12  C   LIG    1       26.905 -16.615   3.808  0.00  0.00    +0.341 C 
ATOM     13  O   LIG    1       27.967 -16.473   4.382  0.00  0.00    -0.245 OA
BRANCH  12  14
ATOM     14  C   LIG    1       25.903 -15.531   3.570  0.00  0.00    +0.080 A 
ATOM     15  C   LIG    1       26.241 -14.375   2.833  0.00  0.00    +0.039 A 
ATOM     16  C   LIG    1       25.288 -13.348   2.742  0.00  0.00    +0.023 A 
ATOM     17  C   LIG    1       24.011 -13.490   3.292  0.00  0.00    +0.002 A 
ATOM     18  C   LIG    1       23.662 -14.659   3.953  0.00  0.00    +0.001 A 
ATOM     19  C   LIG    1       24.601 -15.675   4.086  0.00  0.00    +0.017 A 
BRANCH  15  20
ATOM     20  N   LIG    1       27.545 -14.101   2.383  0.00  0.00    -0.357 N 
ATOM     21  H   LIG    1       28.193 -13.884   3.146  0.00  0.00    +0.142 HD
ATOM     22  H   LIG    1       27.922 -14.786   1.736  0.00  0.00    +0.142 HD
ENDBRANCH  15  20
ENDBRANCH  12  14
ENDBRANCH   1  12
TORSDOF 5
ENDMDL
MODEL 4
REMARK VINA RESULT:      -4.5      2.179      4.054
REMARK  Name = *****
REMARK                            x       y       z     vdW  Elec       q    Type
REMARK                         _______ _______ _______ _____ _____    ______ ____
ROOT
ATOM      1  O   LIG    1       27.367 -16.027   3.636  0.00  0.00    -0.458 OA
ENDROOT
BRANCH   1   3
ATOM      2  C   LIG    1       26.907 -13.913   4.716  0.00  0.00    +0.032 C 
ATOM      3  C   LIG    1       26.489 -14.890   3.582  0.00  0.00    +0.180 C 
ATOM      4  C   LIG    1       25.047 -15.393   3.745  0.00  0.00    +0.048 C 
ATOM      5  C   LIG    1       24.032 -14.257   3.878  0.00  0.00    -0.011 C 
ATOM      6  C   LIG    1       23.851 -13.502   2.558  0.00  0.00    +0.007 C 
ATOM      7  C   LIG    1       24.441 -13.333   5.027  0.00  0.00    +0.004 C 
ATOM      8  C   LIG    1       25.864 -12.794   4.889  0.00  0.00    +0.007 C 
BRANCH   2  10
ATOM      9  C   LIG    1       28.667 -12.193   5.466  0.00  0.00    +0.007 C 
ATOM     10  C   LIG    1       28.365 -13.372   4.532  0.00  0.00    -0.011 C 
ATOM     11  C   LIG    1       28.709 -12.975   3.092  0.00  0.00    +0.007 C 
ENDBRANCH   2  10
ENDBRANCH   1   3
BRANCH   1  12
ATOM     12  C   LIG    1       26.809 -17.265   3.579  0.00  0.00    +0.341 C 
ATOM     13  O   LIG    1       25.850 -17.588   2.905  0.00  0.00    -0.245 OA
BRANCH  12  14
ATOM     14  C   LIG    1       27.562 -18.176   4.496  0.00  0.00    +0.080 A 
ATOM     15  C   LIG    1       27.079 -19.467   4.801  0.00  0.00    +0.039 A 
ATOM     16  C   LIG    1       27.778 -20.224   5.754  0.00  0.00    +0.023 A 
ATOM     17  C   LIG    1       28.963 -19.758   6.328  0.00  0.00    +0.002 A 
ATOM     18  C   LIG    1       29.472 -18.518   5.968  0.00  0.00    +0.001 A 
ATOM     19  C   LIG    1       28.778 -17.734   5.054  0.00  0.00    +0.017 A 
BRANCH  15  20
ATOM     20  N   LIG    1       25.823 -19.939   4.381  0.00  0.00    -0.357 N 
ATOM     21  H   LIG    1       25.808 -20.212   3.394  0.00  0.00    +0.142 HD
ATOM     22  H   LIG    1       25.412 -20.644   4.985  0.00  0.00    +0.142 HD
ENDBRANCH  15  20
ENDBRANCH  12  14
ENDBRANCH   1  12
TORSDOF 5
ENDMDL
MODEL 5
REMARK VINA RESULT:      -4.3      1.418      1.984
REMARK  Name = *****
REMARK                            x       y       z     vdW  Elec       q    Type
REMARK                         _______ _______ _______ _____ _____    ______ ____
ROOT
ATOM      1  O   LIG    1       24.909 -15.696   3.174  0.00  0.00    -0.458 OA
ENDROOT
BRANCH   1   3
ATOM      2  C   LIG    1       25.727 -13.453   2.793  0.00  0.00    +0.032 C 
ATOM      3  C   LIG    1       25.761 -14.685   3.739  0.00  0.00    +0.180 C 
ATOM      4  C   LIG    1       27.172 -15.275   3.883  0.00  0.00    +0.048 C 
ATOM      5  C   LIG    1       28.210 -14.238   4.313  0.00  0.00    -0.011 C 
ATOM      6  C   LIG    1       28.008 -13.803   5.767  0.00  0.00    +0.007 C 
ATOM      7  C   LIG    1       28.189 -13.055   3.342  0.00  0.00    +0.004 C 
ATOM      8  C   LIG    1       26.804 -12.427   3.190  0.00  0.00    +0.007 C 
BRANCH   2  10
ATOM      9  C   LIG    1       24.289 -11.559   1.812  0.00  0.00    +0.007 C 
ATOM     10  C   LIG    1       24.296 -12.829   2.674  0.00  0.00    -0.011 C 
ATOM     11  C   LIG    1       23.630 -12.528   4.020  0.00  0.00    +0.007 C 
ENDBRANCH   2  10
ENDBRANCH   1   3
BRANCH   1  12
ATOM     12  C   LIG    1       23.954 -16.242   3.973  0.00  0.00    +0.341 C 
ATOM     13  O   LIG    1       23.152 -15.630   4.650  0.00  0.00    -0.245 OA
BRANCH  12  14
ATOM     14  C   LIG    1       24.052 -17.732   3.892  0.00  0.00    +0.080 A 
ATOM     15  C   LIG    1       22.917 -18.550   4.081  0.00  0.00    +0.039 A 
ATOM     16  C   LIG    1       23.103 -19.942   4.102  0.00  0.00    +0.023 A 
ATOM     17  C   LIG    1       24.356 -20.513   3.863  0.00  0.00    +0.002 A 
ATOM     18  C   LIG    1       25.453 -19.704   3.606  0.00  0.00    +0.001 A 
ATOM     19  C   LIG    1       25.301 -18.322   3.615  0.00  0.00    +0.017 A 
BRANCH  15  20
ATOM     20  N   LIG    1       21.663 -18.050   4.473  0.00  0.00    -0.357 N 
ATOM     21  H   LIG    1       20.933 -18.768   4.488  0.00  0.00    +0.142 HD
ATOM     22  H   LIG    1       21.677 -17.492   5.321  0.00  0.00    +0.142 HD
ENDBRANCH  15  20
ENDBRANCH  12  14
ENDBRANCH   1  12
TORSDOF 5
ENDMDL
MODEL 6
REMARK VINA RESULT:      -4.2      2.347      4.687
REMARK  Name = *****
REMARK                            x       y       z     vdW  Elec       q    Type
REMARK                         _______ _______ _______ _____ _____    ______ ____
ROOT
ATOM      1  O   LIG    1       25.480 -18.337   3.575  0.00  0.00    -0.458 OA
ENDROOT
BRANCH   1   3
ATOM      2  C   LIG    1       24.405 -16.253   4.166  0.00  0.00    +0.032 C 
ATOM      3  C   LIG    1       24.203 -17.677   3.577  0.00  0.00    +0.180 C 
ATOM      4  C   LIG    1       23.230 -18.523   4.412  0.00  0.00    +0.048 C 
ATOM      5  C   LIG    1       21.882 -17.837   4.633  0.00  0.00    -0.011 C 
ATOM      6  C   LIG    1       21.061 -17.772   3.342  0.00  0.00    +0.007 C 
ATOM      7  C   LIG    1       22.104 -16.455   5.253  0.00  0.00    +0.004 C 
ATOM      8  C   LIG    1       23.050 -15.574   4.437  0.00  0.00    +0.007 C 
BRANCH   2  10
ATOM      9  C   LIG    1       26.840 -15.576   3.684  0.00  0.00    +0.007 C 
ATOM     10  C   LIG    1       25.369 -15.377   3.296  0.00  0.00    -0.011 C 
ATOM     11  C   LIG    1       25.041 -13.880   3.312  0.00  0.00    +0.007 C 
ENDBRANCH   2  10
ENDBRANCH   1   3
BRANCH   1  12
ATOM     12  C   LIG    1       25.504 -19.679   3.791  0.00  0.00    +0.341 C 
ATOM     13  O   LIG    1       24.866 -20.513   3.178  0.00  0.00    -0.245 OA
BRANCH  12  14
ATOM     14  C   LIG    1       26.440 -19.969   4.921  0.00  0.00    +0.080 A 
ATOM     15  C   LIG    1       26.062 -20.822   5.980  0.00  0.00    +0.039 A 
ATOM     16  C   LIG    1       26.947 -20.962   7.062  0.00  0.00    +0.023 A 
ATOM     17  C   LIG    1       28.200 -20.344   7.062  0.00  0.00    +0.002 A 
ATOM     18  C   LIG    1       28.594 -19.565   5.983  0.00  0.00    +0.001 A 
ATOM     19  C   LIG    1       27.721 -19.383   4.917  0.00  0.00    +0.017 A 
BRANCH  15  20
ATOM     20  N   LIG    1       24.768 -21.353   6.119  0.00  0.00    -0.357 N 
ATOM     21  H   LIG    1       24.094 -20.940   5.467  0.00  0.00    +0.142 HD
ATOM     22  H   LIG    1       24.726 -22.367   6.131  0.00  0.00    +0.142 HD
ENDBRANCH  15  20
ENDBRANCH  12  14
ENDBRANCH   1  12
TORSDOF 5
ENDMDL
MODEL 7
REMARK VINA RESULT:      -4.1      2.430      5.779
REMARK  Name = *****
REMARK                            x       y       z     vdW  Elec       q    Type
REMARK                         _______ _______ _______ _____ _____    ______ ____
ROOT
ATOM      1  O   LIG    1       26.295 -17.631   3.330  0.00  0.00    -0.458 OA
ENDROOT
BRANCH   1   3
ATOM      2  C   LIG    1       25.366 -19.397   4.694  0.00  0.00    +0.032 C 
ATOM      3  C   LIG    1       26.659 -18.816   4.058  0.00  0.00    +0.180 C 
ATOM      4  C   LIG    1       27.705 -18.426   5.113  0.00  0.00    +0.048 C 
ATOM      5  C   LIG    1       28.044 -19.570   6.068  0.00  0.00    -0.011 C 
ATOM      6  C   LIG    1       28.841 -20.675   5.369  0.00  0.00    +0.007 C 
ATOM      7  C   LIG    1       26.761 -20.098   6.714  0.00  0.00    +0.004 C 
ATOM      8  C   LIG    1       25.702 -20.517   5.695  0.00  0.00    +0.007 C 
BRANCH   2  10
ATOM      9  C   LIG    1       22.972 -19.102   3.798  0.00  0.00    +0.007 C 
ATOM     10  C   LIG    1       24.312 -19.829   3.619  0.00  0.00    -0.011 C 
ATOM     11  C   LIG    1       24.061 -21.339   3.559  0.00  0.00    +0.007 C 
ENDBRANCH   2  10
ENDBRANCH   1   3
BRANCH   1  12
ATOM     12  C   LIG    1       26.884 -16.459   3.687  0.00  0.00    +0.341 C 
ATOM     13  O   LIG    1       28.025 -16.323   4.085  0.00  0.00    -0.245 OA
BRANCH  12  14
ATOM     14  C   LIG    1       25.892 -15.351   3.522  0.00  0.00    +0.080 A 
ATOM     15  C   LIG    1       26.238 -14.156   2.854  0.00  0.00    +0.039 A 
ATOM     16  C   LIG    1       25.295 -13.116   2.833  0.00  0.00    +0.023 A 
ATOM     17  C   LIG    1       24.021 -13.277   3.381  0.00  0.00    +0.002 A 
ATOM     18  C   LIG    1       23.663 -14.481   3.972  0.00  0.00    +0.001 A 
ATOM     19  C   LIG    1       24.592 -15.513   4.038  0.00  0.00    +0.017 A 
BRANCH  15  20
ATOM     20  N   LIG    1       27.542 -13.869   2.413  0.00  0.00    -0.357 N 
ATOM     21  H   LIG    1       28.178 -14.667   2.499  0.00  0.00    +0.142 HD
ATOM     22  H   LIG    1       27.592 -13.428   1.500  0.00  0.00    +0.142 HD
ENDBRANCH  15  20
ENDBRANCH  12  14
ENDBRANCH   1  12
TORSDOF 5
ENDMDL
MODEL 8
REMARK VINA RESULT:      -4.0      2.227      6.690
REMARK  Name = *****
REMARK                            x       y       z     vdW  Elec       q    Type
REMARK                         _______ _______ _______ _____ _____    ______ ____
ROOT
ATOM      1  O   LIG    1       25.373 -17.515   3.710  0.00  0.00    -0.458 OA
ENDROOT
BRANCH   1   3
ATOM      2  C   LIG    1       25.938 -19.728   4.502  0.00  0.00    +0.032 C 
ATOM      3  C   LIG    1       24.798 -18.691   4.303  0.00  0.00    +0.180 C 
ATOM      4  C   LIG    1       23.695 -19.207   3.366  0.00  0.00    +0.048 C 
ATOM      5  C   LIG    1       23.124 -20.556   3.805  0.00  0.00    -0.011 C 
ATOM      6  C   LIG    1       22.285 -20.430   5.079  0.00  0.00    +0.007 C 
ATOM      7  C   LIG    1       24.260 -21.571   3.953  0.00  0.00    +0.004 C 
ATOM      8  C   LIG    1       25.367 -21.102   4.896  0.00  0.00    +0.007 C 
BRANCH   2  10
ATOM      9  C   LIG    1       28.301 -18.739   4.744  0.00  0.00    +0.007 C 
ATOM     10  C   LIG    1       27.046 -19.217   5.485  0.00  0.00    -0.011 C 
ATOM     11  C   LIG    1       27.450 -20.236   6.556  0.00  0.00    +0.007 C 
ENDBRANCH   2  10
ENDBRANCH   1   3
BRANCH   1  12
ATOM     12  C   LIG    1       24.692 -16.344   3.831  0.00  0.00    +0.341 C 
ATOM     13  O   LIG    1       23.508 -16.227   4.078  0.00  0.00    -0.245 OA
BRANCH  12  14
ATOM     14  C   LIG    1       25.640 -15.209   3.600  0.00  0.00    +0.080 A 
ATOM     15  C   LIG    1       25.173 -13.938   3.205  0.00  0.00    +0.039 A 
ATOM     16  C   LIG    1       26.124 -12.952   2.898  0.00  0.00    +0.023 A 
ATOM     17  C   LIG    1       27.493 -13.186   3.054  0.00  0.00    +0.002 A 
ATOM     18  C   LIG    1       27.941 -14.417   3.512  0.00  0.00    +0.001 A 
ATOM     19  C   LIG    1       27.020 -15.421   3.788  0.00  0.00    +0.017 A 
BRANCH  15  20
ATOM     20  N   LIG    1       23.829 -13.675   2.884  0.00  0.00    -0.357 N 
ATOM     21  H   LIG    1       23.681 -12.724   2.533  0.00  0.00    +0.142 HD
ATOM     22  H   LIG    1       23.388 -14.379   2.300  0.00  0.00    +0.142 HD
ENDBRANCH  15  20
ENDBRANCH  12  14
ENDBRANCH   1  12
TORSDOF 5
ENDMDL
MODEL 9
REMARK VINA RESULT:      -3.9      0.936      2.936
REMARK  Name = *****
REMARK                            x       y       z     vdW  Elec       q    Type
REMARK                         _______ _______ _______ _____ _____    ______ ____
ROOT
ATOM      1  O   LIG    1       25.299 -16.125   4.410  0.00  0.00    -0.458 OA
ENDROOT
BRANCH   1   3
ATOM      2  C   LIG    1       25.852 -13.813   4.848  0.00  0.00    +0.032 C 
ATOM      3  C   LIG    1       25.176 -14.803   3.860  0.00  0.00    +0.180 C 
ATOM      4  C   LIG    1       23.682 -14.504   3.664  0.00  0.00    +0.048 C 
ATOM      5  C   LIG    1       23.412 -13.059   3.245  0.00  0.00    -0.011 C 
ATOM      6  C   LIG    1       23.878 -12.787   1.812  0.00  0.00    +0.007 C 
ATOM      7  C   LIG    1       24.051 -12.103   4.256  0.00  0.00    +0.004 C 
ATOM      8  C   LIG    1       25.544 -12.355   4.462  0.00  0.00    +0.007 C 
BRANCH   2  10
ATOM      9  C   LIG    1       28.128 -12.888   5.612  0.00  0.00    +0.007 C 
ATOM     10  C   LIG    1       27.383 -14.093   5.022  0.00  0.00    -0.011 C 
ATOM     11  C   LIG    1       28.088 -14.541   3.736  0.00  0.00    +0.007 C 
ENDBRANCH   2  10
ENDBRANCH   1   3
BRANCH   1  12
ATOM     12  C   LIG    1       25.382 -17.169   3.543  0.00  0.00    +0.341 C 
ATOM     13  O   LIG    1       26.112 -17.238   2.573  0.00  0.00    -0.245 OA
BRANCH  12  14
ATOM     14  C   LIG    1       24.416 -18.228   3.970  0.00  0.00    +0.080 A 
ATOM     15  C   LIG    1       24.851 -19.541   4.252  0.00  0.00    +0.039 A 
ATOM     16  C   LIG    1       23.877 -20.511   4.539  0.00  0.00    +0.023 A 
ATOM     17  C   LIG    1       22.522 -20.179   4.626  0.00  0.00    +0.002 A 
ATOM     18  C   LIG    1       22.110 -18.871   4.418  0.00  0.00    +0.001 A 
ATOM     19  C   LIG    1       23.052 -17.900   4.097  0.00  0.00    +0.017 A 
BRANCH  15  20
ATOM     20  N   LIG    1       26.170 -19.979   4.039  0.00  0.00    -0.357 N 
ATOM     21  H   LIG    1       26.856 -19.471   4.605  0.00  0.00    +0.142 HD
ATOM     22  H   LIG    1       26.294 -20.986   4.088  0.00  0.00    +0.142 HD
ENDBRANCH  15  20
ENDBRANCH  12  14
ENDBRANCH   1  12
TORSDOF 5
ENDMDL
