MODEL 1
REMARK VINA RESULT:      -1.2      0.000      0.000
REMARK  Name = *****
REMARK                            x       y       z     vdW  Elec       q    Type
REMARK                         _______ _______ _______ _____ _____    ______ ____
ROOT
ATOM      1  C   LIG    1       24.495 -14.491   4.280  0.00  0.00    +0.122 C 
ATOM      2  C   LIG    1       24.586 -15.796   3.970  0.00  0.00    +0.079 C 
ATOM      3  N   LIG    1       25.662 -16.568   3.590  0.00  0.00    -0.267 N 
ATOM      4  C   LIG    1       27.049 -16.157   3.617  0.00  0.00    +0.139 C 
ATOM      5  C   LIG    1       25.373 -17.883   3.206  0.00  0.00    +0.248 C 
ATOM      6  O   LIG    1       26.147 -18.617   2.593  0.00  0.00    -0.273 OA
ATOM      7  C   LIG    1       23.983 -18.330   3.716  0.00  0.00    +0.208 C 
ATOM      8  S   LIG    1       23.124 -16.735   3.988  0.00  0.00    -0.081 S 
ENDROOT
BRANCH   7   9
ATOM      9  N   LIG    1       24.133 -19.132   4.962  0.00  0.00    -0.283 NA
ATOM     10  C   LIG    1       22.890 -19.312   5.729  0.00  0.00    +0.086 C 
ATOM     11  C   LIG    1       21.861 -20.214   5.049  0.00  0.00    +0.015 C 
ATOM     12  C   LIG    1       22.453 -21.572   4.688  0.00  0.00    +0.002 C 
ATOM     13  C   LIG    1       23.804 -21.439   3.991  0.00  0.00    +0.015 C 
ATOM     14  C   LIG    1       24.729 -20.462   4.722  0.00  0.00    +0.086 C 
ENDBRANCH   7   9
BRANCH   1  15
ATOM     15  C   LIG    1       25.516 -13.443   4.239  0.00  0.00    +0.334 C 
ATOM     16  O   LIG    1       26.039 -12.892   5.198  0.00  0.00    -0.245 OA
BRANCH  15  17
ATOM     17  O   LIG    1       25.778 -13.193   2.931  0.00  0.00    -0.462 OA
BRANCH  17  19
ATOM     18  C   LIG    1       24.271 -11.447   2.254  0.00  0.00    +0.048 C 
ATOM     19  C   LIG    1       24.624 -12.917   2.128  0.00  0.00    +0.229 C 
ENDBRANCH  17  19
ENDBRANCH  15  17
ENDBRANCH   1  15
TORSDOF 4
ENDMDL
MODEL 2
REMARK VINA RESULT:      -1.2      2.488      6.828
REMARK  Name = *****
REMARK                            x       y       z     vdW  Elec       q    Type
REMARK                         _______ _______ _______ _____ _____    ______ ____
ROOT
ATOM      1  C   LIG    1       23.572 -18.266   3.964  0.00  0.00    +0.122 C 
ATOM      2  C   LIG    1       24.048 -17.012   3.896  0.00  0.00    +0.079 C 
ATOM      3  N   LIG    1       23.515 -15.811   4.316  0.00  0.00    -0.267 N 
ATOM      4  C   LIG    1       22.335 -15.652   5.136  0.00  0.00    +0.139 C 
ATOM      5  C   LIG    1       24.231 -14.661   3.959  0.00  0.00    +0.248 C 
ATOM      6  O   LIG    1       23.780 -13.518   4.010  0.00  0.00    -0.273 OA
ATOM      7  C   LIG    1       25.688 -14.998   3.566  0.00  0.00    +0.208 C 
ATOM      8  S   LIG    1       25.582 -16.771   3.115  0.00  0.00    -0.081 S 
ENDROOT
BRANCH   7   9
ATOM      9  N   LIG    1       26.596 -14.742   4.719  0.00  0.00    -0.283 NA
ATOM     10  C   LIG    1       28.028 -14.901   4.418  0.00  0.00    +0.086 C 
ATOM     11  C   LIG    1       28.595 -13.827   3.491  0.00  0.00    +0.015 C 
ATOM     12  C   LIG    1       28.327 -12.424   4.023  0.00  0.00    +0.002 C 
ATOM     13  C   LIG    1       26.875 -12.247   4.458  0.00  0.00    +0.015 C 
ATOM     14  C   LIG    1       26.393 -13.412   5.327  0.00  0.00    +0.086 C 
ENDBRANCH   7   9
BRANCH   1  15
ATOM     15  C   LIG    1       22.280 -18.755   4.451  0.00  0.00    +0.334 C 
ATOM     16  O   LIG    1       21.206 -18.690   3.871  0.00  0.00    -0.245 OA
BRANCH  15  17
ATOM     17  O   LIG    1       22.498 -19.298   5.676  0.00  0.00    -0.462 OA
BRANCH  17  19
ATOM     18  C   LIG    1       23.382 -21.052   7.062  0.00  0.00    +0.048 C 
ATOM     19  C   LIG    1       22.951 -20.657   5.662  0.00  0.00    +0.229 C 
ENDBRANCH  17  19
ENDBRANCH  15  17
ENDBRANCH   1  15
TORSDOF 4
ENDMDL
MODEL 3
REMARK VINA RESULT:      -0.8      2.235      6.596
REMARK  Name = *****
REMARK                            x       y       z     vdW  Elec       q    Type
REMARK                         _______ _______ _______ _____ _____    ______ ____
ROOT
ATOM      1  C   LIG    1       22.347 -17.342   4.471  0.00  0.00    +0.122 C 
ATOM      2  C   LIG    1       23.531 -16.773   4.192  0.00  0.00    +0.079 C 
ATOM      3  N   LIG    1       24.717 -17.312   3.741  0.00  0.00    -0.267 N 
ATOM      4  C   LIG    1       24.904 -18.666   3.269  0.00  0.00    +0.139 C 
ATOM      5  C   LIG    1       25.809 -16.438   3.684  0.00  0.00    +0.248 C 
ATOM      6  O   LIG    1       26.981 -16.794   3.569  0.00  0.00    -0.273 OA
ATOM      7  C   LIG    1       25.355 -14.960   3.705  0.00  0.00    +0.208 C 
ATOM      8  S   LIG    1       23.689 -15.063   4.460  0.00  0.00    -0.081 S 
ENDROOT
BRANCH   7   9
ATOM      9  N   LIG    1       25.335 -14.415   2.319  0.00  0.00    -0.283 NA
ATOM     10  C   LIG    1       24.163 -13.582   2.004  0.00  0.00    +0.086 C 
ATOM     11  C   LIG    1       24.137 -12.239   2.733  0.00  0.00    +0.015 C 
ATOM     12  C   LIG    1       25.419 -11.447   2.501  0.00  0.00    +0.002 C 
ATOM     13  C   LIG    1       26.665 -12.304   2.703  0.00  0.00    +0.015 C 
ATOM     14  C   LIG    1       26.554 -13.651   1.983  0.00  0.00    +0.086 C 
ENDBRANCH   7   9
BRANCH   1  15
ATOM     15  C   LIG    1       21.956 -18.754   4.455  0.00  0.00    +0.334 C 
ATOM     16  O   LIG    1       21.297 -19.321   3.595  0.00  0.00    -0.245 OA
BRANCH  15  17
ATOM     17  O   LIG    1       22.464 -19.319   5.579  0.00  0.00    -0.462 OA
BRANCH  17  19
ATOM     18  C   LIG    1       23.333 -21.208   6.785  0.00  0.00    +0.048 C 
ATOM     19  C   LIG    1       22.715 -20.727   5.485  0.00  0.00    +0.229 C 
ENDBRANCH  17  19
ENDBRANCH  15  17
ENDBRANCH   1  15
TORSDOF 4
ENDMDL
MODEL 4
REMARK VINA RESULT:      -0.6      2.409      6.727
REMARK  Name = *****
REMARK                            x       y       z     vdW  Elec       q    Type
REMARK                         _______ _______ _______ _____ _____    ______ ____
ROOT
ATOM      1  C   LIG    1       25.342 -19.967   4.335  0.00  0.00    +0.122 C 
ATOM      2  C   LIG    1       24.819 -18.759   4.064  0.00  0.00    +0.079 C 
ATOM      3  N   LIG    1       23.630 -18.175   4.447  0.00  0.00    -0.267 N 
ATOM      4  C   LIG    1       22.711 -18.699   5.434  0.00  0.00    +0.139 C 
ATOM      5  C   LIG    1       23.336 -16.936   3.865  0.00  0.00    +0.248 C 
ATOM      6  O   LIG    1       22.225 -16.407   3.878  0.00  0.00    -0.273 OA
ATOM      7  C   LIG    1       24.600 -16.274   3.269  0.00  0.00    +0.208 C 
ATOM      8  S   LIG    1       25.720 -17.703   3.019  0.00  0.00    -0.081 S 
ENDROOT
BRANCH   7   9
ATOM      9  N   LIG    1       25.143 -15.268   4.223  0.00  0.00    -0.283 NA
ATOM     10  C   LIG    1       26.499 -14.791   3.905  0.00  0.00    +0.086 C 
ATOM     11  C   LIG    1       26.578 -13.922   2.650  0.00  0.00    +0.015 C 
ATOM     12  C   LIG    1       25.613 -12.744   2.719  0.00  0.00    +0.002 C 
ATOM     13  C   LIG    1       24.217 -13.174   3.159  0.00  0.00    +0.015 C 
ATOM     14  C   LIG    1       24.262 -14.093   4.383  0.00  0.00    +0.086 C 
ENDBRANCH   7   9
BRANCH   1  15
ATOM     15  C   LIG    1       24.771 -21.093   5.076  0.00  0.00    +0.334 C 
ATOM     16  O   LIG    1       23.654 -21.571   4.937  0.00  0.00    -0.245 OA
BRANCH  15  17
ATOM     17  O   LIG    1       25.718 -21.511   5.953  0.00  0.00    -0.462 OA
BRANCH  17  19
ATOM     18  C   LIG    1       27.805 -20.749   6.873  0.00  0.00    +0.048 C 
ATOM     19  C   LIG    1       26.320 -20.470   6.733  0.00  0.00    +0.229 C 
ENDBRANCH  17  19
ENDBRANCH  15  17
ENDBRANCH   1  15
TORSDOF 4
ENDMDL
MODEL 5
REMARK VINA RESULT:      -0.5      0.908      1.706
REMARK  Name = *****
REMARK                            x       y       z     vdW  Elec       q    Type
REMARK                         _______ _______ _______ _____ _____    ______ ____
ROOT
ATOM      1  C   LIG    1       24.565 -14.300   4.019  0.00  0.00    +0.122 C 
ATOM      2  C   LIG    1       24.601 -15.625   3.804  0.00  0.00    +0.079 C 
ATOM      3  N   LIG    1       25.647 -16.470   3.499  0.00  0.00    -0.267 N 
ATOM      4  C   LIG    1       27.050 -16.121   3.525  0.00  0.00    +0.139 C 
ATOM      5  C   LIG    1       25.303 -17.795   3.204  0.00  0.00    +0.248 C 
ATOM      6  O   LIG    1       26.053 -18.604   2.659  0.00  0.00    -0.273 OA
ATOM      7  C   LIG    1       23.886 -18.142   3.717  0.00  0.00    +0.208 C 
ATOM      8  S   LIG    1       23.097 -16.494   3.860  0.00  0.00    -0.081 S 
ENDROOT
BRANCH   7   9
ATOM      9  N   LIG    1       23.979 -18.859   5.019  0.00  0.00    -0.283 NA
ATOM     10  C   LIG    1       22.683 -19.235   5.606  0.00  0.00    +0.086 C 
ATOM     11  C   LIG    1       21.945 -20.332   4.840  0.00  0.00    +0.015 C 
ATOM     12  C   LIG    1       22.813 -21.572   4.655  0.00  0.00    +0.002 C 
ATOM     13  C   LIG    1       24.211 -21.220   4.155  0.00  0.00    +0.015 C 
ATOM     14  C   LIG    1       24.828 -20.067   4.951  0.00  0.00    +0.086 C 
ENDBRANCH   7   9
BRANCH   1  15
ATOM     15  C   LIG    1       25.634 -13.303   3.925  0.00  0.00    +0.334 C 
ATOM     16  O   LIG    1       26.088 -12.811   2.902  0.00  0.00    -0.245 OA
BRANCH  15  17
ATOM     17  O   LIG    1       26.031 -13.026   5.193  0.00  0.00    -0.462 OA
BRANCH  17  19
ATOM     18  C   LIG    1       28.353 -12.568   4.772  0.00  0.00    +0.048 C 
ATOM     19  C   LIG    1       27.363 -13.446   5.514  0.00  0.00    +0.229 C 
ENDBRANCH  17  19
ENDBRANCH  15  17
ENDBRANCH   1  15
TORSDOF 4
ENDMDL
MODEL 6
REMARK VINA RESULT:      -0.1      2.115      3.083
REMARK  Name = *****
REMARK                            x       y       z     vdW  Elec       q    Type
REMARK                         _______ _______ _______ _____ _____    ______ ____
ROOT
ATOM      1  C   LIG    1       26.440 -14.488   2.757  0.00  0.00    +0.122 C 
ATOM      2  C   LIG    1       25.515 -15.238   3.379  0.00  0.00    +0.079 C 
ATOM      3  N   LIG    1       24.227 -14.951   3.778  0.00  0.00    -0.267 N 
ATOM      4  C   LIG    1       23.480 -13.762   3.430  0.00  0.00    +0.139 C 
ATOM      5  C   LIG    1       23.581 -15.938   4.533  0.00  0.00    +0.248 C 
ATOM      6  O   LIG    1       22.557 -15.753   5.189  0.00  0.00    -0.273 OA
ATOM      7  C   LIG    1       24.271 -17.313   4.378  0.00  0.00    +0.208 C 
ATOM      8  S   LIG    1       25.960 -16.856   3.833  0.00  0.00    -0.081 S 
ENDROOT
BRANCH   7   9
ATOM      9  N   LIG    1       23.539 -18.139   3.378  0.00  0.00    -0.283 NA
ATOM     10  C   LIG    1       24.287 -19.303   2.878  0.00  0.00    +0.086 C 
ATOM     11  C   LIG    1       24.494 -20.406   3.916  0.00  0.00    +0.015 C 
ATOM     12  C   LIG    1       23.173 -20.858   4.528  0.00  0.00    +0.002 C 
ATOM     13  C   LIG    1       22.309 -19.677   4.958  0.00  0.00    +0.015 C 
ATOM     14  C   LIG    1       22.225 -18.605   3.867  0.00  0.00    +0.086 C 
ENDBRANCH   7   9
BRANCH   1  15
ATOM     15  C   LIG    1       26.395 -13.078   2.363  0.00  0.00    +0.334 C 
ATOM     16  O   LIG    1       25.469 -12.500   1.812  0.00  0.00    -0.245 OA
BRANCH  15  17
ATOM     17  O   LIG    1       27.581 -12.528   2.724  0.00  0.00    -0.462 OA
BRANCH  17  19
ATOM     18  C   LIG    1       28.735 -12.308   4.822  0.00  0.00    +0.048 C 
ATOM     19  C   LIG    1       28.308 -13.259   3.719  0.00  0.00    +0.229 C 
ENDBRANCH  17  19
ENDBRANCH  15  17
ENDBRANCH   1  15
TORSDOF 4
ENDMDL
MODEL 7
REMARK VINA RESULT:       0.0      1.826      2.173
REMARK  Name = *****
REMARK                            x       y       z     vdW  Elec       q    Type
REMARK                         _______ _______ _______ _____ _____    ______ ____
ROOT
ATOM      1  C   LIG    1       26.075 -16.311   3.230  0.00  0.00    +0.122 C 
ATOM      2  C   LIG    1       26.090 -17.585   3.657  0.00  0.00    +0.079 C 
ATOM      3  N   LIG    1       27.015 -18.285   4.402  0.00  0.00    -0.267 N 
ATOM      4  C   LIG    1       28.157 -17.714   5.083  0.00  0.00    +0.139 C 
ATOM      5  C   LIG    1       26.775 -19.656   4.553  0.00  0.00    +0.248 C 
ATOM      6  O   LIG    1       27.611 -20.470   4.945  0.00  0.00    -0.273 OA
ATOM      7  C   LIG    1       25.304 -20.013   4.240  0.00  0.00    +0.208 C 
ATOM      8  S   LIG    1       24.765 -18.609   3.193  0.00  0.00    -0.081 S 
ENDROOT
BRANCH   7   9
ATOM      9  N   LIG    1       24.528 -20.126   5.507  0.00  0.00    -0.283 NA
ATOM     10  C   LIG    1       23.569 -19.035   5.739  0.00  0.00    +0.086 C 
ATOM     11  C   LIG    1       22.374 -19.041   4.786  0.00  0.00    +0.015 C 
ATOM     12  C   LIG    1       21.651 -20.383   4.798  0.00  0.00    +0.002 C 
ATOM     13  C   LIG    1       22.620 -21.555   4.677  0.00  0.00    +0.015 C 
ATOM     14  C   LIG    1       23.811 -21.412   5.629  0.00  0.00    +0.086 C 
ENDBRANCH   7   9
BRANCH   1  15
ATOM     15  C   LIG    1       27.090 -15.264   3.363  0.00  0.00    +0.334 C 
ATOM     16  O   LIG    1       27.918 -15.155   4.256  0.00  0.00    -0.245 OA
BRANCH  15  17
ATOM     17  O   LIG    1       26.941 -14.430   2.303  0.00  0.00    -0.462 OA
BRANCH  17  19
ATOM     18  C   LIG    1       25.011 -12.999   2.231  0.00  0.00    +0.048 C 
ATOM     19  C   LIG    1       26.471 -13.117   2.629  0.00  0.00    +0.229 C 
ENDBRANCH  17  19
ENDBRANCH  15  17
ENDBRANCH   1  15
TORSDOF 4
ENDMDL
MODEL 8
REMARK VINA RESULT:       0.9      2.255      6.702
REMARK  Name = *****
REMARK                            x       y       z     vdW  Elec       q    Type
REMARK                         _______ _______ _______ _____ _____    ______ ____
ROOT
ATOM      1  C   LIG    1       25.374 -20.041   4.456  0.00  0.00    +0.122 C 
ATOM      2  C   LIG    1       24.948 -18.810   4.129  0.00  0.00    +0.079 C 
ATOM      3  N   LIG    1       23.807 -18.119   4.476  0.00  0.00    -0.267 N 
ATOM      4  C   LIG    1       22.844 -18.526   5.476  0.00  0.00    +0.139 C 
ATOM      5  C   LIG    1       23.613 -16.888   3.839  0.00  0.00    +0.248 C 
ATOM      6  O   LIG    1       22.547 -16.274   3.819  0.00  0.00    -0.273 OA
ATOM      7  C   LIG    1       24.928 -16.353   3.226  0.00  0.00    +0.208 C 
ATOM      8  S   LIG    1       25.934 -17.874   3.047  0.00  0.00    -0.081 S 
ENDROOT
BRANCH   7   9
ATOM      9  N   LIG    1       25.544 -15.350   4.139  0.00  0.00    -0.283 NA
ATOM     10  C   LIG    1       26.867 -14.865   3.716  0.00  0.00    +0.086 C 
ATOM     11  C   LIG    1       26.839 -13.986   2.466  0.00  0.00    +0.015 C 
ATOM     12  C   LIG    1       25.878 -12.813   2.622  0.00  0.00    +0.002 C 
ATOM     13  C   LIG    1       24.524 -13.253   3.172  0.00  0.00    +0.015 C 
ATOM     14  C   LIG    1       24.674 -14.181   4.381  0.00  0.00    +0.086 C 
ENDBRANCH   7   9
BRANCH   1  15
ATOM     15  C   LIG    1       24.714 -21.086   5.241  0.00  0.00    +0.334 C 
ATOM     16  O   LIG    1       25.079 -21.536   6.318  0.00  0.00    -0.245 OA
BRANCH  15  17
ATOM     17  O   LIG    1       23.612 -21.468   4.546  0.00  0.00    -0.462 OA
BRANCH  17  19
ATOM     18  C   LIG    1       21.224 -21.211   4.454  0.00  0.00    +0.048 C 
ATOM     19  C   LIG    1       22.413 -21.572   5.324  0.00  0.00    +0.229 C 
ENDBRANCH  17  19
ENDBRANCH  15  17
ENDBRANCH   1  15
TORSDOF 4
ENDMDL
