MODEL 1
REMARK VINA RESULT:      -6.4      0.000      0.000
REMARK  Name = *****
REMARK                            x       y       z     vdW  Elec       q    Type
REMARK                         _______ _______ _______ _____ _____    ______ ____
ROOT
ATOM      1  C   LIG    1       26.229 -17.401   3.248  0.00  0.00    +0.158 C 
ENDROOT
BRANCH   1   2
ATOM      2  C   LIG    1       25.986 -15.942   3.622  0.00  0.00    -0.017 A 
ATOM      3  C   LIG    1       27.081 -15.065   3.747  0.00  0.00    +0.023 A 
ATOM      4  C   LIG    1       26.920 -13.751   4.234  0.00  0.00    +0.078 A 
ATOM      5  C   LIG    1       25.632 -13.296   4.547  0.00  0.00    +0.129 A 
ATOM      6  C   LIG    1       24.531 -14.132   4.377  0.00  0.00    +0.046 A 
ATOM      7  C   LIG    1       24.710 -15.444   3.932  0.00  0.00    +0.010 A 
BRANCH   4   8
ATOM      8  C   LIG    1       28.163 -12.948   4.453  0.00  0.00    +0.245 C 
ATOM      9  O   LIG    1       28.363 -12.335   5.486  0.00  0.00    -0.270 OA
ATOM     10  N   LIG    1       29.067 -12.901   3.428  0.00  0.00    -0.325 N 
ATOM     11  H   LIG    1       29.898 -12.338   3.527  0.00  0.00    +0.145 HD
ATOM     12  H   LIG    1       28.914 -13.438   2.582  0.00  0.00    +0.145 HD
ENDBRANCH   4   8
BRANCH   5  13
ATOM     13  O   LIG    1       25.420 -12.036   5.048  0.00  0.00    -0.506 OA
ATOM     14  H   LIG    1       25.448 -12.072   6.020  0.00  0.00    +0.292 HD
ENDBRANCH   5  13
ENDBRANCH   1   2
BRANCH   1  15
ATOM     15  O   LIG    1       25.037 -18.179   3.435  0.00  0.00    -0.386 OA
ATOM     16  H   LIG    1       24.413 -17.933   2.735  0.00  0.00    +0.210 HD
ENDBRANCH   1  15
BRANCH   1  17
ATOM     17  C   LIG    1       27.389 -18.014   4.090  0.00  0.00    +0.117 C 
BRANCH  17  18
ATOM     18  N   LIG    1       27.040 -19.321   4.675  0.00  0.00    -0.311 NA
ATOM     19  H   LIG    1       26.124 -19.265   5.120  0.00  0.00    +0.122 HD
BRANCH  18  21
ATOM     20  C   LIG    1       29.166 -18.863   5.924  0.00  0.00    +0.024 C 
ATOM     21  C   LIG    1       28.057 -19.872   5.584  0.00  0.00    +0.051 C 
BRANCH  21  22
ATOM     22  C   LIG    1       27.405 -20.345   6.910  0.00  0.00    +0.023 C 
BRANCH  22  23
ATOM     23  C   LIG    1       26.458 -21.551   6.796  0.00  0.00    +0.036 C 
BRANCH  23  24
ATOM     24  C   LIG    1       25.097 -21.239   6.220  0.00  0.00    -0.047 A 
ATOM     25  C   LIG    1       24.115 -20.606   6.995  0.00  0.00    +0.003 A 
ATOM     26  C   LIG    1       22.860 -20.322   6.454  0.00  0.00    +0.000 A 
ATOM     27  C   LIG    1       22.576 -20.658   5.132  0.00  0.00    +0.000 A 
ATOM     28  C   LIG    1       23.545 -21.282   4.351  0.00  0.00    +0.000 A 
ATOM     29  C   LIG    1       24.800 -21.571   4.892  0.00  0.00    +0.003 A 
ENDBRANCH  23  24
ENDBRANCH  22  23
ENDBRANCH  21  22
ENDBRANCH  18  21
ENDBRANCH  17  18
ENDBRANCH   1  17
TORSDOF 10
ENDMDL
MODEL 2
REMARK VINA RESULT:      -5.6      2.027      3.900
REMARK  Name = *****
REMARK                            x       y       z     vdW  Elec       q    Type
REMARK                         _______ _______ _______ _____ _____    ______ ____
ROOT
ATOM      1  C   LIG    1       22.759 -15.971   4.410  0.00  0.00    +0.158 C 
ENDROOT
BRANCH   1   2
ATOM      2  C   LIG    1       23.788 -14.999   3.837  0.00  0.00    -0.017 A 
ATOM      3  C   LIG    1       25.158 -15.317   3.905  0.00  0.00    +0.023 A 
ATOM      4  C   LIG    1       26.149 -14.389   3.525  0.00  0.00    +0.078 A 
ATOM      5  C   LIG    1       25.754 -13.143   3.019  0.00  0.00    +0.129 A 
ATOM      6  C   LIG    1       24.402 -12.832   2.894  0.00  0.00    +0.046 A 
ATOM      7  C   LIG    1       23.432 -13.747   3.311  0.00  0.00    +0.010 A 
BRANCH   4   8
ATOM      8  C   LIG    1       27.574 -14.778   3.761  0.00  0.00    +0.245 C 
ATOM      9  O   LIG    1       27.891 -15.910   4.078  0.00  0.00    -0.270 OA
ATOM     10  N   LIG    1       28.519 -13.799   3.635  0.00  0.00    -0.325 N 
ATOM     11  H   LIG    1       29.486 -14.017   3.825  0.00  0.00    +0.145 HD
ATOM     12  H   LIG    1       28.258 -12.865   3.339  0.00  0.00    +0.145 HD
ENDBRANCH   4   8
BRANCH   5  13
ATOM     13  O   LIG    1       26.675 -12.192   2.658  0.00  0.00    -0.506 OA
ATOM     14  H   LIG    1       27.066 -11.807   3.462  0.00  0.00    +0.292 HD
ENDBRANCH   5  13
ENDBRANCH   1   2
BRANCH   1  15
ATOM     15  O   LIG    1       22.370 -15.576   5.734  0.00  0.00    -0.386 OA
ATOM     16  H   LIG    1       23.020 -14.930   6.052  0.00  0.00    +0.210 HD
ENDBRANCH   1  15
BRANCH   1  17
ATOM     17  C   LIG    1       23.315 -17.427   4.442  0.00  0.00    +0.117 C 
BRANCH  17  18
ATOM     18  N   LIG    1       22.249 -18.444   4.435  0.00  0.00    -0.311 NA
ATOM     19  H   LIG    1       21.373 -18.027   4.752  0.00  0.00    +0.122 HD
BRANCH  18  21
ATOM     20  C   LIG    1       21.678 -20.860   4.796  0.00  0.00    +0.024 C 
ATOM     21  C   LIG    1       22.572 -19.670   5.182  0.00  0.00    +0.051 C 
BRANCH  21  22
ATOM     22  C   LIG    1       24.051 -20.076   4.950  0.00  0.00    +0.023 C 
BRANCH  22  23
ATOM     23  C   LIG    1       24.760 -20.733   6.145  0.00  0.00    +0.036 C 
BRANCH  23  24
ATOM     24  C   LIG    1       26.263 -20.583   6.153  0.00  0.00    -0.047 A 
ATOM     25  C   LIG    1       26.903 -19.692   5.281  0.00  0.00    +0.003 A 
ATOM     26  C   LIG    1       28.292 -19.560   5.295  0.00  0.00    +0.000 A 
ATOM     27  C   LIG    1       29.057 -20.310   6.187  0.00  0.00    +0.000 A 
ATOM     28  C   LIG    1       28.432 -21.195   7.062  0.00  0.00    +0.000 A 
ATOM     29  C   LIG    1       27.042 -21.331   7.046  0.00  0.00    +0.003 A 
ENDBRANCH  23  24
ENDBRANCH  22  23
ENDBRANCH  21  22
ENDBRANCH  18  21
ENDBRANCH  17  18
ENDBRANCH   1  17
TORSDOF 10
ENDMDL
MODEL 3
REMARK VINA RESULT:      -5.3      1.510      3.314
REMARK  Name = *****
REMARK                            x       y       z     vdW  Elec       q    Type
REMARK                         _______ _______ _______ _____ _____    ______ ____
ROOT
ATOM      1  C   LIG    1       25.198 -17.984   3.687  0.00  0.00    +0.158 C 
ENDROOT
BRANCH   1   2
ATOM      2  C   LIG    1       24.910 -16.485   3.685  0.00  0.00    -0.017 A 
ATOM      3  C   LIG    1       25.934 -15.580   3.344  0.00  0.00    +0.023 A 
ATOM      4  C   LIG    1       25.759 -14.187   3.472  0.00  0.00    +0.078 A 
ATOM      5  C   LIG    1       24.517 -13.695   3.897  0.00  0.00    +0.129 A 
ATOM      6  C   LIG    1       23.475 -14.574   4.186  0.00  0.00    +0.046 A 
ATOM      7  C   LIG    1       23.676 -15.952   4.093  0.00  0.00    +0.010 A 
BRANCH   4   8
ATOM      8  C   LIG    1       26.952 -13.323   3.210  0.00  0.00    +0.245 C 
ATOM      9  O   LIG    1       26.871 -12.282   2.584  0.00  0.00    -0.270 OA
ATOM     10  N   LIG    1       28.158 -13.762   3.680  0.00  0.00    -0.325 N 
ATOM     11  H   LIG    1       28.989 -13.224   3.488  0.00  0.00    +0.145 HD
ATOM     12  H   LIG    1       28.218 -14.612   4.228  0.00  0.00    +0.145 HD
ENDBRANCH   4   8
BRANCH   5  13
ATOM     13  O   LIG    1       24.298 -12.351   4.063  0.00  0.00    -0.506 OA
ATOM     14  H   LIG    1       23.401 -12.217   4.416  0.00  0.00    +0.292 HD
ENDBRANCH   5  13
ENDBRANCH   1   2
BRANCH   1  15
ATOM     15  O   LIG    1       26.105 -18.329   2.629  0.00  0.00    -0.386 OA
ATOM     16  H   LIG    1       25.637 -18.925   2.025  0.00  0.00    +0.210 HD
ENDBRANCH   1  15
BRANCH   1  17
ATOM     17  C   LIG    1       23.885 -18.811   3.540  0.00  0.00    +0.117 C 
BRANCH  17  18
ATOM     18  N   LIG    1       23.230 -19.075   4.834  0.00  0.00    -0.311 NA
ATOM     19  H   LIG    1       23.569 -18.414   5.533  0.00  0.00    +0.122 HD
BRANCH  18  21
ATOM     20  C   LIG    1       24.092 -21.371   4.309  0.00  0.00    +0.024 C 
ATOM     21  C   LIG    1       23.340 -20.466   5.299  0.00  0.00    +0.051 C 
BRANCH  21  22
ATOM     22  C   LIG    1       24.068 -20.528   6.667  0.00  0.00    +0.023 C 
BRANCH  22  23
ATOM     23  C   LIG    1       25.231 -21.528   6.761  0.00  0.00    +0.036 C 
BRANCH  23  24
ATOM     24  C   LIG    1       26.603 -20.929   6.568  0.00  0.00    -0.047 A 
ATOM     25  C   LIG    1       27.746 -21.571   7.062  0.00  0.00    +0.003 A 
ATOM     26  C   LIG    1       29.011 -21.009   6.878  0.00  0.00    +0.000 A 
ATOM     27  C   LIG    1       29.148 -19.804   6.191  0.00  0.00    +0.000 A 
ATOM     28  C   LIG    1       28.019 -19.159   5.692  0.00  0.00    +0.000 A 
ATOM     29  C   LIG    1       26.753 -19.718   5.878  0.00  0.00    +0.003 A 
ENDBRANCH  23  24
ENDBRANCH  22  23
ENDBRANCH  21  22
ENDBRANCH  18  21
ENDBRANCH  17  18
ENDBRANCH   1  17
TORSDOF 10
ENDMDL
MODEL 4
REMARK VINA RESULT:      -4.8      1.600      2.533
REMARK  Name = *****
REMARK                            x       y       z     vdW  Elec       q    Type
REMARK                         _______ _______ _______ _____ _____    ______ ____
ROOT
ATOM      1  C   LIG    1       26.177 -18.113   3.362  0.00  0.00    +0.158 C 
ENDROOT
BRANCH   1   2
ATOM      2  C   LIG    1       26.438 -16.628   3.598  0.00  0.00    -0.017 A 
ATOM      3  C   LIG    1       25.433 -15.689   3.297  0.00  0.00    +0.023 A 
ATOM      4  C   LIG    1       25.680 -14.302   3.357  0.00  0.00    +0.078 A 
ATOM      5  C   LIG    1       26.939 -13.854   3.779  0.00  0.00    +0.129 A 
ATOM      6  C   LIG    1       27.928 -14.769   4.133  0.00  0.00    +0.046 A 
ATOM      7  C   LIG    1       27.682 -16.140   4.030  0.00  0.00    +0.010 A 
BRANCH   4   8
ATOM      8  C   LIG    1       24.586 -13.394   2.891  0.00  0.00    +0.245 C 
ATOM      9  O   LIG    1       23.441 -13.502   3.292  0.00  0.00    -0.270 OA
ATOM     10  N   LIG    1       24.914 -12.444   1.964  0.00  0.00    -0.325 N 
ATOM     11  H   LIG    1       24.193 -11.840   1.599  0.00  0.00    +0.145 HD
ATOM     12  H   LIG    1       25.873 -12.334   1.656  0.00  0.00    +0.145 HD
ENDBRANCH   4   8
BRANCH   5  13
ATOM     13  O   LIG    1       27.243 -12.516   3.832  0.00  0.00    -0.506 OA
ATOM     14  H   LIG    1       27.576 -12.302   4.721  0.00  0.00    +0.292 HD
ENDBRANCH   5  13
ENDBRANCH   1   2
BRANCH   1  15
ATOM     15  O   LIG    1       24.767 -18.383   3.335  0.00  0.00    -0.386 OA
ATOM     16  H   LIG    1       24.653 -19.332   3.173  0.00  0.00    +0.210 HD
ENDBRANCH   1  15
BRANCH   1  17
ATOM     17  C   LIG    1       26.854 -18.987   4.461  0.00  0.00    +0.117 C 
BRANCH  17  18
ATOM     18  N   LIG    1       26.146 -20.259   4.695  0.00  0.00    -0.311 NA
ATOM     19  H   LIG    1       25.145 -20.126   4.555  0.00  0.00    +0.122 HD
BRANCH  18  21
ATOM     20  C   LIG    1       27.849 -20.565   6.511  0.00  0.00    +0.024 C 
ATOM     21  C   LIG    1       26.437 -20.888   5.993  0.00  0.00    +0.051 C 
BRANCH  21  22
ATOM     22  C   LIG    1       25.409 -20.434   7.062  0.00  0.00    +0.023 C 
BRANCH  22  23
ATOM     23  C   LIG    1       24.066 -21.180   7.057  0.00  0.00    +0.036 C 
BRANCH  23  24
ATOM     24  C   LIG    1       23.062 -20.676   6.047  0.00  0.00    -0.047 A 
ATOM     25  C   LIG    1       22.988 -19.315   5.722  0.00  0.00    +0.003 A 
ATOM     26  C   LIG    1       22.057 -18.859   4.787  0.00  0.00    +0.000 A 
ATOM     27  C   LIG    1       21.197 -19.759   4.160  0.00  0.00    +0.000 A 
ATOM     28  C   LIG    1       21.265 -21.115   4.471  0.00  0.00    +0.000 A 
ATOM     29  C   LIG    1       22.193 -21.572   5.409  0.00  0.00    +0.003 A 
ENDBRANCH  23  24
ENDBRANCH  22  23
ENDBRANCH  21  22
ENDBRANCH  18  21
ENDBRANCH  17  18
ENDBRANCH   1  17
TORSDOF 10
ENDMDL
MODEL 5
REMARK VINA RESULT:      -4.6      2.054      3.727
REMARK  Name = *****
REMARK                            x       y       z     vdW  Elec       q    Type
REMARK                         _______ _______ _______ _____ _____    ______ ____
ROOT
ATOM      1  C   LIG    1       23.047 -15.678   4.273  0.00  0.00    +0.158 C 
ENDROOT
BRANCH   1   2
ATOM      2  C   LIG    1       23.994 -14.661   3.643  0.00  0.00    -0.017 A 
ATOM      3  C   LIG    1       25.385 -14.828   3.783  0.00  0.00    +0.023 A 
ATOM      4  C   LIG    1       26.293 -13.840   3.348  0.00  0.00    +0.078 A 
ATOM      5  C   LIG    1       25.796 -12.693   2.714  0.00  0.00    +0.129 A 
ATOM      6  C   LIG    1       24.425 -12.538   2.518  0.00  0.00    +0.046 A 
ATOM      7  C   LIG    1       23.537 -13.506   2.990  0.00  0.00    +0.010 A 
BRANCH   4   8
ATOM      8  C   LIG    1       27.740 -14.056   3.664  0.00  0.00    +0.245 C 
ATOM      9  O   LIG    1       28.143 -15.086   4.174  0.00  0.00    -0.270 OA
ATOM     10  N   LIG    1       28.601 -13.032   3.384  0.00  0.00    -0.325 N 
ATOM     11  H   LIG    1       29.577 -13.129   3.620  0.00  0.00    +0.145 HD
ATOM     12  H   LIG    1       28.268 -12.189   2.930  0.00  0.00    +0.145 HD
ENDBRANCH   4   8
BRANCH   5  13
ATOM     13  O   LIG    1       26.630 -11.688   2.294  0.00  0.00    -0.506 OA
ATOM     14  H   LIG    1       26.102 -11.001   1.852  0.00  0.00    +0.292 HD
ENDBRANCH   5  13
ENDBRANCH   1   2
BRANCH   1  15
ATOM     15  O   LIG    1       22.581 -15.217   5.550  0.00  0.00    -0.386 OA
ATOM     16  H   LIG    1       23.016 -15.751   6.232  0.00  0.00    +0.210 HD
ENDBRANCH   1  15
BRANCH   1  17
ATOM     17  C   LIG    1       23.738 -17.066   4.440  0.00  0.00    +0.117 C 
BRANCH  17  18
ATOM     18  N   LIG    1       23.035 -18.142   3.718  0.00  0.00    -0.311 NA
ATOM     19  H   LIG    1       22.746 -17.809   2.799  0.00  0.00    +0.122 HD
BRANCH  18  21
ATOM     20  C   LIG    1       20.584 -18.674   3.690  0.00  0.00    +0.024 C 
ATOM     21  C   LIG    1       21.914 -18.741   4.459  0.00  0.00    +0.051 C 
BRANCH  21  22
ATOM     22  C   LIG    1       22.212 -20.227   4.791  0.00  0.00    +0.023 C 
BRANCH  22  23
ATOM     23  C   LIG    1       23.480 -20.814   4.152  0.00  0.00    +0.036 C 
BRANCH  23  24
ATOM     24  C   LIG    1       24.727 -20.705   4.997  0.00  0.00    -0.047 A 
ATOM     25  C   LIG    1       24.773 -21.254   6.286  0.00  0.00    +0.003 A 
ATOM     26  C   LIG    1       25.929 -21.149   7.061  0.00  0.00    +0.000 A 
ATOM     27  C   LIG    1       27.054 -20.502   6.553  0.00  0.00    +0.000 A 
ATOM     28  C   LIG    1       27.022 -19.956   5.272  0.00  0.00    +0.000 A 
ATOM     29  C   LIG    1       25.865 -20.058   4.498  0.00  0.00    +0.003 A 
ENDBRANCH  23  24
ENDBRANCH  22  23
ENDBRANCH  21  22
ENDBRANCH  18  21
ENDBRANCH  17  18
ENDBRANCH   1  17
TORSDOF 10
ENDMDL
MODEL 6
REMARK VINA RESULT:      -4.3      2.907      6.872
REMARK  Name = *****
REMARK                            x       y       z     vdW  Elec       q    Type
REMARK                         _______ _______ _______ _____ _____    ______ ____
ROOT
ATOM      1  C   LIG    1       24.071 -19.664   3.959  0.00  0.00    +0.158 C 
ENDROOT
BRANCH   1   2
ATOM      2  C   LIG    1       25.523 -19.249   4.182  0.00  0.00    -0.017 A 
ATOM      3  C   LIG    1       26.337 -20.006   5.046  0.00  0.00    +0.023 A 
ATOM      4  C   LIG    1       27.635 -19.579   5.398  0.00  0.00    +0.078 A 
ATOM      5  C   LIG    1       28.139 -18.402   4.829  0.00  0.00    +0.129 A 
ATOM      6  C   LIG    1       27.368 -17.670   3.930  0.00  0.00    +0.046 A 
ATOM      7  C   LIG    1       26.070 -18.084   3.622  0.00  0.00    +0.010 A 
BRANCH   4   8
ATOM      8  C   LIG    1       28.364 -20.387   6.425  0.00  0.00    +0.245 C 
ATOM      9  O   LIG    1       29.473 -20.079   6.822  0.00  0.00    -0.270 OA
ATOM     10  N   LIG    1       27.746 -21.515   6.888  0.00  0.00    -0.325 N 
ATOM     11  H   LIG    1       28.225 -22.104   7.553  0.00  0.00    +0.145 HD
ATOM     12  H   LIG    1       26.809 -21.752   6.582  0.00  0.00    +0.145 HD
ENDBRANCH   4   8
BRANCH   5  13
ATOM     13  O   LIG    1       29.385 -17.926   5.155  0.00  0.00    -0.506 OA
ATOM     14  H   LIG    1       29.792 -17.535   4.362  0.00  0.00    +0.292 HD
ENDBRANCH   5  13
ENDBRANCH   1   2
BRANCH   1  15
ATOM     15  O   LIG    1       23.972 -20.606   2.881  0.00  0.00    -0.386 OA
ATOM     16  H   LIG    1       23.227 -20.335   2.322  0.00  0.00    +0.210 HD
ENDBRANCH   1  15
BRANCH   1  17
ATOM     17  C   LIG    1       23.171 -18.428   3.658  0.00  0.00    +0.117 C 
BRANCH  17  18
ATOM     18  N   LIG    1       23.775 -17.160   4.108  0.00  0.00    -0.311 NA
ATOM     19  H   LIG    1       24.346 -17.326   4.937  0.00  0.00    +0.122 HD
BRANCH  18  21
ATOM     20  C   LIG    1       21.919 -16.286   5.551  0.00  0.00    +0.024 C 
ATOM     21  C   LIG    1       22.811 -16.068   4.318  0.00  0.00    +0.051 C 
BRANCH  21  22
ATOM     22  C   LIG    1       23.550 -14.714   4.483  0.00  0.00    +0.023 C 
BRANCH  22  23
ATOM     23  C   LIG    1       24.441 -14.290   3.304  0.00  0.00    +0.036 C 
BRANCH  23  24
ATOM     24  C   LIG    1       25.842 -13.874   3.684  0.00  0.00    -0.047 A 
ATOM     25  C   LIG    1       26.857 -13.800   2.721  0.00  0.00    +0.003 A 
ATOM     26  C   LIG    1       28.150 -13.414   3.081  0.00  0.00    +0.000 A 
ATOM     27  C   LIG    1       28.440 -13.091   4.405  0.00  0.00    +0.000 A 
ATOM     28  C   LIG    1       27.438 -13.157   5.370  0.00  0.00    +0.000 A 
ATOM     29  C   LIG    1       26.146 -13.545   5.012  0.00  0.00    +0.003 A 
ENDBRANCH  23  24
ENDBRANCH  22  23
ENDBRANCH  21  22
ENDBRANCH  18  21
ENDBRANCH  17  18
ENDBRANCH   1  17
TORSDOF 10
ENDMDL
MODEL 7
REMARK VINA RESULT:      -4.0      2.500      4.037
REMARK  Name = *****
REMARK                            x       y       z     vdW  Elec       q    Type
REMARK                         _______ _______ _______ _____ _____    ______ ____
ROOT
ATOM      1  C   LIG    1       23.763 -13.625   3.316  0.00  0.00    +0.158 C 
ENDROOT
BRANCH   1   2
ATOM      2  C   LIG    1       25.289 -13.674   3.315  0.00  0.00    -0.017 A 
ATOM      3  C   LIG    1       25.991 -13.465   4.517  0.00  0.00    +0.023 A 
ATOM      4  C   LIG    1       27.397 -13.353   4.539  0.00  0.00    +0.078 A 
ATOM      5  C   LIG    1       28.109 -13.507   3.342  0.00  0.00    +0.129 A 
ATOM      6  C   LIG    1       27.433 -13.769   2.152  0.00  0.00    +0.046 A 
ATOM      7  C   LIG    1       26.039 -13.838   2.139  0.00  0.00    +0.010 A 
BRANCH   4   8
ATOM      8  C   LIG    1       28.033 -12.999   5.847  0.00  0.00    +0.245 C 
ATOM      9  O   LIG    1       27.694 -13.524   6.893  0.00  0.00    -0.270 OA
ATOM     10  N   LIG    1       28.999 -12.033   5.831  0.00  0.00    -0.325 N 
ATOM     11  H   LIG    1       29.422 -11.743   6.700  0.00  0.00    +0.145 HD
ATOM     12  H   LIG    1       29.302 -11.622   4.956  0.00  0.00    +0.145 HD
ENDBRANCH   4   8
BRANCH   5  13
ATOM     13  O   LIG    1       29.475 -13.383   3.300  0.00  0.00    -0.506 OA
ATOM     14  H   LIG    1       29.854 -14.186   2.902  0.00  0.00    +0.292 HD
ENDBRANCH   5  13
ENDBRANCH   1   2
BRANCH   1  15
ATOM     15  O   LIG    1       23.297 -12.288   3.552  0.00  0.00    -0.386 OA
ATOM     16  H   LIG    1       22.332 -12.325   3.640  0.00  0.00    +0.210 HD
ENDBRANCH   1  15
BRANCH   1  17
ATOM     17  C   LIG    1       23.169 -14.583   4.392  0.00  0.00    +0.117 C 
BRANCH  17  18
ATOM     18  N   LIG    1       23.364 -16.006   4.059  0.00  0.00    -0.311 NA
ATOM     19  H   LIG    1       23.160 -16.160   3.071  0.00  0.00    +0.122 HD
BRANCH  18  21
ATOM     20  C   LIG    1       21.490 -16.261   5.706  0.00  0.00    +0.024 C 
ATOM     21  C   LIG    1       22.624 -16.941   4.922  0.00  0.00    +0.051 C 
BRANCH  21  22
ATOM     22  C   LIG    1       22.014 -18.092   4.081  0.00  0.00    +0.023 C 
BRANCH  22  23
ATOM     23  C   LIG    1       21.964 -19.467   4.766  0.00  0.00    +0.036 C 
BRANCH  23  24
ATOM     24  C   LIG    1       23.291 -19.970   5.282  0.00  0.00    -0.047 A 
ATOM     25  C   LIG    1       23.406 -20.504   6.573  0.00  0.00    +0.003 A 
ATOM     26  C   LIG    1       24.638 -20.965   7.041  0.00  0.00    +0.000 A 
ATOM     27  C   LIG    1       25.764 -20.907   6.223  0.00  0.00    +0.000 A 
ATOM     28  C   LIG    1       25.660 -20.383   4.937  0.00  0.00    +0.000 A 
ATOM     29  C   LIG    1       24.430 -19.917   4.468  0.00  0.00    +0.003 A 
ENDBRANCH  23  24
ENDBRANCH  22  23
ENDBRANCH  21  22
ENDBRANCH  18  21
ENDBRANCH  17  18
ENDBRANCH   1  17
TORSDOF 10
ENDMDL
MODEL 8
REMARK VINA RESULT:      -3.8      2.126      2.748
REMARK  Name = *****
REMARK                            x       y       z     vdW  Elec       q    Type
REMARK                         _______ _______ _______ _____ _____    ______ ____
ROOT
ATOM      1  C   LIG    1       27.953 -15.158   4.735  0.00  0.00    +0.158 C 
ENDROOT
BRANCH   1   2
ATOM      2  C   LIG    1       26.862 -14.383   4.002  0.00  0.00    -0.017 A 
ATOM      3  C   LIG    1       26.115 -13.411   4.694  0.00  0.00    +0.023 A 
ATOM      4  C   LIG    1       25.003 -12.778   4.102  0.00  0.00    +0.078 A 
ATOM      5  C   LIG    1       24.672 -13.087   2.776  0.00  0.00    +0.129 A 
ATOM      6  C   LIG    1       25.435 -14.005   2.058  0.00  0.00    +0.046 A 
ATOM      7  C   LIG    1       26.509 -14.654   2.670  0.00  0.00    +0.010 A 
BRANCH   4   8
ATOM      8  C   LIG    1       24.199 -11.860   4.969  0.00  0.00    +0.245 C 
ATOM      9  O   LIG    1       23.093 -11.469   4.644  0.00  0.00    -0.270 OA
ATOM     10  N   LIG    1       24.769 -11.448   6.141  0.00  0.00    -0.325 N 
ATOM     11  H   LIG    1       24.271 -10.799   6.731  0.00  0.00    +0.145 HD
ATOM     12  H   LIG    1       25.675 -11.801   6.425  0.00  0.00    +0.145 HD
ENDBRANCH   4   8
BRANCH   5  13
ATOM     13  O   LIG    1       23.586 -12.520   2.157  0.00  0.00    -0.506 OA
ATOM     14  H   LIG    1       23.453 -12.948   1.294  0.00  0.00    +0.292 HD
ENDBRANCH   5  13
ENDBRANCH   1   2
BRANCH   1  15
ATOM     15  O   LIG    1       29.254 -14.666   4.379  0.00  0.00    -0.386 OA
ATOM     16  H   LIG    1       29.792 -15.427   4.112  0.00  0.00    +0.210 HD
ENDBRANCH   1  15
BRANCH   1  17
ATOM     17  C   LIG    1       27.869 -16.683   4.423  0.00  0.00    +0.117 C 
BRANCH  17  18
ATOM     18  N   LIG    1       29.052 -17.427   4.891  0.00  0.00    -0.311 NA
ATOM     19  H   LIG    1       29.801 -17.350   4.204  0.00  0.00    +0.122 HD
BRANCH  18  21
ATOM     20  C   LIG    1       29.134 -19.142   6.720  0.00  0.00    +0.024 C 
ATOM     21  C   LIG    1       28.786 -18.828   5.255  0.00  0.00    +0.051 C 
BRANCH  21  22
ATOM     22  C   LIG    1       27.293 -19.177   5.023  0.00  0.00    +0.023 C 
BRANCH  22  23
ATOM     23  C   LIG    1       26.731 -20.319   5.884  0.00  0.00    +0.036 C 
BRANCH  23  24
ATOM     24  C   LIG    1       25.241 -20.533   5.763  0.00  0.00    -0.047 A 
ATOM     25  C   LIG    1       24.510 -21.114   6.808  0.00  0.00    +0.003 A 
ATOM     26  C   LIG    1       23.132 -21.308   6.687  0.00  0.00    +0.000 A 
ATOM     27  C   LIG    1       22.470 -20.916   5.526  0.00  0.00    +0.000 A 
ATOM     28  C   LIG    1       23.186 -20.333   4.482  0.00  0.00    +0.000 A 
ATOM     29  C   LIG    1       24.564 -20.142   4.600  0.00  0.00    +0.003 A 
ENDBRANCH  23  24
ENDBRANCH  22  23
ENDBRANCH  21  22
ENDBRANCH  18  21
ENDBRANCH  17  18
ENDBRANCH   1  17
TORSDOF 10
ENDMDL
MODEL 9
REMARK VINA RESULT:      -3.7      2.557      7.500
REMARK  Name = *****
REMARK                            x       y       z     vdW  Elec       q    Type
REMARK                         _______ _______ _______ _____ _____    ______ ____
ROOT
ATOM      1  C   LIG    1       26.336 -17.564   3.124  0.00  0.00    +0.158 C 
ENDROOT
BRANCH   1   2
ATOM      2  C   LIG    1       25.740 -18.711   3.936  0.00  0.00    -0.017 A 
ATOM      3  C   LIG    1       24.360 -18.975   3.858  0.00  0.00    +0.023 A 
ATOM      4  C   LIG    1       23.742 -19.923   4.699  0.00  0.00    +0.078 A 
ATOM      5  C   LIG    1       24.535 -20.654   5.594  0.00  0.00    +0.129 A 
ATOM      6  C   LIG    1       25.911 -20.445   5.647  0.00  0.00    +0.046 A 
ATOM      7  C   LIG    1       26.502 -19.474   4.835  0.00  0.00    +0.010 A 
BRANCH   4   8
ATOM      8  C   LIG    1       22.251 -20.031   4.626  0.00  0.00    +0.245 C 
ATOM      9  O   LIG    1       21.544 -19.067   4.400  0.00  0.00    -0.270 OA
ATOM     10  N   LIG    1       21.702 -21.262   4.855  0.00  0.00    -0.325 N 
ATOM     11  H   LIG    1       20.698 -21.363   4.852  0.00  0.00    +0.145 HD
ATOM     12  H   LIG    1       22.294 -22.070   5.010  0.00  0.00    +0.145 HD
ENDBRANCH   4   8
BRANCH   5  13
ATOM     13  O   LIG    1       23.984 -21.572   6.454  0.00  0.00    -0.506 OA
ATOM     14  H   LIG    1       23.403 -21.108   7.083  0.00  0.00    +0.292 HD
ENDBRANCH   5  13
ENDBRANCH   1   2
BRANCH   1  15
ATOM     15  O   LIG    1       27.558 -17.101   3.717  0.00  0.00    -0.386 OA
ATOM     16  H   LIG    1       27.830 -17.756   4.379  0.00  0.00    +0.210 HD
ENDBRANCH   1  15
BRANCH   1  17
ATOM     17  C   LIG    1       25.332 -16.378   3.003  0.00  0.00    +0.117 C 
BRANCH  17  18
ATOM     18  N   LIG    1       24.609 -16.113   4.260  0.00  0.00    -0.311 NA
ATOM     19  H   LIG    1       24.535 -16.973   4.802  0.00  0.00    +0.122 HD
BRANCH  18  21
ATOM     20  C   LIG    1       22.556 -15.247   5.412  0.00  0.00    +0.024 C 
ATOM     21  C   LIG    1       23.300 -15.463   4.084  0.00  0.00    +0.051 C 
BRANCH  21  22
ATOM     22  C   LIG    1       23.463 -14.088   3.387  0.00  0.00    +0.023 C 
BRANCH  22  23
ATOM     23  C   LIG    1       24.206 -13.012   4.194  0.00  0.00    +0.036 C 
BRANCH  23  24
ATOM     24  C   LIG    1       25.713 -13.099   4.134  0.00  0.00    -0.047 A 
ATOM     25  C   LIG    1       26.470 -13.286   5.298  0.00  0.00    +0.003 A 
ATOM     26  C   LIG    1       27.863 -13.365   5.233  0.00  0.00    +0.000 A 
ATOM     27  C   LIG    1       28.512 -13.267   4.004  0.00  0.00    +0.000 A 
ATOM     28  C   LIG    1       27.769 -13.085   2.840  0.00  0.00    +0.000 A 
ATOM     29  C   LIG    1       26.377 -13.002   2.904  0.00  0.00    +0.003 A 
ENDBRANCH  23  24
ENDBRANCH  22  23
ENDBRANCH  21  22
ENDBRANCH  18  21
ENDBRANCH  17  18
ENDBRANCH   1  17
TORSDOF 10
ENDMDL
