MODEL 1
REMARK VINA RESULT:      -1.4      0.000      0.000
REMARK  Name = *****
REMARK                            x       y       z     vdW  Elec       q    Type
REMARK                         _______ _______ _______ _____ _____    ______ ____
ROOT
ATOM      1  C   LIG    1       26.193 -18.199   4.024  0.00  0.00    +0.071 C 
ENDROOT
BRANCH   1   2
ATOM      2  C   LIG    1       25.466 -17.132   3.169  0.00  0.00    +0.021 C 
BRANCH   2   3
ATOM      3  C   LIG    1       25.045 -15.875   3.960  0.00  0.00    +0.036 C 
BRANCH   3   8
ATOM      4 CL   LIG    1       29.419 -11.727   4.398  0.00  0.00    -0.084 Cl
ATOM      5  C   LIG    1       28.169 -12.902   4.267  0.00  0.00    +0.041 A 
ATOM      6  C   LIG    1       27.253 -13.057   5.305  0.00  0.00    +0.020 A 
ATOM      7  C   LIG    1       26.238 -14.012   5.203  0.00  0.00    +0.005 A 
ATOM      8  C   LIG    1       26.122 -14.814   4.059  0.00  0.00    -0.047 A 
ATOM      9  C   LIG    1       27.061 -14.652   3.026  0.00  0.00    +0.005 A 
ATOM     10  C   LIG    1       28.080 -13.698   3.130  0.00  0.00    +0.020 A 
ENDBRANCH   3   8
ENDBRANCH   2   3
ENDBRANCH   1   2
BRANCH   1  11
ATOM     11  C   LIG    1       27.739 -18.083   3.978  0.00  0.00    +0.137 C 
BRANCH  11  12
ATOM     12  N   LIG    1       28.444 -18.569   5.147  0.00  0.00    -0.336 N 
ATOM     13  C   LIG    1       28.838 -19.853   5.396  0.00  0.00    +0.199 A 
ATOM     14  N   LIG    1       29.453 -19.959   6.547  0.00  0.00    -0.244 NA
ATOM     15  C   LIG    1       29.475 -18.687   7.062  0.00  0.00    +0.130 A 
ATOM     16  C   LIG    1       28.889 -17.805   6.193  0.00  0.00    +0.107 A 
ENDBRANCH  11  12
ENDBRANCH   1  11
BRANCH   1  17
ATOM     17  S   LIG    1       25.743 -19.959   3.577  0.00  0.00    -0.117 S 
BRANCH  17  18
ATOM     18  C   LIG    1       24.578 -20.439   4.851  0.00  0.00    +0.045 A 
ATOM     19  C   LIG    1       23.223 -20.058   4.787  0.00  0.00    +0.056 A 
ATOM     20 CL   LIG    1       22.601 -19.017   3.549  0.00  0.00    -0.082 Cl
ATOM     21  C   LIG    1       22.311 -20.487   5.760  0.00  0.00    +0.021 A 
ATOM     22  C   LIG    1       22.738 -21.266   6.831  0.00  0.00    +0.003 A 
ATOM     23  C   LIG    1       24.089 -21.571   6.960  0.00  0.00    +0.021 A 
ATOM     24  C   LIG    1       25.005 -21.151   5.990  0.00  0.00    +0.056 A 
ATOM     25 CL   LIG    1       26.669 -21.542   6.285  0.00  0.00    -0.082 Cl
ENDBRANCH  17  18
ENDBRANCH   1  17
TORSDOF 7
ENDMDL
MODEL 2
REMARK VINA RESULT:      -1.2      2.971      7.092
REMARK  Name = *****
REMARK                            x       y       z     vdW  Elec       q    Type
REMARK                         _______ _______ _______ _____ _____    ______ ____
ROOT
ATOM      1  C   LIG    1       26.444 -15.535   3.327  0.00  0.00    +0.071 C 
ENDROOT
BRANCH   1   2
ATOM      2  C   LIG    1       26.757 -17.025   3.610  0.00  0.00    +0.021 C 
BRANCH   2   3
ATOM      3  C   LIG    1       25.748 -18.009   2.980  0.00  0.00    +0.036 C 
BRANCH   3   8
ATOM      4 CL   LIG    1       23.037 -21.572   7.041  0.00  0.00    -0.084 Cl
ATOM      5  C   LIG    1       23.806 -20.564   5.878  0.00  0.00    +0.041 A 
ATOM      6  C   LIG    1       25.193 -20.587   5.750  0.00  0.00    +0.020 A 
ATOM      7  C   LIG    1       25.821 -19.767   4.809  0.00  0.00    +0.005 A 
ATOM      8  C   LIG    1       25.069 -18.925   3.978  0.00  0.00    -0.047 A 
ATOM      9  C   LIG    1       23.671 -18.906   4.127  0.00  0.00    +0.005 A 
ATOM     10  C   LIG    1       23.042 -19.724   5.073  0.00  0.00    +0.020 A 
ENDBRANCH   3   8
ENDBRANCH   2   3
ENDBRANCH   1   2
BRANCH   1  11
ATOM     11  C   LIG    1       26.655 -14.613   4.556  0.00  0.00    +0.137 C 
BRANCH  11  12
ATOM     12  N   LIG    1       27.716 -13.633   4.436  0.00  0.00    -0.336 N 
ATOM     13  C   LIG    1       28.136 -12.752   5.392  0.00  0.00    +0.199 A 
ATOM     14  N   LIG    1       29.117 -12.000   4.962  0.00  0.00    -0.244 NA
ATOM     15  C   LIG    1       29.358 -12.419   3.678  0.00  0.00    +0.130 A 
ATOM     16  C   LIG    1       28.526 -13.456   3.346  0.00  0.00    +0.107 A 
ENDBRANCH  11  12
ENDBRANCH   1  11
BRANCH   1  17
ATOM     17  S   LIG    1       24.713 -15.235   2.684  0.00  0.00    -0.117 S 
BRANCH  17  18
ATOM     18  C   LIG    1       24.128 -13.852   3.661  0.00  0.00    +0.045 A 
ATOM     19  C   LIG    1       23.279 -14.042   4.769  0.00  0.00    +0.056 A 
ATOM     20 CL   LIG    1       22.648 -15.596   5.208  0.00  0.00    -0.082 Cl
ATOM     21  C   LIG    1       22.874 -12.958   5.557  0.00  0.00    +0.021 A 
ATOM     22  C   LIG    1       23.275 -11.665   5.234  0.00  0.00    +0.003 A 
ATOM     23  C   LIG    1       24.034 -11.448   4.089  0.00  0.00    +0.021 A 
ATOM     24  C   LIG    1       24.446 -12.527   3.300  0.00  0.00    +0.056 A 
ATOM     25 CL   LIG    1       25.341 -12.132   1.867  0.00  0.00    -0.082 Cl
ENDBRANCH  17  18
ENDBRANCH   1  17
TORSDOF 7
ENDMDL
MODEL 3
REMARK VINA RESULT:      -0.8      2.916      7.031
REMARK  Name = *****
REMARK                            x       y       z     vdW  Elec       q    Type
REMARK                         _______ _______ _______ _____ _____    ______ ____
ROOT
ATOM      1  C   LIG    1       26.462 -15.736   3.420  0.00  0.00    +0.071 C 
ENDROOT
BRANCH   1   2
ATOM      2  C   LIG    1       26.875 -17.221   3.567  0.00  0.00    +0.021 C 
BRANCH   2   3
ATOM      3  C   LIG    1       25.877 -18.216   2.937  0.00  0.00    +0.036 C 
BRANCH   3   8
ATOM      4 CL   LIG    1       22.750 -21.571   6.874  0.00  0.00    -0.084 Cl
ATOM      5  C   LIG    1       23.643 -20.610   5.761  0.00  0.00    +0.041 A 
ATOM      6  C   LIG    1       22.997 -19.619   5.026  0.00  0.00    +0.020 A 
ATOM      7  C   LIG    1       23.719 -18.839   4.118  0.00  0.00    +0.005 A 
ATOM      8  C   LIG    1       25.097 -19.035   3.945  0.00  0.00    -0.047 A 
ATOM      9  C   LIG    1       25.731 -20.047   4.687  0.00  0.00    +0.005 A 
ATOM     10  C   LIG    1       25.007 -20.830   5.593  0.00  0.00    +0.020 A 
ENDBRANCH   3   8
ENDBRANCH   2   3
ENDBRANCH   1   2
BRANCH   1  11
ATOM     11  C   LIG    1       26.712 -14.894   4.698  0.00  0.00    +0.137 C 
BRANCH  11  12
ATOM     12  N   LIG    1       27.683 -13.825   4.569  0.00  0.00    -0.336 N 
ATOM     13  C   LIG    1       28.415 -13.506   3.461  0.00  0.00    +0.199 A 
ATOM     14  N   LIG    1       29.205 -12.484   3.678  0.00  0.00    -0.244 NA
ATOM     15  C   LIG    1       28.965 -12.111   4.976  0.00  0.00    +0.130 A 
ATOM     16  C   LIG    1       27.997 -12.905   5.535  0.00  0.00    +0.107 A 
ENDBRANCH  11  12
ENDBRANCH   1  11
BRANCH   1  17
ATOM     17  S   LIG    1       24.675 -15.495   2.923  0.00  0.00    -0.117 S 
BRANCH  17  18
ATOM     18  C   LIG    1       24.235 -13.922   3.659  0.00  0.00    +0.045 A 
ATOM     19  C   LIG    1       24.710 -12.705   3.131  0.00  0.00    +0.056 A 
ATOM     20 CL   LIG    1       25.832 -12.633   1.812  0.00  0.00    -0.082 Cl
ATOM     21  C   LIG    1       24.313 -11.481   3.683  0.00  0.00    +0.021 A 
ATOM     22  C   LIG    1       23.471 -11.447   4.790  0.00  0.00    +0.003 A 
ATOM     23  C   LIG    1       23.069 -12.640   5.383  0.00  0.00    +0.021 A 
ATOM     24  C   LIG    1       23.458 -13.867   4.834  0.00  0.00    +0.056 A 
ATOM     25 CL   LIG    1       22.944 -15.286   5.690  0.00  0.00    -0.082 Cl
ENDBRANCH  17  18
ENDBRANCH   1  17
TORSDOF 7
ENDMDL
MODEL 4
REMARK VINA RESULT:      -0.6      2.867      6.879
REMARK  Name = *****
REMARK                            x       y       z     vdW  Elec       q    Type
REMARK                         _______ _______ _______ _____ _____    ______ ____
ROOT
ATOM      1  C   LIG    1       24.524 -16.366   4.371  0.00  0.00    +0.071 C 
ENDROOT
BRANCH   1   2
ATOM      2  C   LIG    1       25.517 -16.606   3.207  0.00  0.00    +0.021 C 
BRANCH   2   3
ATOM      3  C   LIG    1       27.002 -16.514   3.619  0.00  0.00    +0.036 C 
BRANCH   3   8
ATOM      4 CL   LIG    1       28.968 -21.285   6.767  0.00  0.00    -0.084 Cl
ATOM      5  C   LIG    1       28.411 -19.932   5.863  0.00  0.00    +0.041 A 
ATOM      6  C   LIG    1       29.213 -18.799   5.746  0.00  0.00    +0.020 A 
ATOM      7  C   LIG    1       28.762 -17.697   5.014  0.00  0.00    +0.005 A 
ATOM      8  C   LIG    1       27.509 -17.720   4.384  0.00  0.00    -0.047 A 
ATOM      9  C   LIG    1       26.708 -18.867   4.521  0.00  0.00    +0.005 A 
ATOM     10  C   LIG    1       27.159 -19.969   5.257  0.00  0.00    +0.020 A 
ENDBRANCH   3   8
ENDBRANCH   2   3
ENDBRANCH   1   2
BRANCH   1  11
ATOM     11  C   LIG    1       23.145 -17.043   4.158  0.00  0.00    +0.137 C 
BRANCH  11  12
ATOM     12  N   LIG    1       23.125 -18.488   4.277  0.00  0.00    -0.336 N 
ATOM     13  C   LIG    1       23.817 -19.386   3.517  0.00  0.00    +0.199 A 
ATOM     14  N   LIG    1       23.575 -20.620   3.881  0.00  0.00    -0.244 NA
ATOM     15  C   LIG    1       22.701 -20.521   4.934  0.00  0.00    +0.130 A 
ATOM     16  C   LIG    1       22.439 -19.207   5.220  0.00  0.00    +0.107 A 
ENDBRANCH  11  12
ENDBRANCH   1  11
BRANCH   1  17
ATOM     17  S   LIG    1       24.219 -14.559   4.742  0.00  0.00    -0.117 S 
BRANCH  17  18
ATOM     18  C   LIG    1       25.736 -13.755   4.230  0.00  0.00    +0.045 A 
ATOM     19  C   LIG    1       26.826 -13.615   5.110  0.00  0.00    +0.056 A 
ATOM     20 CL   LIG    1       26.755 -14.102   6.772  0.00  0.00    -0.082 Cl
ATOM     21  C   LIG    1       28.026 -13.035   4.679  0.00  0.00    +0.021 A 
ATOM     22  C   LIG    1       28.147 -12.550   3.381  0.00  0.00    +0.003 A 
ATOM     23  C   LIG    1       27.049 -12.593   2.528  0.00  0.00    +0.021 A 
ATOM     24  C   LIG    1       25.849 -13.176   2.950  0.00  0.00    +0.056 A 
ATOM     25 CL   LIG    1       24.532 -13.123   1.821  0.00  0.00    -0.082 Cl
ENDBRANCH  17  18
ENDBRANCH   1  17
TORSDOF 7
ENDMDL
MODEL 5
REMARK VINA RESULT:      -0.3      2.312      2.979
REMARK  Name = *****
REMARK                            x       y       z     vdW  Elec       q    Type
REMARK                         _______ _______ _______ _____ _____    ______ ____
ROOT
ATOM      1  C   LIG    1       27.089 -17.707   4.355  0.00  0.00    +0.071 C 
ENDROOT
BRANCH   1   2
ATOM      2  C   LIG    1       27.913 -16.433   4.050  0.00  0.00    +0.021 C 
BRANCH   2   3
ATOM      3  C   LIG    1       27.502 -15.204   4.888  0.00  0.00    +0.036 C 
BRANCH   3   8
ATOM      4 CL   LIG    1       23.727 -11.447   2.029  0.00  0.00    -0.084 Cl
ATOM      5  C   LIG    1       24.808 -12.509   2.844  0.00  0.00    +0.041 A 
ATOM      6  C   LIG    1       25.638 -13.352   2.109  0.00  0.00    +0.020 A 
ATOM      7  C   LIG    1       26.515 -14.218   2.768  0.00  0.00    +0.005 A 
ATOM      8  C   LIG    1       26.578 -14.242   4.169  0.00  0.00    -0.047 A 
ATOM      9  C   LIG    1       25.727 -13.392   4.896  0.00  0.00    +0.005 A 
ATOM     10  C   LIG    1       24.846 -12.528   4.235  0.00  0.00    +0.020 A 
ENDBRANCH   3   8
ENDBRANCH   2   3
ENDBRANCH   1   2
BRANCH   1  11
ATOM     11  C   LIG    1       27.958 -18.924   4.766  0.00  0.00    +0.137 C 
BRANCH  11  12
ATOM     12  N   LIG    1       27.353 -19.843   5.709  0.00  0.00    -0.336 N 
ATOM     13  C   LIG    1       26.095 -19.774   6.235  0.00  0.00    +0.199 A 
ATOM     14  N   LIG    1       25.858 -20.761   7.062  0.00  0.00    -0.244 NA
ATOM     15  C   LIG    1       27.005 -21.514   7.062  0.00  0.00    +0.130 A 
ATOM     16  C   LIG    1       27.930 -20.984   6.202  0.00  0.00    +0.107 A 
ENDBRANCH  11  12
ENDBRANCH   1  11
BRANCH   1  17
ATOM     17  S   LIG    1       25.985 -18.248   2.945  0.00  0.00    -0.117 S 
BRANCH  17  18
ATOM     18  C   LIG    1       24.433 -18.647   3.747  0.00  0.00    +0.045 A 
ATOM     19  C   LIG    1       23.526 -17.641   4.133  0.00  0.00    +0.056 A 
ATOM     20 CL   LIG    1       23.878 -15.952   3.970  0.00  0.00    -0.082 Cl
ATOM     21  C   LIG    1       22.292 -17.970   4.708  0.00  0.00    +0.021 A 
ATOM     22  C   LIG    1       21.957 -19.300   4.943  0.00  0.00    +0.003 A 
ATOM     23  C   LIG    1       22.880 -20.301   4.656  0.00  0.00    +0.021 A 
ATOM     24  C   LIG    1       24.112 -19.980   4.077  0.00  0.00    +0.056 A 
ATOM     25 CL   LIG    1       25.204 -21.303   3.815  0.00  0.00    -0.082 Cl
ENDBRANCH  17  18
ENDBRANCH   1  17
TORSDOF 7
ENDMDL
MODEL 6
REMARK VINA RESULT:      -0.1      3.051      4.686
REMARK  Name = *****
REMARK                            x       y       z     vdW  Elec       q    Type
REMARK                         _______ _______ _______ _____ _____    ______ ____
ROOT
ATOM      1  C   LIG    1       23.703 -18.090   3.644  0.00  0.00    +0.071 C 
ENDROOT
BRANCH   1   2
ATOM      2  C   LIG    1       24.618 -16.976   4.211  0.00  0.00    +0.021 C 
BRANCH   2   3
ATOM      3  C   LIG    1       24.977 -15.877   3.188  0.00  0.00    +0.036 C 
BRANCH   3   8
ATOM      4 CL   LIG    1       29.052 -11.919   5.253  0.00  0.00    -0.084 Cl
ATOM      5  C   LIG    1       27.888 -13.039   4.659  0.00  0.00    +0.041 A 
ATOM      6  C   LIG    1       26.753 -13.325   5.414  0.00  0.00    +0.020 A 
ATOM      7  C   LIG    1       25.807 -14.236   4.936  0.00  0.00    +0.005 A 
ATOM      8  C   LIG    1       25.982 -14.863   3.694  0.00  0.00    -0.047 A 
ATOM      9  C   LIG    1       27.138 -14.571   2.950  0.00  0.00    +0.005 A 
ATOM     10  C   LIG    1       28.086 -13.661   3.430  0.00  0.00    +0.020 A 
ENDBRANCH   3   8
ENDBRANCH   2   3
ENDBRANCH   1   2
BRANCH   1  11
ATOM     11  C   LIG    1       22.553 -18.494   4.602  0.00  0.00    +0.137 C 
BRANCH  11  12
ATOM     12  N   LIG    1       21.253 -18.678   3.987  0.00  0.00    -0.336 N 
ATOM     13  C   LIG    1       20.489 -19.810   4.000  0.00  0.00    +0.199 A 
ATOM     14  N   LIG    1       19.366 -19.645   3.347  0.00  0.00    -0.244 NA
ATOM     15  C   LIG    1       19.393 -18.347   2.905  0.00  0.00    +0.130 A 
ATOM     16  C   LIG    1       20.536 -17.719   3.322  0.00  0.00    +0.107 A 
ENDBRANCH  11  12
ENDBRANCH   1  11
BRANCH   1  17
ATOM     17  S   LIG    1       24.619 -19.649   3.166  0.00  0.00    -0.117 S 
BRANCH  17  18
ATOM     18  C   LIG    1       25.400 -20.171   4.692  0.00  0.00    +0.045 A 
ATOM     19  C   LIG    1       24.748 -21.035   5.592  0.00  0.00    +0.056 A 
ATOM     20 CL   LIG    1       23.116 -21.572   5.359  0.00  0.00    -0.082 Cl
ATOM     21  C   LIG    1       25.392 -21.480   6.754  0.00  0.00    +0.021 A 
ATOM     22  C   LIG    1       26.677 -21.041   7.058  0.00  0.00    +0.003 A 
ATOM     23  C   LIG    1       27.299 -20.113   6.229  0.00  0.00    +0.021 A 
ATOM     24  C   LIG    1       26.664 -19.669   5.064  0.00  0.00    +0.056 A 
ATOM     25 CL   LIG    1       27.510 -18.471   4.138  0.00  0.00    -0.082 Cl
ENDBRANCH  17  18
ENDBRANCH   1  17
TORSDOF 7
ENDMDL
MODEL 7
REMARK VINA RESULT:       0.8      2.506      5.777
REMARK  Name = *****
REMARK                            x       y       z     vdW  Elec       q    Type
REMARK                         _______ _______ _______ _____ _____    ______ ____
ROOT
ATOM      1  C   LIG    1       25.877 -16.861   3.720  0.00  0.00    +0.071 C 
ENDROOT
BRANCH   1   2
ATOM      2  C   LIG    1       24.538 -16.191   3.326  0.00  0.00    +0.021 C 
BRANCH   2   3
ATOM      3  C   LIG    1       23.460 -16.245   4.430  0.00  0.00    +0.036 C 
BRANCH   3   8
ATOM      4 CL   LIG    1       20.614 -21.571   4.705  0.00  0.00    -0.084 Cl
ATOM      5  C   LIG    1       21.419 -20.051   4.634  0.00  0.00    +0.041 A 
ATOM      6  C   LIG    1       21.083 -19.135   3.640  0.00  0.00    +0.020 A 
ATOM      7  C   LIG    1       21.736 -17.901   3.578  0.00  0.00    +0.005 A 
ATOM      8  C   LIG    1       22.725 -17.567   4.515  0.00  0.00    -0.047 A 
ATOM      9  C   LIG    1       23.059 -18.508   5.505  0.00  0.00    +0.005 A 
ATOM     10  C   LIG    1       22.407 -19.744   5.565  0.00  0.00    +0.020 A 
ENDBRANCH   3   8
ENDBRANCH   2   3
ENDBRANCH   1   2
BRANCH   1  11
ATOM     11  C   LIG    1       27.126 -16.035   3.318  0.00  0.00    +0.137 C 
BRANCH  11  12
ATOM     12  N   LIG    1       27.277 -14.754   3.980  0.00  0.00    -0.336 N 
ATOM     13  C   LIG    1       28.175 -13.771   3.677  0.00  0.00    +0.199 A 
ATOM     14  N   LIG    1       28.050 -12.737   4.471  0.00  0.00    -0.244 NA
ATOM     15  C   LIG    1       27.017 -13.054   5.316  0.00  0.00    +0.130 A 
ATOM     16  C   LIG    1       26.499 -14.283   5.004  0.00  0.00    +0.107 A 
ENDBRANCH  11  12
ENDBRANCH   1  11
BRANCH   1  17
ATOM     17  S   LIG    1       26.091 -18.586   3.029  0.00  0.00    -0.117 S 
BRANCH  17  18
ATOM     18  C   LIG    1       26.365 -19.598   4.481  0.00  0.00    +0.045 A 
ATOM     19  C   LIG    1       27.452 -19.362   5.346  0.00  0.00    +0.056 A 
ATOM     20 CL   LIG    1       28.661 -18.162   5.023  0.00  0.00    -0.082 Cl
ATOM     21  C   LIG    1       27.623 -20.125   6.508  0.00  0.00    +0.021 A 
ATOM     22  C   LIG    1       26.740 -21.158   6.808  0.00  0.00    +0.003 A 
ATOM     23  C   LIG    1       25.717 -21.466   5.917  0.00  0.00    +0.021 A 
ATOM     24  C   LIG    1       25.537 -20.705   4.757  0.00  0.00    +0.056 A 
ATOM     25 CL   LIG    1       24.265 -21.217   3.694  0.00  0.00    -0.082 Cl
ENDBRANCH  17  18
ENDBRANCH   1  17
TORSDOF 7
ENDMDL
MODEL 8
REMARK VINA RESULT:       1.4      2.115      6.715
REMARK  Name = *****
REMARK                            x       y       z     vdW  Elec       q    Type
REMARK                         _______ _______ _______ _____ _____    ______ ____
ROOT
ATOM      1  C   LIG    1       27.258 -16.900   3.679  0.00  0.00    +0.071 C 
ENDROOT
BRANCH   1   2
ATOM      2  C   LIG    1       26.317 -18.108   3.454  0.00  0.00    +0.021 C 
BRANCH   2   3
ATOM      3  C   LIG    1       25.992 -18.899   4.739  0.00  0.00    +0.036 C 
BRANCH   3   8
ATOM      4 CL   LIG    1       20.570 -21.572   4.764  0.00  0.00    -0.084 Cl
ATOM      5  C   LIG    1       22.115 -20.814   4.747  0.00  0.00    +0.041 A 
ATOM      6  C   LIG    1       23.201 -21.441   5.354  0.00  0.00    +0.020 A 
ATOM      7  C   LIG    1       24.456 -20.827   5.345  0.00  0.00    +0.005 A 
ATOM      8  C   LIG    1       24.640 -19.585   4.720  0.00  0.00    -0.047 A 
ATOM      9  C   LIG    1       23.532 -18.961   4.122  0.00  0.00    +0.005 A 
ATOM     10  C   LIG    1       22.274 -19.575   4.135  0.00  0.00    +0.020 A 
ENDBRANCH   3   8
ENDBRANCH   2   3
ENDBRANCH   1   2
BRANCH   1  11
ATOM     11  C   LIG    1       28.679 -17.300   4.152  0.00  0.00    +0.137 C 
BRANCH  11  12
ATOM     12  N   LIG    1       28.738 -18.299   5.201  0.00  0.00    -0.336 N 
ATOM     13  C   LIG    1       28.162 -19.537   5.193  0.00  0.00    +0.199 A 
ATOM     14  N   LIG    1       28.404 -20.194   6.299  0.00  0.00    -0.244 NA
ATOM     15  C   LIG    1       29.185 -19.354   7.053  0.00  0.00    +0.130 A 
ATOM     16  C   LIG    1       29.435 -18.190   6.376  0.00  0.00    +0.107 A 
ENDBRANCH  11  12
ENDBRANCH   1  11
BRANCH   1  17
ATOM     17  S   LIG    1       26.591 -15.639   4.890  0.00  0.00    -0.117 S 
BRANCH  17  18
ATOM     18  C   LIG    1       25.865 -14.381   3.841  0.00  0.00    +0.045 A 
ATOM     19  C   LIG    1       26.664 -13.443   3.158  0.00  0.00    +0.056 A 
ATOM     20 CL   LIG    1       28.384 -13.357   3.359  0.00  0.00    -0.082 Cl
ATOM     21  C   LIG    1       26.087 -12.501   2.297  0.00  0.00    +0.021 A 
ATOM     22  C   LIG    1       24.706 -12.451   2.132  0.00  0.00    +0.003 A 
ATOM     23  C   LIG    1       23.896 -13.307   2.871  0.00  0.00    +0.021 A 
ATOM     24  C   LIG    1       24.466 -14.254   3.729  0.00  0.00    +0.056 A 
ATOM     25 CL   LIG    1       23.357 -15.228   4.640  0.00  0.00    -0.082 Cl
ENDBRANCH  17  18
ENDBRANCH   1  17
TORSDOF 7
ENDMDL
