MODEL 1
REMARK VINA RESULT:      -5.6      0.000      0.000
REMARK  Name = *****
REMARK                            x       y       z     vdW  Elec       q    Type
REMARK                         _______ _______ _______ _____ _____    ______ ____
ROOT
ATOM      1  N   LIG    1       28.630 -17.930   4.652  0.00  0.00    -0.310 NA
ATOM      2  H   LIG    1       28.335 -18.469   3.832  0.00  0.00    +0.122 HD
ENDROOT
BRANCH   1   4
ATOM      3  C   LIG    1       29.475 -18.680   6.857  0.00  0.00    +0.024 C 
ATOM      4  C   LIG    1       28.280 -18.656   5.893  0.00  0.00    +0.055 C 
BRANCH   4   5
ATOM      5  C   LIG    1       27.822 -20.097   5.510  0.00  0.00    +0.053 C 
BRANCH   5   6
ATOM      6  C   LIG    1       26.350 -20.414   5.706  0.00  0.00    -0.042 A 
ATOM      7  C   LIG    1       25.418 -20.058   4.714  0.00  0.00    +0.053 A 
ATOM      8  C   LIG    1       24.099 -20.417   4.881  0.00  0.00    +0.167 A 
ATOM      9  O   LIG    1       23.095 -20.197   3.990  0.00  0.00    -0.453 OA
ATOM     10  C   LIG    1       21.985 -20.815   4.671  0.00  0.00    +0.466 C 
ATOM     11  O   LIG    1       22.336 -21.345   5.970  0.00  0.00    -0.453 OA
ATOM     12  C   LIG    1       23.664 -21.071   6.011  0.00  0.00    +0.166 A 
ATOM     13  C   LIG    1       24.531 -21.383   7.035  0.00  0.00    +0.050 A 
ATOM     14  C   LIG    1       25.882 -21.052   6.881  0.00  0.00    +0.007 A 
ENDBRANCH   5   6
ENDBRANCH   4   5
ENDBRANCH   1   4
BRANCH   1  15
ATOM     15  C   LIG    1       28.014 -16.593   4.540  0.00  0.00    +0.117 C 
BRANCH  15  16
ATOM     16  C   LIG    1       27.133 -16.464   3.272  0.00  0.00    +0.158 C 
BRANCH  16  17
ATOM     17  C   LIG    1       26.286 -15.205   3.276  0.00  0.00    -0.014 A 
ATOM     18  C   LIG    1       25.082 -15.163   3.997  0.00  0.00    +0.055 A 
ATOM     19  C   LIG    1       24.322 -14.000   4.002  0.00  0.00    +0.159 A 
ATOM     20  C   LIG    1       24.736 -12.868   3.305  0.00  0.00    +0.158 A 
ATOM     21  C   LIG    1       25.922 -12.887   2.585  0.00  0.00    +0.049 A 
ATOM     22  C   LIG    1       26.695 -14.053   2.574  0.00  0.00    +0.010 A 
BRANCH  19  23
ATOM     23  O   LIG    1       23.152 -13.972   4.708  0.00  0.00    -0.503 OA
ATOM     24  H   LIG    1       23.223 -14.723   5.330  0.00  0.00    +0.292 HD
ENDBRANCH  19  23
BRANCH  20  25
ATOM     25  O   LIG    1       23.941 -11.758   3.364  0.00  0.00    -0.503 OA
ATOM     26  H   LIG    1       23.063 -12.030   3.681  0.00  0.00    +0.292 HD
ENDBRANCH  20  25
ENDBRANCH  16  17
BRANCH  16  27
ATOM     27  O   LIG    1       26.270 -17.604   3.166  0.00  0.00    -0.386 OA
ATOM     28  H   LIG    1       26.070 -17.880   4.077  0.00  0.00    +0.210 HD
ENDBRANCH  16  27
ENDBRANCH  15  16
ENDBRANCH   1  15
TORSDOF 9
ENDMDL
MODEL 2
REMARK VINA RESULT:      -5.4      2.345      4.332
REMARK  Name = *****
REMARK                            x       y       z     vdW  Elec       q    Type
REMARK                         _______ _______ _______ _____ _____    ______ ____
ROOT
ATOM      1  N   LIG    1       22.087 -17.532   4.656  0.00  0.00    -0.310 NA
ATOM      2  H   LIG    1       22.278 -17.790   5.629  0.00  0.00    +0.122 HD
ENDROOT
BRANCH   1   4
ATOM      3  C   LIG    1       20.303 -18.581   3.294  0.00  0.00    +0.024 C 
ATOM      4  C   LIG    1       21.716 -18.733   3.875  0.00  0.00    +0.055 C 
BRANCH   4   5
ATOM      5  C   LIG    1       21.824 -19.981   4.803  0.00  0.00    +0.053 C 
BRANCH   5   6
ATOM      6  C   LIG    1       23.205 -20.303   5.346  0.00  0.00    -0.042 A 
ATOM      7  C   LIG    1       24.350 -19.878   4.647  0.00  0.00    +0.053 A 
ATOM      8  C   LIG    1       25.591 -20.120   5.192  0.00  0.00    +0.167 A 
ATOM      9  O   LIG    1       26.782 -19.723   4.669  0.00  0.00    -0.453 OA
ATOM     10  C   LIG    1       27.697 -20.208   5.672  0.00  0.00    +0.466 C 
ATOM     11  O   LIG    1       27.041 -20.923   6.744  0.00  0.00    -0.453 OA
ATOM     12  C   LIG    1       25.741 -20.806   6.376  0.00  0.00    +0.166 A 
ATOM     13  C   LIG    1       24.650 -21.295   7.062  0.00  0.00    +0.050 A 
ATOM     14  C   LIG    1       23.375 -21.041   6.543  0.00  0.00    +0.007 A 
ENDBRANCH   5   6
ENDBRANCH   4   5
ENDBRANCH   1   4
BRANCH   1  15
ATOM     15  C   LIG    1       23.282 -16.828   4.149  0.00  0.00    +0.117 C 
BRANCH  15  16
ATOM     16  C   LIG    1       23.105 -15.289   4.183  0.00  0.00    +0.158 C 
BRANCH  16  17
ATOM     17  C   LIG    1       24.383 -14.548   3.831  0.00  0.00    -0.014 A 
ATOM     18  C   LIG    1       25.633 -15.153   4.038  0.00  0.00    +0.055 A 
ATOM     19  C   LIG    1       26.794 -14.469   3.702  0.00  0.00    +0.159 A 
ATOM     20  C   LIG    1       26.741 -13.189   3.157  0.00  0.00    +0.158 A 
ATOM     21  C   LIG    1       25.517 -12.570   2.944  0.00  0.00    +0.049 A 
ATOM     22  C   LIG    1       24.342 -13.252   3.280  0.00  0.00    +0.010 A 
BRANCH  19  23
ATOM     23  O   LIG    1       28.005 -15.069   3.908  0.00  0.00    -0.503 OA
ATOM     24  H   LIG    1       28.386 -14.595   4.674  0.00  0.00    +0.292 HD
ENDBRANCH  19  23
BRANCH  20  25
ATOM     25  O   LIG    1       27.925 -12.581   2.843  0.00  0.00    -0.503 OA
ATOM     26  H   LIG    1       27.815 -12.128   1.989  0.00  0.00    +0.292 HD
ENDBRANCH  20  25
ENDBRANCH  16  17
BRANCH  16  27
ATOM     27  O   LIG    1       22.676 -14.880   5.487  0.00  0.00    -0.386 OA
ATOM     28  H   LIG    1       21.745 -14.610   5.396  0.00  0.00    +0.210 HD
ENDBRANCH  16  27
ENDBRANCH  15  16
ENDBRANCH   1  15
TORSDOF 9
ENDMDL
MODEL 3
REMARK VINA RESULT:      -5.1      2.665      7.814
REMARK  Name = *****
REMARK                            x       y       z     vdW  Elec       q    Type
REMARK                         _______ _______ _______ _____ _____    ______ ____
ROOT
ATOM      1  N   LIG    1       22.726 -17.060   4.099  0.00  0.00    -0.310 NA
ATOM      2  H   LIG    1       23.542 -17.365   3.560  0.00  0.00    +0.122 HD
ENDROOT
BRANCH   1   4
ATOM      3  C   LIG    1       21.961 -15.567   5.922  0.00  0.00    +0.024 C 
ATOM      4  C   LIG    1       23.060 -15.853   4.888  0.00  0.00    +0.055 C 
BRANCH   4   5
ATOM      5  C   LIG    1       23.251 -14.657   3.907  0.00  0.00    +0.053 C 
BRANCH   5   6
ATOM      6  C   LIG    1       24.666 -14.131   3.748  0.00  0.00    -0.042 A 
ATOM      7  C   LIG    1       25.411 -13.769   4.885  0.00  0.00    +0.053 A 
ATOM      8  C   LIG    1       26.716 -13.360   4.724  0.00  0.00    +0.167 A 
ATOM      9  O   LIG    1       27.578 -13.034   5.724  0.00  0.00    -0.453 OA
ATOM     10  C   LIG    1       28.772 -12.741   4.972  0.00  0.00    +0.466 C 
ATOM     11  O   LIG    1       28.586 -12.850   3.542  0.00  0.00    -0.453 OA
ATOM     12  C   LIG    1       27.293 -13.253   3.479  0.00  0.00    +0.166 A 
ATOM     13  C   LIG    1       26.581 -13.538   2.334  0.00  0.00    +0.050 A 
ATOM     14  C   LIG    1       25.259 -13.980   2.471  0.00  0.00    +0.007 A 
ENDBRANCH   5   6
ENDBRANCH   4   5
ENDBRANCH   1   4
BRANCH   1  15
ATOM     15  C   LIG    1       22.285 -18.211   4.912  0.00  0.00    +0.117 C 
BRANCH  15  16
ATOM     16  C   LIG    1       22.796 -19.556   4.339  0.00  0.00    +0.158 C 
BRANCH  16  17
ATOM     17  C   LIG    1       24.022 -20.072   5.070  0.00  0.00    -0.014 A 
ATOM     18  C   LIG    1       25.308 -19.817   4.568  0.00  0.00    +0.055 A 
ATOM     19  C   LIG    1       26.422 -20.285   5.253  0.00  0.00    +0.159 A 
ATOM     20  C   LIG    1       26.286 -21.003   6.438  0.00  0.00    +0.158 A 
ATOM     21  C   LIG    1       25.025 -21.268   6.954  0.00  0.00    +0.049 A 
ATOM     22  C   LIG    1       23.898 -20.800   6.270  0.00  0.00    +0.010 A 
BRANCH  19  23
ATOM     23  O   LIG    1       27.668 -20.029   4.753  0.00  0.00    -0.503 OA
ATOM     24  H   LIG    1       27.510 -19.774   3.822  0.00  0.00    +0.292 HD
ENDBRANCH  19  23
BRANCH  20  25
ATOM     25  O   LIG    1       27.428 -21.424   7.062  0.00  0.00    -0.503 OA
ATOM     26  H   LIG    1       28.079 -20.703   7.020  0.00  0.00    +0.292 HD
ENDBRANCH  20  25
ENDBRANCH  16  17
BRANCH  16  27
ATOM     27  O   LIG    1       23.116 -19.400   2.951  0.00  0.00    -0.386 OA
ATOM     28  H   LIG    1       24.040 -19.096   2.916  0.00  0.00    +0.210 HD
ENDBRANCH  16  27
ENDBRANCH  15  16
ENDBRANCH   1  15
TORSDOF 9
ENDMDL
MODEL 4
REMARK VINA RESULT:      -5.0      2.624      7.668
REMARK  Name = *****
REMARK                            x       y       z     vdW  Elec       q    Type
REMARK                         _______ _______ _______ _____ _____    ______ ____
ROOT
ATOM      1  N   LIG    1       21.741 -17.653   4.199  0.00  0.00    -0.310 NA
ATOM      2  H   LIG    1       21.360 -17.282   3.324  0.00  0.00    +0.122 HD
ENDROOT
BRANCH   1   4
ATOM      3  C   LIG    1       21.976 -15.941   5.975  0.00  0.00    +0.024 C 
ATOM      4  C   LIG    1       22.663 -16.671   4.811  0.00  0.00    +0.055 C 
BRANCH   4   5
ATOM      5  C   LIG    1       23.131 -15.676   3.705  0.00  0.00    +0.053 C 
BRANCH   5   6
ATOM      6  C   LIG    1       24.341 -14.820   4.033  0.00  0.00    -0.042 A 
ATOM      7  C   LIG    1       25.615 -15.200   3.568  0.00  0.00    +0.053 A 
ATOM      8  C   LIG    1       26.687 -14.374   3.817  0.00  0.00    +0.167 A 
ATOM      9  O   LIG    1       27.962 -14.573   3.387  0.00  0.00    -0.453 OA
ATOM     10  C   LIG    1       28.611 -13.391   3.900  0.00  0.00    +0.466 C 
ATOM     11  O   LIG    1       27.726 -12.540   4.663  0.00  0.00    -0.453 OA
ATOM     12  C   LIG    1       26.554 -13.214   4.546  0.00  0.00    +0.166 A 
ATOM     13  C   LIG    1       25.339 -12.836   5.074  0.00  0.00    +0.050 A 
ATOM     14  C   LIG    1       24.226 -13.645   4.814  0.00  0.00    +0.007 A 
ENDBRANCH   5   6
ENDBRANCH   4   5
ENDBRANCH   1   4
BRANCH   1  15
ATOM     15  C   LIG    1       22.364 -18.954   3.886  0.00  0.00    +0.117 C 
BRANCH  15  16
ATOM     16  C   LIG    1       22.346 -19.914   5.103  0.00  0.00    +0.158 C 
BRANCH  16  17
ATOM     17  C   LIG    1       23.740 -20.329   5.537  0.00  0.00    -0.014 A 
ATOM     18  C   LIG    1       24.868 -19.865   4.841  0.00  0.00    +0.055 A 
ATOM     19  C   LIG    1       26.138 -20.244   5.257  0.00  0.00    +0.159 A 
ATOM     20  C   LIG    1       26.315 -21.076   6.359  0.00  0.00    +0.158 A 
ATOM     21  C   LIG    1       25.215 -21.548   7.062  0.00  0.00    +0.049 A 
ATOM     22  C   LIG    1       23.932 -21.171   6.651  0.00  0.00    +0.010 A 
BRANCH  19  23
ATOM     23  O   LIG    1       27.228 -19.785   4.571  0.00  0.00    -0.503 OA
ATOM     24  H   LIG    1       26.952 -19.804   3.633  0.00  0.00    +0.292 HD
ENDBRANCH  19  23
BRANCH  20  25
ATOM     25  O   LIG    1       27.595 -21.398   6.714  0.00  0.00    -0.503 OA
ATOM     26  H   LIG    1       27.577 -21.759   7.618  0.00  0.00    +0.292 HD
ENDBRANCH  20  25
ENDBRANCH  16  17
BRANCH  16  27
ATOM     27  O   LIG    1       21.592 -21.089   4.779  0.00  0.00    -0.386 OA
ATOM     28  H   LIG    1       21.690 -21.692   5.536  0.00  0.00    +0.210 HD
ENDBRANCH  16  27
ENDBRANCH  15  16
ENDBRANCH   1  15
TORSDOF 9
ENDMDL
MODEL 5
REMARK VINA RESULT:      -4.3      2.864      4.327
REMARK  Name = *****
REMARK                            x       y       z     vdW  Elec       q    Type
REMARK                         _______ _______ _______ _____ _____    ______ ____
ROOT
ATOM      1  N   LIG    1       23.331 -16.515   3.710  0.00  0.00    -0.310 NA
ATOM      2  H   LIG    1       23.290 -16.522   2.686  0.00  0.00    +0.122 HD
ENDROOT
BRANCH   1   4
ATOM      3  C   LIG    1       21.978 -16.785   5.768  0.00  0.00    +0.024 C 
ATOM      4  C   LIG    1       22.099 -17.111   4.272  0.00  0.00    +0.055 C 
BRANCH   4   5
ATOM      5  C   LIG    1       22.134 -18.650   4.020  0.00  0.00    +0.053 C 
BRANCH   5   6
ATOM      6  C   LIG    1       23.129 -19.448   4.843  0.00  0.00    -0.042 A 
ATOM      7  C   LIG    1       24.499 -19.401   4.524  0.00  0.00    +0.053 A 
ATOM      8  C   LIG    1       25.392 -20.078   5.325  0.00  0.00    +0.167 A 
ATOM      9  O   LIG    1       26.745 -20.083   5.182  0.00  0.00    -0.453 OA
ATOM     10  C   LIG    1       27.135 -20.898   6.304  0.00  0.00    +0.466 C 
ATOM     11  O   LIG    1       26.011 -21.402   7.062  0.00  0.00    -0.453 OA
ATOM     12  C   LIG    1       24.975 -20.833   6.398  0.00  0.00    +0.166 A 
ATOM     13  C   LIG    1       23.639 -20.957   6.708  0.00  0.00    +0.050 A 
ATOM     14  C   LIG    1       22.711 -20.259   5.926  0.00  0.00    +0.007 A 
ENDBRANCH   5   6
ENDBRANCH   4   5
ENDBRANCH   1   4
BRANCH   1  15
ATOM     15  C   LIG    1       23.573 -15.120   4.128  0.00  0.00    +0.117 C 
BRANCH  15  16
ATOM     16  C   LIG    1       24.529 -14.381   3.158  0.00  0.00    +0.158 C 
BRANCH  16  17
ATOM     17  C   LIG    1       25.749 -13.815   3.862  0.00  0.00    -0.014 A 
ATOM     18  C   LIG    1       26.969 -13.690   3.178  0.00  0.00    +0.055 A 
ATOM     19  C   LIG    1       28.074 -13.160   3.831  0.00  0.00    +0.159 A 
ATOM     20  C   LIG    1       27.994 -12.744   5.157  0.00  0.00    +0.158 A 
ATOM     21  C   LIG    1       26.799 -12.858   5.854  0.00  0.00    +0.049 A 
ATOM     22  C   LIG    1       25.680 -13.391   5.204  0.00  0.00    +0.010 A 
BRANCH  19  23
ATOM     23  O   LIG    1       29.256 -13.044   3.153  0.00  0.00    -0.503 OA
ATOM     24  H   LIG    1       29.448 -13.951   2.840  0.00  0.00    +0.292 HD
ENDBRANCH  19  23
BRANCH  20  25
ATOM     25  O   LIG    1       29.120 -12.224   5.731  0.00  0.00    -0.503 OA
ATOM     26  H   LIG    1       29.721 -11.945   5.019  0.00  0.00    +0.292 HD
ENDBRANCH  20  25
ENDBRANCH  16  17
BRANCH  16  27
ATOM     27  O   LIG    1       23.828 -13.311   2.511  0.00  0.00    -0.386 OA
ATOM     28  H   LIG    1       22.890 -13.418   2.747  0.00  0.00    +0.210 HD
ENDBRANCH  16  27
ENDBRANCH  15  16
ENDBRANCH   1  15
TORSDOF 9
ENDMDL
MODEL 6
REMARK VINA RESULT:      -4.2      2.355      4.293
REMARK  Name = *****
REMARK                            x       y       z     vdW  Elec       q    Type
REMARK                         _______ _______ _______ _____ _____    ______ ____
ROOT
ATOM      1  N   LIG    1       22.954 -17.947   4.596  0.00  0.00    -0.310 NA
ATOM      2  H   LIG    1       23.960 -17.784   4.699  0.00  0.00    +0.122 HD
ENDROOT
BRANCH   1   4
ATOM      3  C   LIG    1       22.188 -20.217   5.227  0.00  0.00    +0.024 C 
ATOM      4  C   LIG    1       22.709 -19.317   4.096  0.00  0.00    +0.055 C 
BRANCH   4   5
ATOM      5  C   LIG    1       24.035 -19.868   3.489  0.00  0.00    +0.053 C 
BRANCH   5   6
ATOM      6  C   LIG    1       25.192 -20.060   4.453  0.00  0.00    -0.042 A 
ATOM      7  C   LIG    1       26.383 -19.332   4.272  0.00  0.00    +0.053 A 
ATOM      8  C   LIG    1       27.394 -19.469   5.197  0.00  0.00    +0.167 A 
ATOM      9  O   LIG    1       28.575 -18.795   5.192  0.00  0.00    -0.453 OA
ATOM     10  C   LIG    1       29.187 -19.305   6.394  0.00  0.00    +0.466 C 
ATOM     11  O   LIG    1       28.384 -20.305   7.061  0.00  0.00    -0.453 OA
ATOM     12  C   LIG    1       27.287 -20.332   6.264  0.00  0.00    +0.166 A 
ATOM     13  C   LIG    1       26.165 -21.111   6.444  0.00  0.00    +0.050 A 
ATOM     14  C   LIG    1       25.111 -20.972   5.533  0.00  0.00    +0.007 A 
ENDBRANCH   5   6
ENDBRANCH   4   5
ENDBRANCH   1   4
BRANCH   1  15
ATOM     15  C   LIG    1       22.427 -16.880   3.722  0.00  0.00    +0.117 C 
BRANCH  15  16
ATOM     16  C   LIG    1       22.606 -15.474   4.348  0.00  0.00    +0.158 C 
BRANCH  16  17
ATOM     17  C   LIG    1       23.858 -14.772   3.855  0.00  0.00    -0.014 A 
ATOM     18  C   LIG    1       23.767 -13.529   3.209  0.00  0.00    +0.055 A 
ATOM     19  C   LIG    1       24.922 -12.892   2.774  0.00  0.00    +0.159 A 
ATOM     20  C   LIG    1       26.175 -13.464   2.970  0.00  0.00    +0.158 A 
ATOM     21  C   LIG    1       26.290 -14.693   3.606  0.00  0.00    +0.049 A 
ATOM     22  C   LIG    1       25.132 -15.342   4.049  0.00  0.00    +0.010 A 
BRANCH  19  23
ATOM     23  O   LIG    1       24.819 -11.682   2.146  0.00  0.00    -0.503 OA
ATOM     24  H   LIG    1       25.277 -11.057   2.742  0.00  0.00    +0.292 HD
ENDBRANCH  19  23
BRANCH  20  25
ATOM     25  O   LIG    1       27.267 -12.775   2.522  0.00  0.00    -0.503 OA
ATOM     26  H   LIG    1       27.049 -11.827   2.525  0.00  0.00    +0.292 HD
ENDBRANCH  20  25
ENDBRANCH  16  17
BRANCH  16  27
ATOM     27  O   LIG    1       22.667 -15.586   5.775  0.00  0.00    -0.386 OA
ATOM     28  H   LIG    1       23.598 -15.445   6.020  0.00  0.00    +0.210 HD
ENDBRANCH  16  27
ENDBRANCH  15  16
ENDBRANCH   1  15
TORSDOF 9
ENDMDL
MODEL 7
REMARK VINA RESULT:      -3.2      1.308      6.951
REMARK  Name = *****
REMARK                            x       y       z     vdW  Elec       q    Type
REMARK                         _______ _______ _______ _____ _____    ______ ____
ROOT
ATOM      1  N   LIG    1       28.660 -18.087   4.416  0.00  0.00    -0.310 NA
ATOM      2  H   LIG    1       29.642 -18.228   4.162  0.00  0.00    +0.122 HD
ENDROOT
BRANCH   1   4
ATOM      3  C   LIG    1       28.375 -15.881   5.508  0.00  0.00    +0.024 C 
ATOM      4  C   LIG    1       28.275 -16.675   4.197  0.00  0.00    +0.055 C 
BRANCH   4   5
ATOM      5  C   LIG    1       26.829 -16.641   3.614  0.00  0.00    +0.053 C 
BRANCH   5   6
ATOM      6  C   LIG    1       26.243 -15.269   3.337  0.00  0.00    -0.042 A 
ATOM      7  C   LIG    1       25.101 -14.839   4.039  0.00  0.00    +0.053 A 
ATOM      8  C   LIG    1       24.626 -13.565   3.822  0.00  0.00    +0.167 A 
ATOM      9  O   LIG    1       23.574 -12.988   4.461  0.00  0.00    -0.453 OA
ATOM     10  C   LIG    1       23.582 -11.673   3.868  0.00  0.00    +0.466 C 
ATOM     11  O   LIG    1       24.602 -11.510   2.857  0.00  0.00    -0.453 OA
ATOM     12  C   LIG    1       25.211 -12.721   2.905  0.00  0.00    +0.166 A 
ATOM     13  C   LIG    1       26.292 -13.122   2.151  0.00  0.00    +0.050 A 
ATOM     14  C   LIG    1       26.810 -14.404   2.369  0.00  0.00    +0.007 A 
ENDBRANCH   5   6
ENDBRANCH   4   5
ENDBRANCH   1   4
BRANCH   1  15
ATOM     15  C   LIG    1       28.499 -18.548   5.809  0.00  0.00    +0.117 C 
BRANCH  15  16
ATOM     16  C   LIG    1       28.195 -20.066   5.887  0.00  0.00    +0.158 C 
BRANCH  16  17
ATOM     17  C   LIG    1       26.706 -20.361   5.915  0.00  0.00    -0.014 A 
ATOM     18  C   LIG    1       25.898 -20.038   4.814  0.00  0.00    +0.055 A 
ATOM     19  C   LIG    1       24.539 -20.324   4.848  0.00  0.00    +0.159 A 
ATOM     20  C   LIG    1       23.961 -20.930   5.960  0.00  0.00    +0.158 A 
ATOM     21  C   LIG    1       24.740 -21.258   7.062  0.00  0.00    +0.049 A 
ATOM     22  C   LIG    1       26.110 -20.974   7.035  0.00  0.00    +0.010 A 
BRANCH  19  23
ATOM     23  O   LIG    1       23.764 -20.005   3.769  0.00  0.00    -0.503 OA
ATOM     24  H   LIG    1       24.375 -20.051   3.007  0.00  0.00    +0.292 HD
ENDBRANCH  19  23
BRANCH  20  25
ATOM     25  O   LIG    1       22.620 -21.189   5.919  0.00  0.00    -0.503 OA
ATOM     26  H   LIG    1       22.159 -20.480   6.399  0.00  0.00    +0.292 HD
ENDBRANCH  20  25
ENDBRANCH  16  17
BRANCH  16  27
ATOM     27  O   LIG    1       28.801 -20.620   7.062  0.00  0.00    -0.386 OA
ATOM     28  H   LIG    1       28.227 -20.370   7.807  0.00  0.00    +0.210 HD
ENDBRANCH  16  27
ENDBRANCH  15  16
ENDBRANCH   1  15
TORSDOF 9
ENDMDL
MODEL 8
REMARK VINA RESULT:      -2.9      1.603      2.472
REMARK  Name = *****
REMARK                            x       y       z     vdW  Elec       q    Type
REMARK                         _______ _______ _______ _____ _____    ______ ____
ROOT
ATOM      1  N   LIG    1       26.306 -19.649   3.884  0.00  0.00    -0.310 NA
ATOM      2  H   LIG    1       25.536 -20.301   3.711  0.00  0.00    +0.122 HD
ENDROOT
BRANCH   1   4
ATOM      3  C   LIG    1       28.056 -20.073   5.587  0.00  0.00    +0.024 C 
ATOM      4  C   LIG    1       26.618 -19.599   5.330  0.00  0.00    +0.055 C 
BRANCH   4   5
ATOM      5  C   LIG    1       25.578 -20.478   6.090  0.00  0.00    +0.053 C 
BRANCH   5   6
ATOM      6  C   LIG    1       24.149 -20.429   5.581  0.00  0.00    -0.042 A 
ATOM      7  C   LIG    1       23.626 -19.225   5.075  0.00  0.00    +0.053 A 
ATOM      8  C   LIG    1       22.351 -19.219   4.555  0.00  0.00    +0.167 A 
ATOM      9  O   LIG    1       21.730 -18.155   3.980  0.00  0.00    -0.453 OA
ATOM     10  C   LIG    1       20.473 -18.747   3.594  0.00  0.00    +0.466 C 
ATOM     11  O   LIG    1       20.351 -20.132   3.989  0.00  0.00    -0.453 OA
ATOM     12  C   LIG    1       21.562 -20.347   4.561  0.00  0.00    +0.166 A 
ATOM     13  C   LIG    1       22.010 -21.531   5.104  0.00  0.00    +0.050 A 
ATOM     14  C   LIG    1       23.312 -21.572   5.616  0.00  0.00    +0.007 A 
ENDBRANCH   5   6
ENDBRANCH   4   5
ENDBRANCH   1   4
BRANCH   1  15
ATOM     15  C   LIG    1       25.914 -18.348   3.305  0.00  0.00    +0.117 C 
BRANCH  15  16
ATOM     16  C   LIG    1       26.592 -17.160   4.034  0.00  0.00    +0.158 C 
BRANCH  16  17
ATOM     17  C   LIG    1       25.935 -15.830   3.714  0.00  0.00    -0.014 A 
ATOM     18  C   LIG    1       26.693 -14.773   3.185  0.00  0.00    +0.055 A 
ATOM     19  C   LIG    1       26.076 -13.564   2.886  0.00  0.00    +0.159 A 
ATOM     20  C   LIG    1       24.713 -13.382   3.099  0.00  0.00    +0.158 A 
ATOM     21  C   LIG    1       23.943 -14.412   3.622  0.00  0.00    +0.049 A 
ATOM     22  C   LIG    1       24.556 -15.633   3.926  0.00  0.00    +0.010 A 
BRANCH  19  23
ATOM     23  O   LIG    1       26.826 -12.544   2.372  0.00  0.00    -0.503 OA
ATOM     24  H   LIG    1       26.812 -12.693   1.405  0.00  0.00    +0.292 HD
ENDBRANCH  19  23
BRANCH  20  25
ATOM     25  O   LIG    1       24.174 -12.168   2.773  0.00  0.00    -0.503 OA
ATOM     26  H   LIG    1       24.874 -11.497   2.846  0.00  0.00    +0.292 HD
ENDBRANCH  20  25
ENDBRANCH  16  17
BRANCH  16  27
ATOM     27  O   LIG    1       27.975 -17.095   3.666  0.00  0.00    -0.386 OA
ATOM     28  H   LIG    1       28.111 -16.217   3.268  0.00  0.00    +0.210 HD
ENDBRANCH  16  27
ENDBRANCH  15  16
ENDBRANCH   1  15
TORSDOF 9
ENDMDL
