MODEL 1
REMARK VINA RESULT:      -9.3      0.000      0.000
REMARK  Name = *****
REMARK                            x       y       z     vdW  Elec       q    Type
REMARK                         _______ _______ _______ _____ _____    ______ ____
ROOT
ATOM      1  C   LIG    1       25.431 -26.798   6.817  0.00  0.00    +0.034 A 
ATOM      2  C   LIG    1       26.293 -27.245   7.823  0.00  0.00    +0.027 A 
ATOM      3  C   LIG    1       26.118 -28.522   8.425  0.00  0.00    -0.037 A 
ATOM      4  C   LIG    1       27.059 -28.872   9.552  0.00  0.00    +0.044 C 
ATOM      5  C   LIG    1       25.085 -29.386   7.966  0.00  0.00    +0.040 A 
ATOM      6  C   LIG    1       24.310 -28.946   6.887  0.00  0.00    +0.015 A 
ATOM      7  C   LIG    1       24.486 -27.682   6.322  0.00  0.00    +0.024 A 
ENDROOT
BRANCH   5   8
ATOM      8  C   LIG    1       24.874 -30.791   8.505  0.00  0.00    +0.251 C 
ATOM      9  N   LIG    1       24.049 -31.050   9.636  0.00  0.00    -0.267 N 
ATOM     10  C   LIG    1       23.743 -30.119  10.664  0.00  0.00    +0.042 A 
ATOM     11  C   LIG    1       22.405 -29.924  11.083  0.00  0.00    +0.004 A 
ATOM     12  C   LIG    1       22.159 -28.957  12.078  0.00  0.00    +0.028 A 
ATOM     13  C   LIG    1       23.207 -28.245  12.661  0.00  0.00    +0.041 A 
ATOM     14  C   LIG    1       24.523 -28.500  12.292  0.00  0.00    +0.022 A 
ATOM     15 CL   LIG    1       22.868 -27.042  13.844  0.00  0.00    -0.084 Cl
ATOM     16  C   LIG    1       21.250 -30.655  10.416  0.00  0.00    +0.146 C 
ATOM     17  C   LIG    1       21.300 -32.178  10.592  0.00  0.00    +0.038 C 
ATOM     18  C   LIG    1       22.349 -32.877   9.729  0.00  0.00    +0.022 C 
ATOM     19  C   LIG    1       24.792 -29.440  11.298  0.00  0.00    +0.025 A 
ATOM     20  C   LIG    1       23.781 -32.444  10.021  0.00  0.00    +0.114 C 
ATOM     21  O   LIG    1       25.367 -31.717   7.857  0.00  0.00    -0.270 OA
BRANCH  16  22
ATOM     22  O   LIG    1       19.994 -30.193  10.930  0.00  0.00    -0.387 OA
ATOM     23  H   LIG    1       20.152 -29.794  11.802  0.00  0.00    +0.210 HD
ENDBRANCH  16  22
ENDBRANCH   5   8
BRANCH   1  25
ATOM     24  C   LIG    1       24.431 -24.565   6.434  0.00  0.00    +0.248 C 
ATOM     25  N   LIG    1       25.511 -25.452   6.379  0.00  0.00    -0.281 N 
ATOM     26  H   LIG    1       26.434 -25.063   6.273  0.00  0.00    +0.155 HD
ATOM     27  O   LIG    1       23.299 -24.835   6.783  0.00  0.00    -0.270 OA
BRANCH  24  30
ATOM     28  C   LIG    1       25.919 -22.830   8.397  0.00  0.00    +0.044 C 
ATOM     29  C   LIG    1       25.510 -22.350   7.028  0.00  0.00    -0.038 A 
ATOM     30  C   LIG    1       24.766 -23.140   6.126  0.00  0.00    +0.040 A 
ATOM     31  C   LIG    1       24.338 -22.591   4.904  0.00  0.00    +0.013 A 
ATOM     32  C   LIG    1       24.729 -21.304   4.535  0.00  0.00    +0.001 A 
ATOM     33  C   LIG    1       25.529 -20.551   5.388  0.00  0.00    +0.000 A 
ATOM     34  C   LIG    1       25.899 -21.059   6.632  0.00  0.00    +0.004 A 
ENDBRANCH  24  30
ENDBRANCH   1  25
TORSDOF 4
ENDMDL
MODEL 2
REMARK VINA RESULT:      -9.2      0.726      1.428
REMARK  Name = *****
REMARK                            x       y       z     vdW  Elec       q    Type
REMARK                         _______ _______ _______ _____ _____    ______ ____
ROOT
ATOM      1  C   LIG    1       25.431 -26.479   6.802  0.00  0.00    +0.034 A 
ATOM      2  C   LIG    1       24.562 -27.393   6.197  0.00  0.00    +0.027 A 
ATOM      3  C   LIG    1       24.598 -28.774   6.534  0.00  0.00    -0.037 A 
ATOM      4  C   LIG    1       23.669 -29.682   5.766  0.00  0.00    +0.044 C 
ATOM      5  C   LIG    1       25.493 -29.234   7.541  0.00  0.00    +0.040 A 
ATOM      6  C   LIG    1       26.271 -28.275   8.198  0.00  0.00    +0.015 A 
ATOM      7  C   LIG    1       26.234 -26.926   7.840  0.00  0.00    +0.024 A 
ENDROOT
BRANCH   5   8
ATOM      8  C   LIG    1       25.546 -30.679   8.011  0.00  0.00    +0.251 C 
ATOM      9  N   LIG    1       24.807 -31.132   9.140  0.00  0.00    -0.267 N 
ATOM     10  C   LIG    1       24.367 -30.320  10.219  0.00  0.00    +0.042 A 
ATOM     11  C   LIG    1       23.026 -30.385  10.667  0.00  0.00    +0.004 A 
ATOM     12  C   LIG    1       22.638 -29.524  11.714  0.00  0.00    +0.028 A 
ATOM     13  C   LIG    1       23.558 -28.667  12.316  0.00  0.00    +0.041 A 
ATOM     14  C   LIG    1       24.890 -28.668  11.914  0.00  0.00    +0.022 A 
ATOM     15 CL   LIG    1       23.042 -27.601  13.564  0.00  0.00    -0.084 Cl
ATOM     16  C   LIG    1       22.002 -31.277   9.982  0.00  0.00    +0.146 C 
ATOM     17  C   LIG    1       22.323 -32.773  10.079  0.00  0.00    +0.038 C 
ATOM     18  C   LIG    1       23.457 -33.234   9.166  0.00  0.00    +0.022 C 
ATOM     19  C   LIG    1       25.295 -29.497  10.870  0.00  0.00    +0.025 A 
ATOM     20  C   LIG    1       24.798 -32.568   9.457  0.00  0.00    +0.114 C 
ATOM     21  O   LIG    1       26.179 -31.471   7.309  0.00  0.00    -0.270 OA
BRANCH  16  22
ATOM     22  O   LIG    1       20.698 -31.068  10.538  0.00  0.00    -0.387 OA
ATOM     23  H   LIG    1       20.212 -31.908  10.495  0.00  0.00    +0.210 HD
ENDBRANCH  16  22
ENDBRANCH   5   8
BRANCH   1  25
ATOM     24  C   LIG    1       24.446 -24.244   6.398  0.00  0.00    +0.248 C 
ATOM     25  N   LIG    1       25.504 -25.154   6.305  0.00  0.00    -0.281 N 
ATOM     26  H   LIG    1       26.424 -24.788   6.121  0.00  0.00    +0.155 HD
ATOM     27  O   LIG    1       23.337 -24.477   6.834  0.00  0.00    -0.270 OA
BRANCH  24  30
ATOM     28  C   LIG    1       25.933 -22.403   8.262  0.00  0.00    +0.044 C 
ATOM     29  C   LIG    1       25.528 -22.000   6.868  0.00  0.00    -0.038 A 
ATOM     30  C   LIG    1       24.784 -22.839   6.011  0.00  0.00    +0.040 A 
ATOM     31  C   LIG    1       24.360 -22.359   4.758  0.00  0.00    +0.013 A 
ATOM     32  C   LIG    1       24.753 -21.096   4.318  0.00  0.00    +0.001 A 
ATOM     33  C   LIG    1       25.553 -20.297   5.129  0.00  0.00    +0.000 A 
ATOM     34  C   LIG    1       25.920 -20.735   6.400  0.00  0.00    +0.004 A 
ENDBRANCH  24  30
ENDBRANCH   1  25
TORSDOF 4
ENDMDL
MODEL 3
REMARK VINA RESULT:      -8.1      0.842      1.893
REMARK  Name = *****
REMARK                            x       y       z     vdW  Elec       q    Type
REMARK                         _______ _______ _______ _____ _____    ______ ____
ROOT
ATOM      1  C   LIG    1       25.748 -26.508   7.025  0.00  0.00    +0.034 A 
ATOM      2  C   LIG    1       24.836 -27.237   6.257  0.00  0.00    +0.027 A 
ATOM      3  C   LIG    1       24.643 -28.630   6.473  0.00  0.00    -0.037 A 
ATOM      4  C   LIG    1       23.690 -29.333   5.538  0.00  0.00    +0.044 C 
ATOM      5  C   LIG    1       25.347 -29.288   7.520  0.00  0.00    +0.040 A 
ATOM      6  C   LIG    1       26.171 -28.504   8.334  0.00  0.00    +0.015 A 
ATOM      7  C   LIG    1       26.361 -27.141   8.094  0.00  0.00    +0.024 A 
ENDROOT
BRANCH   5   8
ATOM      8  C   LIG    1       25.147 -30.756   7.863  0.00  0.00    +0.251 C 
ATOM      9  N   LIG    1       24.397 -31.169   9.000  0.00  0.00    -0.267 N 
ATOM     10  C   LIG    1       24.180 -30.395  10.171  0.00  0.00    +0.042 A 
ATOM     11  C   LIG    1       22.878 -30.252  10.707  0.00  0.00    +0.004 A 
ATOM     12  C   LIG    1       22.719 -29.437  11.847  0.00  0.00    +0.028 A 
ATOM     13  C   LIG    1       23.818 -28.828  12.451  0.00  0.00    +0.041 A 
ATOM     14  C   LIG    1       25.101 -29.037  11.957  0.00  0.00    +0.022 A 
ATOM     15 CL   LIG    1       23.584 -27.807  13.816  0.00  0.00    -0.084 Cl
ATOM     16  C   LIG    1       21.667 -30.868  10.025  0.00  0.00    +0.146 C 
ATOM     17  C   LIG    1       21.699 -32.399   9.974  0.00  0.00    +0.038 C 
ATOM     18  C   LIG    1       22.673 -32.975   8.948  0.00  0.00    +0.022 C 
ATOM     19  C   LIG    1       25.282 -29.825  10.821  0.00  0.00    +0.025 A 
ATOM     20  C   LIG    1       24.130 -32.601   9.197  0.00  0.00    +0.114 C 
ATOM     21  O   LIG    1       25.578 -31.581   7.055  0.00  0.00    -0.270 OA
BRANCH  16  22
ATOM     22  O   LIG    1       20.458 -30.474  10.688  0.00  0.00    -0.387 OA
ATOM     23  H   LIG    1       19.720 -30.586  10.066  0.00  0.00    +0.210 HD
ENDBRANCH  16  22
ENDBRANCH   5   8
BRANCH   1  25
ATOM     24  C   LIG    1       25.138 -24.125   6.739  0.00  0.00    +0.248 C 
ATOM     25  N   LIG    1       26.059 -25.175   6.657  0.00  0.00    -0.281 N 
ATOM     26  H   LIG    1       27.036 -24.938   6.587  0.00  0.00    +0.155 HD
ATOM     27  O   LIG    1       23.969 -24.221   7.054  0.00  0.00    -0.270 OA
BRANCH  24  30
ATOM     28  C   LIG    1       24.152 -22.349   4.514  0.00  0.00    +0.044 C 
ATOM     29  C   LIG    1       25.206 -21.915   5.499  0.00  0.00    -0.038 A 
ATOM     30  C   LIG    1       25.710 -22.762   6.510  0.00  0.00    +0.040 A 
ATOM     31  C   LIG    1       26.761 -22.320   7.333  0.00  0.00    +0.013 A 
ATOM     32  C   LIG    1       27.241 -21.015   7.222  0.00  0.00    +0.001 A 
ATOM     33  C   LIG    1       26.692 -20.151   6.280  0.00  0.00    +0.000 A 
ATOM     34  C   LIG    1       25.698 -20.602   5.412  0.00  0.00    +0.004 A 
ENDBRANCH  24  30
ENDBRANCH   1  25
TORSDOF 4
ENDMDL
MODEL 4
REMARK VINA RESULT:      -8.1      3.213      4.934
REMARK  Name = *****
REMARK                            x       y       z     vdW  Elec       q    Type
REMARK                         _______ _______ _______ _____ _____    ______ ____
ROOT
ATOM      1  C   LIG    1       25.225 -26.588   6.621  0.00  0.00    +0.034 A 
ATOM      2  C   LIG    1       26.101 -26.998   7.631  0.00  0.00    +0.027 A 
ATOM      3  C   LIG    1       25.901 -28.226   8.321  0.00  0.00    -0.037 A 
ATOM      4  C   LIG    1       26.862 -28.534   9.443  0.00  0.00    +0.044 C 
ATOM      5  C   LIG    1       24.827 -29.082   7.949  0.00  0.00    +0.040 A 
ATOM      6  C   LIG    1       24.037 -28.688   6.864  0.00  0.00    +0.015 A 
ATOM      7  C   LIG    1       24.238 -27.470   6.211  0.00  0.00    +0.024 A 
ENDROOT
BRANCH   5   8
ATOM      8  C   LIG    1       24.586 -30.441   8.585  0.00  0.00    +0.251 C 
ATOM      9  N   LIG    1       25.143 -31.635   8.047  0.00  0.00    -0.267 N 
ATOM     10  C   LIG    1       25.527 -31.830   6.693  0.00  0.00    +0.042 A 
ATOM     11  C   LIG    1       26.794 -32.375   6.377  0.00  0.00    +0.004 A 
ATOM     12  C   LIG    1       27.134 -32.506   5.015  0.00  0.00    +0.028 A 
ATOM     13  C   LIG    1       26.233 -32.149   4.013  0.00  0.00    +0.041 A 
ATOM     14  C   LIG    1       24.964 -31.684   4.340  0.00  0.00    +0.022 A 
ATOM     15 CL   LIG    1       26.696 -32.282   2.361  0.00  0.00    -0.084 Cl
ATOM     16  C   LIG    1       27.804 -32.718   7.461  0.00  0.00    +0.146 C 
ATOM     17  C   LIG    1       27.337 -33.825   8.412  0.00  0.00    +0.038 C 
ATOM     18  C   LIG    1       26.280 -33.383   9.422  0.00  0.00    +0.022 C 
ATOM     19  C   LIG    1       24.608 -31.530   5.679  0.00  0.00    +0.025 A 
ATOM     20  C   LIG    1       24.982 -32.895   8.789  0.00  0.00    +0.114 C 
ATOM     21  O   LIG    1       23.970 -30.455   9.653  0.00  0.00    -0.270 OA
BRANCH  16  22
ATOM     22  O   LIG    1       29.048 -33.130   6.880  0.00  0.00    -0.387 OA
ATOM     23  H   LIG    1       29.179 -34.072   7.081  0.00  0.00    +0.210 HD
ENDBRANCH  16  22
ENDBRANCH   5   8
BRANCH   1  25
ATOM     24  C   LIG    1       24.358 -24.295   6.276  0.00  0.00    +0.248 C 
ATOM     25  N   LIG    1       25.336 -25.278   6.092  0.00  0.00    -0.281 N 
ATOM     26  H   LIG    1       26.254 -24.980   5.806  0.00  0.00    +0.155 HD
ATOM     27  O   LIG    1       23.287 -24.443   6.829  0.00  0.00    -0.270 OA
BRANCH  24  30
ATOM     28  C   LIG    1       25.972 -22.455   8.032  0.00  0.00    +0.044 C 
ATOM     29  C   LIG    1       25.551 -22.087   6.633  0.00  0.00    -0.038 A 
ATOM     30  C   LIG    1       24.749 -22.922   5.826  0.00  0.00    +0.040 A 
ATOM     31  C   LIG    1       24.315 -22.471   4.567  0.00  0.00    +0.013 A 
ATOM     32  C   LIG    1       24.753 -21.244   4.069  0.00  0.00    +0.001 A 
ATOM     33  C   LIG    1       25.608 -20.453   4.829  0.00  0.00    +0.000 A 
ATOM     34  C   LIG    1       25.987 -20.859   6.108  0.00  0.00    +0.004 A 
ENDBRANCH  24  30
ENDBRANCH   1  25
TORSDOF 4
ENDMDL
MODEL 5
REMARK VINA RESULT:      -7.7      2.030      2.770
REMARK  Name = *****
REMARK                            x       y       z     vdW  Elec       q    Type
REMARK                         _______ _______ _______ _____ _____    ______ ____
ROOT
ATOM      1  C   LIG    1       24.335 -25.867   5.522  0.00  0.00    +0.034 A 
ATOM      2  C   LIG    1       25.541 -26.255   4.930  0.00  0.00    +0.027 A 
ATOM      3  C   LIG    1       26.072 -27.559   5.133  0.00  0.00    -0.037 A 
ATOM      4  C   LIG    1       27.415 -27.846   4.509  0.00  0.00    +0.044 C 
ATOM      5  C   LIG    1       25.345 -28.508   5.906  0.00  0.00    +0.040 A 
ATOM      6  C   LIG    1       24.093 -28.116   6.393  0.00  0.00    +0.015 A 
ATOM      7  C   LIG    1       23.598 -26.826   6.198  0.00  0.00    +0.024 A 
ENDROOT
BRANCH   5   8
ATOM      8  C   LIG    1       25.805 -29.941   6.112  0.00  0.00    +0.251 C 
ATOM      9  N   LIG    1       25.726 -30.584   7.380  0.00  0.00    -0.267 N 
ATOM     10  C   LIG    1       25.710 -29.927   8.639  0.00  0.00    +0.042 A 
ATOM     11  C   LIG    1       24.740 -30.261   9.613  0.00  0.00    +0.004 A 
ATOM     12  C   LIG    1       24.749 -29.545  10.827  0.00  0.00    +0.028 A 
ATOM     13  C   LIG    1       25.712 -28.568  11.076  0.00  0.00    +0.041 A 
ATOM     14  C   LIG    1       26.705 -28.302  10.139  0.00  0.00    +0.022 A 
ATOM     15 CL   LIG    1       25.670 -27.684  12.552  0.00  0.00    -0.084 Cl
ATOM     16  C   LIG    1       23.653 -31.286   9.331  0.00  0.00    +0.146 C 
ATOM     17  C   LIG    1       24.188 -32.701   9.082  0.00  0.00    +0.038 C 
ATOM     18  C   LIG    1       24.841 -32.896   7.715  0.00  0.00    +0.022 C 
ATOM     19  C   LIG    1       26.707 -28.984   8.923  0.00  0.00    +0.025 A 
ATOM     20  C   LIG    1       26.061 -32.012   7.479  0.00  0.00    +0.114 C 
ATOM     21  O   LIG    1       26.157 -30.564   5.108  0.00  0.00    -0.270 OA
BRANCH  16  22
ATOM     22  O   LIG    1       22.724 -31.352  10.422  0.00  0.00    -0.387 OA
ATOM     23  H   LIG    1       21.913 -30.887  10.157  0.00  0.00    +0.210 HD
ENDBRANCH  16  22
ENDBRANCH   5   8
BRANCH   1  25
ATOM     24  C   LIG    1       24.773 -23.449   5.827  0.00  0.00    +0.248 C 
ATOM     25  N   LIG    1       23.936 -24.509   5.462  0.00  0.00    -0.281 N 
ATOM     26  H   LIG    1       23.128 -24.297   4.899  0.00  0.00    +0.155 HD
ATOM     27  O   LIG    1       25.889 -23.546   6.296  0.00  0.00    -0.270 OA
BRANCH  24  30
ATOM     28  C   LIG    1       23.036 -21.911   7.749  0.00  0.00    +0.044 C 
ATOM     29  C   LIG    1       23.482 -21.350   6.424  0.00  0.00    -0.038 A 
ATOM     30  C   LIG    1       24.250 -22.087   5.496  0.00  0.00    +0.040 A 
ATOM     31  C   LIG    1       24.549 -21.532   4.239  0.00  0.00    +0.013 A 
ATOM     32  C   LIG    1       24.175 -20.222   3.940  0.00  0.00    +0.001 A 
ATOM     33  C   LIG    1       23.485 -19.466   4.882  0.00  0.00    +0.000 A 
ATOM     34  C   LIG    1       23.124 -20.030   6.105  0.00  0.00    +0.004 A 
ENDBRANCH  24  30
ENDBRANCH   1  25
TORSDOF 4
ENDMDL
MODEL 6
REMARK VINA RESULT:      -7.0      5.137      7.333
REMARK  Name = *****
REMARK                            x       y       z     vdW  Elec       q    Type
REMARK                         _______ _______ _______ _____ _____    ______ ____
ROOT
ATOM      1  C   LIG    1       23.744 -31.998  10.257  0.00  0.00    +0.034 A 
ATOM      2  C   LIG    1       22.528 -31.344  10.035  0.00  0.00    +0.027 A 
ATOM      3  C   LIG    1       21.624 -31.094  11.104  0.00  0.00    -0.037 A 
ATOM      4  C   LIG    1       20.309 -30.450  10.740  0.00  0.00    +0.044 C 
ATOM      5  C   LIG    1       21.978 -31.463  12.433  0.00  0.00    +0.040 A 
ATOM      6  C   LIG    1       23.247 -32.018  12.629  0.00  0.00    +0.015 A 
ATOM      7  C   LIG    1       24.113 -32.272  11.564  0.00  0.00    +0.024 A 
ENDROOT
BRANCH   5   8
ATOM      8  C   LIG    1       21.103 -31.168  13.640  0.00  0.00    +0.251 C 
ATOM      9  N   LIG    1       20.932 -29.848  14.143  0.00  0.00    -0.267 N 
ATOM     10  C   LIG    1       21.847 -28.775  13.973  0.00  0.00    +0.042 A 
ATOM     11  C   LIG    1       21.395 -27.509  13.530  0.00  0.00    +0.004 A 
ATOM     12  C   LIG    1       22.356 -26.495  13.340  0.00  0.00    +0.028 A 
ATOM     13  C   LIG    1       23.703 -26.721  13.620  0.00  0.00    +0.041 A 
ATOM     14  C   LIG    1       24.121 -27.948  14.125  0.00  0.00    +0.022 A 
ATOM     15 CL   LIG    1       24.855 -25.475  13.338  0.00  0.00    -0.084 Cl
ATOM     16  C   LIG    1       19.938 -27.267  13.170  0.00  0.00    +0.146 C 
ATOM     17  C   LIG    1       18.975 -27.425  14.352  0.00  0.00    +0.038 C 
ATOM     18  C   LIG    1       18.718 -28.873  14.766  0.00  0.00    +0.022 C 
ATOM     19  C   LIG    1       23.193 -28.972  14.306  0.00  0.00    +0.025 A 
ATOM     20  C   LIG    1       19.966 -29.617  15.228  0.00  0.00    +0.114 C 
ATOM     21  O   LIG    1       20.461 -32.112  14.107  0.00  0.00    -0.270 OA
BRANCH  16  22
ATOM     22  O   LIG    1       19.762 -25.950  12.631  0.00  0.00    -0.387 OA
ATOM     23  H   LIG    1       20.580 -25.449  12.782  0.00  0.00    +0.210 HD
ENDBRANCH  16  22
ENDBRANCH   5   8
BRANCH   1  25
ATOM     24  C   LIG    1       25.609 -31.662   8.662  0.00  0.00    +0.248 C 
ATOM     25  N   LIG    1       24.528 -32.405   9.148  0.00  0.00    -0.281 N 
ATOM     26  H   LIG    1       24.463 -33.373   8.877  0.00  0.00    +0.155 HD
ATOM     27  O   LIG    1       25.965 -30.572   9.061  0.00  0.00    -0.270 OA
BRANCH  24  30
ATOM     28  C   LIG    1       25.133 -31.247   5.717  0.00  0.00    +0.044 C 
ATOM     29  C   LIG    1       26.245 -32.113   6.250  0.00  0.00    -0.038 A 
ATOM     30  C   LIG    1       26.438 -32.354   7.627  0.00  0.00    +0.040 A 
ATOM     31  C   LIG    1       27.438 -33.250   8.047  0.00  0.00    +0.013 A 
ATOM     32  C   LIG    1       28.303 -33.825   7.116  0.00  0.00    +0.001 A 
ATOM     33  C   LIG    1       28.165 -33.528   5.764  0.00  0.00    +0.000 A 
ATOM     34  C   LIG    1       27.133 -32.696   5.332  0.00  0.00    +0.004 A 
ENDBRANCH  24  30
ENDBRANCH   1  25
TORSDOF 4
ENDMDL
MODEL 7
REMARK VINA RESULT:      -6.7      4.010      9.157
REMARK  Name = *****
REMARK                            x       y       z     vdW  Elec       q    Type
REMARK                         _______ _______ _______ _____ _____    ______ ____
ROOT
ATOM      1  C   LIG    1       25.287 -27.242   5.910  0.00  0.00    +0.034 A 
ATOM      2  C   LIG    1       25.371 -26.265   4.913  0.00  0.00    +0.027 A 
ATOM      3  C   LIG    1       24.639 -25.050   5.012  0.00  0.00    -0.037 A 
ATOM      4  C   LIG    1       24.744 -24.100   3.845  0.00  0.00    +0.044 C 
ATOM      5  C   LIG    1       23.848 -24.792   6.167  0.00  0.00    +0.040 A 
ATOM      6  C   LIG    1       23.873 -25.745   7.191  0.00  0.00    +0.015 A 
ATOM      7  C   LIG    1       24.584 -26.941   7.065  0.00  0.00    +0.024 A 
ENDROOT
BRANCH   5   8
ATOM      8  C   LIG    1       23.093 -23.491   6.386  0.00  0.00    +0.251 C 
ATOM      9  N   LIG    1       23.756 -22.232   6.432  0.00  0.00    -0.267 N 
ATOM     10  C   LIG    1       25.118 -22.030   6.778  0.00  0.00    +0.042 A 
ATOM     11  C   LIG    1       25.955 -21.228   5.966  0.00  0.00    +0.004 A 
ATOM     12  C   LIG    1       27.308 -21.098   6.339  0.00  0.00    +0.028 A 
ATOM     13  C   LIG    1       27.795 -21.706   7.495  0.00  0.00    +0.041 A 
ATOM     14  C   LIG    1       26.944 -22.430   8.323  0.00  0.00    +0.022 A 
ATOM     15 CL   LIG    1       29.462 -21.561   7.899  0.00  0.00    -0.084 Cl
ATOM     16  C   LIG    1       25.447 -20.605   4.675  0.00  0.00    +0.146 C 
ATOM     17  C   LIG    1       24.324 -19.583   4.883  0.00  0.00    +0.038 C 
ATOM     18  C   LIG    1       22.967 -20.198   5.216  0.00  0.00    +0.022 C 
ATOM     19  C   LIG    1       25.605 -22.587   7.968  0.00  0.00    +0.025 A 
ATOM     20  C   LIG    1       22.951 -21.004   6.511  0.00  0.00    +0.114 C 
ATOM     21  O   LIG    1       21.862 -23.560   6.419  0.00  0.00    -0.270 OA
BRANCH  16  22
ATOM     22  O   LIG    1       26.515 -19.951   3.975  0.00  0.00    -0.387 OA
ATOM     23  H   LIG    1       26.988 -20.620   3.452  0.00  0.00    +0.210 HD
ENDBRANCH  16  22
ENDBRANCH   5   8
BRANCH   1  25
ATOM     24  C   LIG    1       25.190 -29.716   5.921  0.00  0.00    +0.248 C 
ATOM     25  N   LIG    1       25.869 -28.515   5.688  0.00  0.00    -0.281 N 
ATOM     26  H   LIG    1       26.690 -28.544   5.106  0.00  0.00    +0.155 HD
ATOM     27  O   LIG    1       24.078 -29.830   6.395  0.00  0.00    -0.270 OA
BRANCH  24  30
ATOM     28  C   LIG    1       26.666 -31.552   7.798  0.00  0.00    +0.044 C 
ATOM     29  C   LIG    1       26.534 -31.828   6.323  0.00  0.00    -0.038 A 
ATOM     30  C   LIG    1       25.890 -30.944   5.430  0.00  0.00    +0.040 A 
ATOM     31  C   LIG    1       25.889 -31.221   4.051  0.00  0.00    +0.013 A 
ATOM     32  C   LIG    1       26.433 -32.412   3.572  0.00  0.00    +0.001 A 
ATOM     33  C   LIG    1       26.998 -33.323   4.459  0.00  0.00    +0.000 A 
ATOM     34  C   LIG    1       27.068 -33.025   5.819  0.00  0.00    +0.004 A 
ENDBRANCH  24  30
ENDBRANCH   1  25
TORSDOF 4
ENDMDL
MODEL 8
REMARK VINA RESULT:      -6.6      2.994      4.474
REMARK  Name = *****
REMARK                            x       y       z     vdW  Elec       q    Type
REMARK                         _______ _______ _______ _____ _____    ______ ____
ROOT
ATOM      1  C   LIG    1       26.569 -28.924   9.822  0.00  0.00    +0.034 A 
ATOM      2  C   LIG    1       27.009 -28.283  10.984  0.00  0.00    +0.027 A 
ATOM      3  C   LIG    1       26.896 -28.909  12.256  0.00  0.00    -0.037 A 
ATOM      4  C   LIG    1       27.332 -28.097  13.450  0.00  0.00    +0.044 C 
ATOM      5  C   LIG    1       26.378 -30.232  12.350  0.00  0.00    +0.040 A 
ATOM      6  C   LIG    1       26.048 -30.880  11.156  0.00  0.00    +0.015 A 
ATOM      7  C   LIG    1       26.149 -30.241   9.918  0.00  0.00    +0.024 A 
ENDROOT
BRANCH   5   8
ATOM      8  C   LIG    1       26.290 -30.999  13.659  0.00  0.00    +0.251 C 
ATOM      9  N   LIG    1       25.047 -31.241  14.310  0.00  0.00    -0.267 N 
ATOM     10  C   LIG    1       23.873 -30.454  14.166  0.00  0.00    +0.042 A 
ATOM     11  C   LIG    1       22.625 -31.066  13.901  0.00  0.00    +0.004 A 
ATOM     12  C   LIG    1       21.504 -30.229  13.727  0.00  0.00    +0.028 A 
ATOM     13  C   LIG    1       21.615 -28.845  13.854  0.00  0.00    +0.041 A 
ATOM     14  C   LIG    1       22.833 -28.263  14.187  0.00  0.00    +0.022 A 
ATOM     15 CL   LIG    1       20.235 -27.851  13.594  0.00  0.00    -0.084 Cl
ATOM     16  C   LIG    1       22.503 -32.569  13.708  0.00  0.00    +0.146 C 
ATOM     17  C   LIG    1       22.871 -33.384  14.954  0.00  0.00    +0.038 C 
ATOM     18  C   LIG    1       24.369 -33.458  15.238  0.00  0.00    +0.022 C 
ATOM     19  C   LIG    1       23.961 -29.067  14.348  0.00  0.00    +0.025 A 
ATOM     20  C   LIG    1       25.020 -32.105  15.500  0.00  0.00    +0.114 C 
ATOM     21  O   LIG    1       27.334 -31.498  14.085  0.00  0.00    -0.270 OA
BRANCH  16  22
ATOM     22  O   LIG    1       21.167 -32.923  13.327  0.00  0.00    -0.387 OA
ATOM     23  H   LIG    1       20.682 -33.181  14.128  0.00  0.00    +0.210 HD
ENDBRANCH  16  22
ENDBRANCH   5   8
BRANCH   1  25
ATOM     24  C   LIG    1       25.425 -28.260   7.729  0.00  0.00    +0.248 C 
ATOM     25  N   LIG    1       26.514 -28.200   8.605  0.00  0.00    -0.281 N 
ATOM     26  H   LIG    1       27.156 -27.431   8.504  0.00  0.00    +0.155 HD
ATOM     27  O   LIG    1       24.446 -28.969   7.850  0.00  0.00    -0.270 OA
BRANCH  24  30
ATOM     28  C   LIG    1       25.482 -29.133   4.846  0.00  0.00    +0.044 C 
ATOM     29  C   LIG    1       25.431 -27.685   5.260  0.00  0.00    -0.038 A 
ATOM     30  C   LIG    1       25.459 -27.270   6.608  0.00  0.00    +0.040 A 
ATOM     31  C   LIG    1       25.504 -25.898   6.916  0.00  0.00    +0.013 A 
ATOM     32  C   LIG    1       25.422 -24.945   5.901  0.00  0.00    +0.001 A 
ATOM     33  C   LIG    1       25.316 -25.352   4.575  0.00  0.00    +0.000 A 
ATOM     34  C   LIG    1       25.341 -26.708   4.254  0.00  0.00    +0.004 A 
ENDBRANCH  24  30
ENDBRANCH   1  25
TORSDOF 4
ENDMDL
