MODEL 1
REMARK VINA RESULT:      -9.5      0.000      0.000
REMARK  Name = *****
REMARK                            x       y       z     vdW  Elec       q    Type
REMARK                         _______ _______ _______ _____ _____    ______ ____
ROOT
ATOM      1  C   LIG    1       23.817 -22.635   6.057  0.00  0.00    +0.095 C 
ENDROOT
BRANCH   1   2
ATOM      2  C   LIG    1       24.418 -22.273   7.460  0.00  0.00    +0.033 C 
ATOM      3  C   LIG    1       25.915 -22.649   7.717  0.00  0.00    +0.018 C 
ATOM      4  C   LIG    1       26.138 -21.930   9.057  0.00  0.00    +0.015 C 
ATOM      5  C   LIG    1       25.826 -20.548   8.478  0.00  0.00    +0.012 C 
ATOM      6  C   LIG    1       26.809 -20.554   7.336  0.00  0.00    -0.027 C 
ATOM      7  C   LIG    1       26.864 -21.823   6.878  0.00  0.00    -0.027 C 
ATOM      8  C   LIG    1       24.416 -20.756   7.876  0.00  0.00    +0.015 C 
ENDBRANCH   1   2
BRANCH   1   9
ATOM      9  C   LIG    1       23.685 -21.347   5.206  0.00  0.00    -0.016 A 
ATOM     10  C   LIG    1       22.582 -20.485   5.336  0.00  0.00    +0.006 A 
ATOM     11  C   LIG    1       22.498 -19.288   4.614  0.00  0.00    +0.000 A 
ATOM     12  C   LIG    1       23.530 -18.906   3.766  0.00  0.00    +0.000 A 
ATOM     13  C   LIG    1       24.630 -19.743   3.608  0.00  0.00    +0.000 A 
ATOM     14  C   LIG    1       24.699 -20.957   4.306  0.00  0.00    +0.006 A 
ENDBRANCH   1   9
BRANCH   1  15
ATOM     15  O   LIG    1       22.548 -23.258   6.269  0.00  0.00    -0.384 OA
ATOM     16  H   LIG    1       22.370 -23.854   5.526  0.00  0.00    +0.211 HD
ENDBRANCH   1  15
BRANCH   1  17
ATOM     17  C   LIG    1       24.718 -23.693   5.345  0.00  0.00    +0.055 C 
BRANCH  17  18
ATOM     18  C   LIG    1       24.294 -25.171   5.518  0.00  0.00    +0.087 C 
BRANCH  18  19
ATOM     19  N   LIG    1       25.344 -26.124   5.085  0.00  0.00    -0.302 NA
ATOM     20  C   LIG    1       26.450 -26.226   6.057  0.00  0.00    +0.084 C 
ATOM     21  C   LIG    1       26.056 -26.920   7.364  0.00  0.00    +0.015 C 
ATOM     22  C   LIG    1       25.420 -28.286   7.106  0.00  0.00    +0.002 C 
ATOM     23  C   LIG    1       24.340 -28.215   6.029  0.00  0.00    +0.015 C 
ATOM     24  C   LIG    1       24.843 -27.474   4.789  0.00  0.00    +0.084 C 
ENDBRANCH  18  19
ENDBRANCH  17  18
ENDBRANCH   1  17
TORSDOF 6
ENDMDL
MODEL 2
REMARK VINA RESULT:      -8.7      2.511      5.540
REMARK  Name = *****
REMARK                            x       y       z     vdW  Elec       q    Type
REMARK                         _______ _______ _______ _____ _____    ______ ____
ROOT
ATOM      1  C   LIG    1       25.666 -21.687   6.681  0.00  0.00    +0.095 C 
ENDROOT
BRANCH   1   2
ATOM      2  C   LIG    1       24.898 -23.011   7.023  0.00  0.00    +0.033 C 
ATOM      3  C   LIG    1       23.949 -23.594   5.924  0.00  0.00    +0.018 C 
ATOM      4  C   LIG    1       23.610 -24.950   6.563  0.00  0.00    +0.015 C 
ATOM      5  C   LIG    1       25.069 -25.414   6.584  0.00  0.00    +0.012 C 
ATOM      6  C   LIG    1       25.391 -25.212   5.125  0.00  0.00    -0.027 C 
ATOM      7  C   LIG    1       24.713 -24.115   4.727  0.00  0.00    -0.027 C 
ATOM      8  C   LIG    1       25.763 -24.278   7.372  0.00  0.00    +0.015 C 
ENDBRANCH   1   2
BRANCH   1   9
ATOM      9  C   LIG    1       24.737 -20.747   5.875  0.00  0.00    -0.016 A 
ATOM     10  C   LIG    1       25.121 -20.215   4.631  0.00  0.00    +0.006 A 
ATOM     11  C   LIG    1       24.253 -19.419   3.873  0.00  0.00    +0.000 A 
ATOM     12  C   LIG    1       22.965 -19.159   4.326  0.00  0.00    +0.000 A 
ATOM     13  C   LIG    1       22.558 -19.662   5.557  0.00  0.00    +0.000 A 
ATOM     14  C   LIG    1       23.439 -20.431   6.331  0.00  0.00    +0.006 A 
ENDBRANCH   1   9
BRANCH   1  15
ATOM     15  O   LIG    1       26.836 -22.037   5.937  0.00  0.00    -0.384 OA
ATOM     16  H   LIG    1       27.213 -22.843   6.319  0.00  0.00    +0.211 HD
ENDBRANCH   1  15
BRANCH   1  17
ATOM     17  C   LIG    1       26.163 -21.001   7.993  0.00  0.00    +0.055 C 
BRANCH  17  18
ATOM     18  C   LIG    1       27.376 -20.051   7.844  0.00  0.00    +0.087 C 
BRANCH  18  19
ATOM     19  N   LIG    1       28.500 -20.669   7.102  0.00  0.00    -0.302 NA
ATOM     20  C   LIG    1       28.987 -19.816   6.001  0.00  0.00    +0.084 C 
ATOM     21  C   LIG    1       29.713 -18.554   6.477  0.00  0.00    +0.015 C 
ATOM     22  C   LIG    1       30.837 -18.888   7.457  0.00  0.00    +0.002 C 
ATOM     23  C   LIG    1       30.374 -19.850   8.547  0.00  0.00    +0.015 C 
ATOM     24  C   LIG    1       29.640 -21.051   7.949  0.00  0.00    +0.084 C 
ENDBRANCH  18  19
ENDBRANCH  17  18
ENDBRANCH   1  17
TORSDOF 6
ENDMDL
MODEL 3
REMARK VINA RESULT:      -8.3      2.504      6.072
REMARK  Name = *****
REMARK                            x       y       z     vdW  Elec       q    Type
REMARK                         _______ _______ _______ _____ _____    ______ ____
ROOT
ATOM      1  C   LIG    1       25.204 -21.554   7.320  0.00  0.00    +0.095 C 
ENDROOT
BRANCH   1   2
ATOM      2  C   LIG    1       24.044 -20.703   6.694  0.00  0.00    +0.033 C 
ATOM      3  C   LIG    1       24.360 -19.922   5.375  0.00  0.00    +0.018 C 
ATOM      4  C   LIG    1       22.945 -19.448   5.008  0.00  0.00    +0.015 C 
ATOM      5  C   LIG    1       22.393 -20.872   4.894  0.00  0.00    +0.012 C 
ATOM      6  C   LIG    1       23.393 -21.424   3.911  0.00  0.00    -0.027 C 
ATOM      7  C   LIG    1       24.580 -20.849   4.200  0.00  0.00    -0.027 C 
ATOM      8  C   LIG    1       22.732 -21.466   6.282  0.00  0.00    +0.015 C 
ENDBRANCH   1   2
BRANCH   1   9
ATOM      9  C   LIG    1       24.998 -23.046   6.962  0.00  0.00    -0.016 A 
ATOM     10  C   LIG    1       23.714 -23.615   6.873  0.00  0.00    +0.006 A 
ATOM     11  C   LIG    1       23.528 -24.947   6.484  0.00  0.00    +0.000 A 
ATOM     12  C   LIG    1       24.619 -25.738   6.144  0.00  0.00    +0.000 A 
ATOM     13  C   LIG    1       25.902 -25.208   6.232  0.00  0.00    +0.000 A 
ATOM     14  C   LIG    1       26.091 -23.884   6.654  0.00  0.00    +0.006 A 
ENDBRANCH   1   9
BRANCH   1  15
ATOM     15  O   LIG    1       25.189 -21.344   8.734  0.00  0.00    -0.384 OA
ATOM     16  H   LIG    1       24.856 -22.147   9.161  0.00  0.00    +0.211 HD
ENDBRANCH   1  15
BRANCH   1  17
ATOM     17  C   LIG    1       26.585 -21.036   6.809  0.00  0.00    +0.055 C 
BRANCH  17  18
ATOM     18  C   LIG    1       27.687 -20.870   7.883  0.00  0.00    +0.087 C 
BRANCH  18  19
ATOM     19  N   LIG    1       29.052 -21.078   7.342  0.00  0.00    -0.302 NA
ATOM     20  C   LIG    1       29.290 -20.317   6.101  0.00  0.00    +0.084 C 
ATOM     21  C   LIG    1       29.374 -18.803   6.316  0.00  0.00    +0.015 C 
ATOM     22  C   LIG    1       30.400 -18.444   7.391  0.00  0.00    +0.002 C 
ATOM     23  C   LIG    1       30.229 -19.294   8.647  0.00  0.00    +0.015 C 
ATOM     24  C   LIG    1       30.128 -20.780   8.299  0.00  0.00    +0.084 C 
ENDBRANCH  18  19
ENDBRANCH  17  18
ENDBRANCH   1  17
TORSDOF 6
ENDMDL
MODEL 4
REMARK VINA RESULT:      -8.2      1.737      2.577
REMARK  Name = *****
REMARK                            x       y       z     vdW  Elec       q    Type
REMARK                         _______ _______ _______ _____ _____    ______ ____
ROOT
ATOM      1  C   LIG    1       25.933 -21.471   7.359  0.00  0.00    +0.095 C 
ENDROOT
BRANCH   1   2
ATOM      2  C   LIG    1       26.940 -20.268   7.377  0.00  0.00    +0.033 C 
ATOM      3  C   LIG    1       28.089 -20.311   8.439  0.00  0.00    +0.018 C 
ATOM      4  C   LIG    1       28.932 -19.119   7.960  0.00  0.00    +0.015 C 
ATOM      5  C   LIG    1       29.193 -19.733   6.582  0.00  0.00    +0.012 C 
ATOM      6  C   LIG    1       29.759 -21.057   7.028  0.00  0.00    -0.027 C 
ATOM      7  C   LIG    1       29.093 -21.404   8.151  0.00  0.00    -0.027 C 
ATOM      8  C   LIG    1       27.760 -19.994   6.062  0.00  0.00    +0.015 C 
ENDBRANCH   1   2
BRANCH   1   9
ATOM      9  C   LIG    1       24.792 -21.171   6.355  0.00  0.00    -0.016 A 
ATOM     10  C   LIG    1       23.592 -20.561   6.760  0.00  0.00    +0.006 A 
ATOM     11  C   LIG    1       22.590 -20.230   5.840  0.00  0.00    +0.000 A 
ATOM     12  C   LIG    1       22.775 -20.474   4.484  0.00  0.00    +0.000 A 
ATOM     13  C   LIG    1       23.947 -21.086   4.053  0.00  0.00    +0.000 A 
ATOM     14  C   LIG    1       24.936 -21.447   4.978  0.00  0.00    +0.006 A 
ENDBRANCH   1   9
BRANCH   1  15
ATOM     15  O   LIG    1       25.433 -21.646   8.687  0.00  0.00    -0.384 OA
ATOM     16  H   LIG    1       26.076 -22.167   9.191  0.00  0.00    +0.211 HD
ENDBRANCH   1  15
BRANCH   1  17
ATOM     17  C   LIG    1       26.680 -22.790   6.987  0.00  0.00    +0.055 C 
BRANCH  17  18
ATOM     18  C   LIG    1       25.820 -24.077   6.979  0.00  0.00    +0.087 C 
BRANCH  18  19
ATOM     19  N   LIG    1       26.133 -24.969   5.837  0.00  0.00    -0.302 NA
ATOM     20  C   LIG    1       26.688 -26.266   6.269  0.00  0.00    +0.084 C 
ATOM     21  C   LIG    1       25.668 -27.168   6.971  0.00  0.00    +0.015 C 
ATOM     22  C   LIG    1       24.410 -27.359   6.124  0.00  0.00    +0.002 C 
ATOM     23  C   LIG    1       23.879 -26.032   5.587  0.00  0.00    +0.015 C 
ATOM     24  C   LIG    1       24.995 -25.213   4.938  0.00  0.00    +0.084 C 
ENDBRANCH  18  19
ENDBRANCH  17  18
ENDBRANCH   1  17
TORSDOF 6
ENDMDL
MODEL 5
REMARK VINA RESULT:      -7.9      1.331      3.790
REMARK  Name = *****
REMARK                            x       y       z     vdW  Elec       q    Type
REMARK                         _______ _______ _______ _____ _____    ______ ____
ROOT
ATOM      1  C   LIG    1       24.002 -21.733   6.000  0.00  0.00    +0.095 C 
ENDROOT
BRANCH   1   2
ATOM      2  C   LIG    1       22.961 -20.578   5.788  0.00  0.00    +0.033 C 
ATOM      3  C   LIG    1       23.512 -19.196   5.303  0.00  0.00    +0.018 C 
ATOM      4  C   LIG    1       22.187 -18.474   5.012  0.00  0.00    +0.015 C 
ATOM      5  C   LIG    1       21.752 -19.493   3.955  0.00  0.00    +0.012 C 
ATOM      6  C   LIG    1       22.970 -19.435   3.070  0.00  0.00    -0.027 C 
ATOM      7  C   LIG    1       24.033 -19.254   3.884  0.00  0.00    -0.027 C 
ATOM      8  C   LIG    1       21.813 -20.825   4.741  0.00  0.00    +0.015 C 
ENDBRANCH   1   2
BRANCH   1   9
ATOM      9  C   LIG    1       25.279 -21.158   6.660  0.00  0.00    -0.016 A 
ATOM     10  C   LIG    1       25.352 -20.916   8.044  0.00  0.00    +0.006 A 
ATOM     11  C   LIG    1       26.529 -20.459   8.648  0.00  0.00    +0.000 A 
ATOM     12  C   LIG    1       27.676 -20.261   7.888  0.00  0.00    +0.000 A 
ATOM     13  C   LIG    1       27.634 -20.481   6.515  0.00  0.00    +0.000 A 
ATOM     14  C   LIG    1       26.445 -20.907   5.906  0.00  0.00    +0.006 A 
ENDBRANCH   1   9
BRANCH   1  15
ATOM     15  O   LIG    1       24.282 -22.312   4.723  0.00  0.00    -0.384 OA
ATOM     16  H   LIG    1       24.100 -21.651   4.039  0.00  0.00    +0.211 HD
ENDBRANCH   1  15
BRANCH   1  17
ATOM     17  C   LIG    1       23.375 -22.865   6.874  0.00  0.00    +0.055 C 
BRANCH  17  18
ATOM     18  C   LIG    1       23.645 -24.314   6.401  0.00  0.00    +0.087 C 
BRANCH  18  19
ATOM     19  N   LIG    1       24.984 -24.475   5.784  0.00  0.00    -0.302 NA
ATOM     20  C   LIG    1       26.019 -24.842   6.769  0.00  0.00    +0.084 C 
ATOM     21  C   LIG    1       25.865 -26.262   7.322  0.00  0.00    +0.015 C 
ATOM     22  C   LIG    1       25.779 -27.296   6.199  0.00  0.00    +0.002 C 
ATOM     23  C   LIG    1       24.782 -26.881   5.120  0.00  0.00    +0.015 C 
ATOM     24  C   LIG    1       25.019 -25.438   4.674  0.00  0.00    +0.084 C 
ENDBRANCH  18  19
ENDBRANCH  17  18
ENDBRANCH   1  17
TORSDOF 6
ENDMDL
MODEL 6
REMARK VINA RESULT:      -7.9      1.552      3.986
REMARK  Name = *****
REMARK                            x       y       z     vdW  Elec       q    Type
REMARK                         _______ _______ _______ _____ _____    ______ ____
ROOT
ATOM      1  C   LIG    1       25.320 -21.697   6.227  0.00  0.00    +0.095 C 
ENDROOT
BRANCH   1   2
ATOM      2  C   LIG    1       24.042 -20.788   6.205  0.00  0.00    +0.033 C 
ATOM      3  C   LIG    1       24.031 -19.590   5.199  0.00  0.00    +0.018 C 
ATOM      4  C   LIG    1       22.567 -19.143   5.341  0.00  0.00    +0.015 C 
ATOM      5  C   LIG    1       22.009 -20.490   4.874  0.00  0.00    +0.012 C 
ATOM      6  C   LIG    1       22.746 -20.598   3.565  0.00  0.00    -0.027 C 
ATOM      7  C   LIG    1       23.966 -20.054   3.760  0.00  0.00    -0.027 C 
ATOM      8  C   LIG    1       22.671 -21.479   5.862  0.00  0.00    +0.015 C 
ENDBRANCH   1   2
BRANCH   1   9
ATOM      9  C   LIG    1       26.563 -20.828   6.545  0.00  0.00    -0.016 A 
ATOM     10  C   LIG    1       27.032 -20.661   7.860  0.00  0.00    +0.006 A 
ATOM     11  C   LIG    1       28.193 -19.931   8.138  0.00  0.00    +0.000 A 
ATOM     12  C   LIG    1       28.935 -19.372   7.103  0.00  0.00    +0.000 A 
ATOM     13  C   LIG    1       28.492 -19.511   5.792  0.00  0.00    +0.000 A 
ATOM     14  C   LIG    1       27.311 -20.214   5.517  0.00  0.00    +0.006 A 
ENDBRANCH   1   9
BRANCH   1  15
ATOM     15  O   LIG    1       25.432 -22.330   4.951  0.00  0.00    -0.384 OA
ATOM     16  H   LIG    1       26.104 -21.862   4.433  0.00  0.00    +0.211 HD
ENDBRANCH   1  15
BRANCH   1  17
ATOM     17  C   LIG    1       25.147 -22.840   7.277  0.00  0.00    +0.055 C 
BRANCH  17  18
ATOM     18  C   LIG    1       25.992 -24.114   7.037  0.00  0.00    +0.087 C 
BRANCH  18  19
ATOM     19  N   LIG    1       25.178 -25.353   7.050  0.00  0.00    -0.302 NA
ATOM     20  C   LIG    1       24.233 -25.421   5.919  0.00  0.00    +0.084 C 
ATOM     21  C   LIG    1       24.915 -25.628   4.563  0.00  0.00    +0.015 C 
ATOM     22  C   LIG    1       25.846 -26.840   4.580  0.00  0.00    +0.002 C 
ATOM     23  C   LIG    1       26.763 -26.835   5.801  0.00  0.00    +0.015 C 
ATOM     24  C   LIG    1       25.970 -26.591   7.086  0.00  0.00    +0.084 C 
ENDBRANCH  18  19
ENDBRANCH  17  18
ENDBRANCH   1  17
TORSDOF 6
ENDMDL
MODEL 7
REMARK VINA RESULT:      -7.9      2.226      3.583
REMARK  Name = *****
REMARK                            x       y       z     vdW  Elec       q    Type
REMARK                         _______ _______ _______ _____ _____    ______ ____
ROOT
ATOM      1  C   LIG    1       26.658 -21.047   7.604  0.00  0.00    +0.095 C 
ENDROOT
BRANCH   1   2
ATOM      2  C   LIG    1       28.068 -20.843   6.947  0.00  0.00    +0.033 C 
ATOM      3  C   LIG    1       28.616 -19.380   6.864  0.00  0.00    +0.018 C 
ATOM      4  C   LIG    1       30.051 -19.664   6.395  0.00  0.00    +0.015 C 
ATOM      5  C   LIG    1       30.393 -20.498   7.633  0.00  0.00    +0.012 C 
ATOM      6  C   LIG    1       30.023 -19.493   8.693  0.00  0.00    -0.027 C 
ATOM      7  C   LIG    1       28.951 -18.816   8.228  0.00  0.00    -0.027 C 
ATOM      8  C   LIG    1       29.287 -21.580   7.614  0.00  0.00    +0.015 C 
ENDBRANCH   1   2
BRANCH   1   9
ATOM      9  C   LIG    1       25.557 -20.628   6.597  0.00  0.00    -0.016 A 
ATOM     10  C   LIG    1       25.863 -20.288   5.267  0.00  0.00    +0.006 A 
ATOM     11  C   LIG    1       24.860 -19.974   4.342  0.00  0.00    +0.000 A 
ATOM     12  C   LIG    1       23.522 -20.022   4.714  0.00  0.00    +0.000 A 
ATOM     13  C   LIG    1       23.188 -20.345   6.025  0.00  0.00    +0.000 A 
ATOM     14  C   LIG    1       24.194 -20.627   6.960  0.00  0.00    +0.006 A 
ENDBRANCH   1   9
BRANCH   1  15
ATOM     15  O   LIG    1       26.609 -20.259   8.796  0.00  0.00    -0.384 OA
ATOM     16  H   LIG    1       25.822 -20.513   9.300  0.00  0.00    +0.211 HD
ENDBRANCH   1  15
BRANCH   1  17
ATOM     17  C   LIG    1       26.483 -22.534   8.046  0.00  0.00    +0.055 C 
BRANCH  17  18
ATOM     18  C   LIG    1       26.454 -23.581   6.906  0.00  0.00    +0.087 C 
BRANCH  18  19
ATOM     19  N   LIG    1       25.393 -24.600   7.089  0.00  0.00    -0.302 NA
ATOM     20  C   LIG    1       24.354 -24.528   6.045  0.00  0.00    +0.084 C 
ATOM     21  C   LIG    1       24.841 -24.973   4.662  0.00  0.00    +0.015 C 
ATOM     22  C   LIG    1       25.481 -26.360   4.711  0.00  0.00    +0.002 C 
ATOM     23  C   LIG    1       26.489 -26.481   5.852  0.00  0.00    +0.015 C 
ATOM     24  C   LIG    1       25.895 -25.980   7.169  0.00  0.00    +0.084 C 
ENDBRANCH  18  19
ENDBRANCH  17  18
ENDBRANCH   1  17
TORSDOF 6
ENDMDL
MODEL 8
REMARK VINA RESULT:      -7.8      2.709      5.650
REMARK  Name = *****
REMARK                            x       y       z     vdW  Elec       q    Type
REMARK                         _______ _______ _______ _____ _____    ______ ____
ROOT
ATOM      1  C   LIG    1       25.648 -21.296   6.381  0.00  0.00    +0.095 C 
ENDROOT
BRANCH   1   2
ATOM      2  C   LIG    1       24.947 -22.585   6.935  0.00  0.00    +0.033 C 
ATOM      3  C   LIG    1       23.966 -23.337   5.976  0.00  0.00    +0.018 C 
ATOM      4  C   LIG    1       23.710 -24.606   6.805  0.00  0.00    +0.015 C 
ATOM      5  C   LIG    1       25.185 -25.019   6.806  0.00  0.00    +0.012 C 
ATOM      6  C   LIG    1       25.425 -25.003   5.318  0.00  0.00    -0.027 C 
ATOM      7  C   LIG    1       24.688 -23.989   4.817  0.00  0.00    -0.027 C 
ATOM      8  C   LIG    1       25.875 -23.768   7.399  0.00  0.00    +0.015 C 
ENDBRANCH   1   2
BRANCH   1   9
ATOM      9  C   LIG    1       24.627 -20.468   5.562  0.00  0.00    -0.016 A 
ATOM     10  C   LIG    1       23.318 -20.242   6.024  0.00  0.00    +0.006 A 
ATOM     11  C   LIG    1       22.418 -19.438   5.314  0.00  0.00    +0.000 A 
ATOM     12  C   LIG    1       22.813 -18.813   4.138  0.00  0.00    +0.000 A 
ATOM     13  C   LIG    1       24.098 -19.024   3.649  0.00  0.00    +0.000 A 
ATOM     14  C   LIG    1       24.989 -19.856   4.343  0.00  0.00    +0.006 A 
ENDBRANCH   1   9
BRANCH   1  15
ATOM     15  O   LIG    1       26.757 -21.708   5.579  0.00  0.00    -0.384 OA
ATOM     16  H   LIG    1       27.095 -20.936   5.102  0.00  0.00    +0.211 HD
ENDBRANCH   1  15
BRANCH   1  17
ATOM     17  C   LIG    1       26.239 -20.459   7.559  0.00  0.00    +0.055 C 
BRANCH  17  18
ATOM     18  C   LIG    1       27.627 -19.822   7.309  0.00  0.00    +0.087 C 
BRANCH  18  19
ATOM     19  N   LIG    1       28.636 -20.231   8.316  0.00  0.00    -0.302 NA
ATOM     20  C   LIG    1       29.820 -20.864   7.704  0.00  0.00    +0.084 C 
ATOM     21  C   LIG    1       30.695 -19.891   6.908  0.00  0.00    +0.015 C 
ATOM     22  C   LIG    1       31.088 -18.675   7.746  0.00  0.00    +0.002 C 
ATOM     23  C   LIG    1       29.887 -18.067   8.465  0.00  0.00    +0.015 C 
ATOM     24  C   LIG    1       29.080 -19.140   9.196  0.00  0.00    +0.084 C 
ENDBRANCH  18  19
ENDBRANCH  17  18
ENDBRANCH   1  17
TORSDOF 6
ENDMDL
MODEL 9
REMARK VINA RESULT:      -7.4      1.491      5.868
REMARK  Name = *****
REMARK                            x       y       z     vdW  Elec       q    Type
REMARK                         _______ _______ _______ _____ _____    ______ ____
ROOT
ATOM      1  C   LIG    1       24.756 -23.500   6.564  0.00  0.00    +0.095 C 
ENDROOT
BRANCH   1   2
ATOM      2  C   LIG    1       25.270 -24.944   6.900  0.00  0.00    +0.033 C 
ATOM      3  C   LIG    1       24.341 -26.143   6.518  0.00  0.00    +0.018 C 
ATOM      4  C   LIG    1       25.297 -27.314   6.794  0.00  0.00    +0.015 C 
ATOM      5  C   LIG    1       26.330 -26.839   5.767  0.00  0.00    +0.012 C 
ATOM      6  C   LIG    1       25.425 -26.738   4.567  0.00  0.00    -0.027 C 
ATOM      7  C   LIG    1       24.223 -26.320   5.020  0.00  0.00    -0.027 C 
ATOM      8  C   LIG    1       26.627 -25.397   6.245  0.00  0.00    +0.015 C 
ENDBRANCH   1   2
BRANCH   1   9
ATOM      9  C   LIG    1       25.632 -22.458   7.304  0.00  0.00    -0.016 A 
ATOM     10  C   LIG    1       26.976 -22.240   6.954  0.00  0.00    +0.006 A 
ATOM     11  C   LIG    1       27.746 -21.252   7.579  0.00  0.00    +0.000 A 
ATOM     12  C   LIG    1       27.182 -20.434   8.551  0.00  0.00    +0.000 A 
ATOM     13  C   LIG    1       25.858 -20.631   8.927  0.00  0.00    +0.000 A 
ATOM     14  C   LIG    1       25.097 -21.643   8.324  0.00  0.00    +0.006 A 
ENDBRANCH   1   9
BRANCH   1  15
ATOM     15  O   LIG    1       23.386 -23.417   6.963  0.00  0.00    -0.384 OA
ATOM     16  H   LIG    1       23.329 -22.852   7.748  0.00  0.00    +0.211 HD
ENDBRANCH   1  15
BRANCH   1  17
ATOM     17  C   LIG    1       24.784 -23.267   5.020  0.00  0.00    +0.055 C 
BRANCH  17  18
ATOM     18  C   LIG    1       24.013 -22.027   4.508  0.00  0.00    +0.087 C 
BRANCH  18  19
ATOM     19  N   LIG    1       24.245 -20.823   5.342  0.00  0.00    -0.302 NA
ATOM     20  C   LIG    1       25.092 -19.822   4.665  0.00  0.00    +0.084 C 
ATOM     21  C   LIG    1       24.404 -19.134   3.483  0.00  0.00    +0.015 C 
ATOM     22  C   LIG    1       23.056 -18.536   3.887  0.00  0.00    +0.002 C 
ATOM     23  C   LIG    1       22.207 -19.530   4.675  0.00  0.00    +0.015 C 
ATOM     24  C   LIG    1       23.013 -20.169   5.807  0.00  0.00    +0.084 C 
ENDBRANCH  18  19
ENDBRANCH  17  18
ENDBRANCH   1  17
TORSDOF 6
ENDMDL
