MODEL 1
REMARK VINA RESULT:      -0.3      0.000      0.000
REMARK  Name = *****
REMARK                            x       y       z     vdW  Elec       q    Type
REMARK                         _______ _______ _______ _____ _____    ______ ____
ROOT
ATOM      1  C   LIG    1       23.368 -16.923   4.099  0.00  0.00    +0.162 A 
ATOM      2  C   LIG    1       23.820 -15.623   4.240  0.00  0.00    +0.167 A 
ATOM      3  O   LIG    1       23.071 -14.502   4.493  0.00  0.00    -0.481 OA
ATOM      4  C   LIG    1       23.981 -13.359   4.425  0.00  0.00    +0.217 C 
ATOM      5  C   LIG    1       25.412 -13.872   4.170  0.00  0.00    +0.048 C 
ATOM      6  C   LIG    1       26.046 -13.491   2.823  0.00  0.00    +0.043 C 
ATOM      7  C   LIG    1       27.476 -14.113   2.832  0.00  0.00    +0.069 C 
ATOM      8  N   LIG    1       28.350 -13.635   3.925  0.00  0.00    -0.301 NA
ATOM      9  C   LIG    1       29.473 -12.841   3.431  0.00  0.00    +0.105 C 
ATOM     10  C   LIG    1       27.648 -12.928   4.995  0.00  0.00    +0.085 C 
ATOM     11  C   LIG    1       27.377 -15.697   2.949  0.00  0.00    +0.055 C 
ATOM     12  C   LIG    1       26.062 -16.225   3.489  0.00  0.00    -0.038 A 
ATOM     13  C   LIG    1       25.641 -17.547   3.375  0.00  0.00    +0.008 A 
ATOM     14  C   LIG    1       25.833 -12.026   2.551  0.00  0.00    -0.023 C 
ATOM     15  C   LIG    1       24.615 -11.503   2.792  0.00  0.00    +0.004 C 
ATOM     16  C   LIG    1       26.339 -13.610   5.386  0.00  0.00    +0.031 C 
ATOM     17  C   LIG    1       23.499 -12.341   3.364  0.00  0.00    +0.178 C 
ATOM     18  C   LIG    1       25.145 -15.322   4.011  0.00  0.00    +0.012 A 
ATOM     19  C   LIG    1       24.308 -17.891   3.695  0.00  0.00    +0.050 A 
ENDROOT
BRANCH  17  20
ATOM     20  O   LIG    1       22.566 -11.447   3.974  0.00  0.00    -0.384 OA
ATOM     21  H   LIG    1       22.084 -11.958   4.646  0.00  0.00    +0.210 HD
ENDBRANCH  17  20
BRANCH   1  22
ATOM     22  O   LIG    1       22.092 -17.385   4.273  0.00  0.00    -0.489 OA
BRANCH  22  24
ATOM     23  C   LIG    1       22.367 -19.560   5.245  0.00  0.00    +0.048 C 
ATOM     24  C   LIG    1       21.885 -18.780   4.036  0.00  0.00    +0.226 C 
ENDBRANCH  22  24
ENDBRANCH   1  22
TORSDOF 3
ENDMDL
MODEL 2
REMARK VINA RESULT:      -0.0      4.202      7.177
REMARK  Name = *****
REMARK                            x       y       z     vdW  Elec       q    Type
REMARK                         _______ _______ _______ _____ _____    ______ ____
ROOT
ATOM      1  C   LIG    1       28.063 -20.097   5.831  0.00  0.00    +0.162 A 
ATOM      2  C   LIG    1       27.001 -19.736   5.022  0.00  0.00    +0.167 A 
ATOM      3  O   LIG    1       26.973 -18.744   4.075  0.00  0.00    -0.481 OA
ATOM      4  C   LIG    1       25.598 -18.665   3.583  0.00  0.00    +0.217 C 
ATOM      5  C   LIG    1       24.758 -19.761   4.265  0.00  0.00    +0.048 C 
ATOM      6  C   LIG    1       23.644 -19.282   5.210  0.00  0.00    +0.043 C 
ATOM      7  C   LIG    1       22.950 -20.574   5.743  0.00  0.00    +0.069 C 
ATOM      8  N   LIG    1       22.354 -21.431   4.696  0.00  0.00    -0.301 NA
ATOM      9  C   LIG    1       20.896 -21.471   4.776  0.00  0.00    +0.105 C 
ATOM     10  C   LIG    1       22.789 -21.115   3.336  0.00  0.00    +0.085 C 
ATOM     11  C   LIG    1       23.997 -21.457   6.553  0.00  0.00    +0.055 C 
ATOM     12  C   LIG    1       25.456 -21.164   6.258  0.00  0.00    -0.038 A 
ATOM     13  C   LIG    1       26.517 -21.572   7.062  0.00  0.00    +0.008 A 
ATOM     14  C   LIG    1       22.852 -18.184   4.555  0.00  0.00    -0.023 C 
ATOM     15  C   LIG    1       23.523 -17.213   3.904  0.00  0.00    +0.004 C 
ATOM     16  C   LIG    1       24.288 -20.837   3.251  0.00  0.00    +0.031 C 
ATOM     17  C   LIG    1       25.027 -17.241   3.788  0.00  0.00    +0.178 C 
ATOM     18  C   LIG    1       25.765 -20.320   5.199  0.00  0.00    +0.012 A 
ATOM     19  C   LIG    1       27.811 -21.053   6.835  0.00  0.00    +0.050 A 
ENDROOT
BRANCH  17  20
ATOM     20  O   LIG    1       25.381 -16.437   2.661  0.00  0.00    -0.384 OA
ATOM     21  H   LIG    1       25.427 -17.031   1.894  0.00  0.00    +0.210 HD
ENDBRANCH  17  20
BRANCH   1  22
ATOM     22  O   LIG    1       29.340 -19.609   5.798  0.00  0.00    -0.489 OA
BRANCH  22  24
ATOM     23  C   LIG    1       29.471 -17.569   7.053  0.00  0.00    +0.048 C 
ATOM     24  C   LIG    1       29.475 -18.192   5.669  0.00  0.00    +0.226 C 
ENDBRANCH  22  24
ENDBRANCH   1  22
TORSDOF 3
ENDMDL
