MODEL 1
REMARK VINA RESULT:      -9.1      0.000      0.000
REMARK  Name = *****
REMARK                            x       y       z     vdW  Elec       q    Type
REMARK                         _______ _______ _______ _____ _____    ______ ____
ROOT
ATOM      1  C   LIG    1       26.595 -22.111   7.743  0.00  0.00    +0.253 C 
ATOM      2  N   LIG    1       27.586 -21.759   6.850  0.00  0.00    -0.260 N 
ATOM      3  H   LIG    1       27.533 -22.101   5.902  0.00  0.00    +0.157 HD
ATOM      4  O   LIG    1       26.458 -21.680   8.888  0.00  0.00    -0.270 OA
ENDROOT
BRANCH   1   6
ATOM      5  C   LIG    1       24.288 -22.753   6.854  0.00  0.00    +0.144 A 
ATOM      6  C   LIG    1       25.596 -23.102   7.242  0.00  0.00    +0.079 A 
ATOM      7  C   LIG    1       25.994 -24.448   7.157  0.00  0.00    +0.017 A 
ATOM      8  C   LIG    1       25.118 -25.418   6.666  0.00  0.00    +0.001 A 
ATOM      9  C   LIG    1       23.847 -25.049   6.235  0.00  0.00    +0.004 A 
ATOM     10  C   LIG    1       23.435 -23.721   6.322  0.00  0.00    +0.047 A 
BRANCH   5  11
ATOM     11  O   LIG    1       23.868 -21.406   7.045  0.00  0.00    -0.425 OA
BRANCH  11  13
ATOM     12  C   LIG    1       24.734 -20.410   5.079  0.00  0.00    +0.136 C 
ATOM     13  C   LIG    1       23.595 -20.468   6.046  0.00  0.00    +0.309 C 
ATOM     14  O   LIG    1       22.567 -19.814   5.913  0.00  0.00    -0.251 OA
ENDBRANCH  11  13
ENDBRANCH   5  11
ENDBRANCH   1   6
BRANCH   2  15
ATOM     15  C   LIG    1       28.546 -20.804   7.039  0.00  0.00    +0.171 A 
ATOM     16  S   LIG    1       29.784 -20.990   8.196  0.00  0.00    +0.022 S 
ATOM     17  C   LIG    1       30.428 -19.501   7.712  0.00  0.00    +0.332 A 
ATOM     18  C   LIG    1       29.672 -18.940   6.710  0.00  0.00    +0.205 A 
ATOM     19  N   LIG    1       28.603 -19.723   6.294  0.00  0.00    -0.226 NA
BRANCH  17  20
ATOM     20  N   LIG    1       31.609 -18.973   8.312  0.00  0.00    +0.089 N 
ATOM     21  O   LIG    1       31.997 -17.853   7.956  0.00  0.00    -0.576 OA
ATOM     22  O   LIG    1       32.157 -19.685   9.162  0.00  0.00    +0.042 OA
ENDBRANCH  17  20
ENDBRANCH   2  15
TORSDOF 5
ENDMDL
MODEL 2
REMARK VINA RESULT:      -8.8      1.726      3.123
REMARK  Name = *****
REMARK                            x       y       z     vdW  Elec       q    Type
REMARK                         _______ _______ _______ _____ _____    ______ ____
ROOT
ATOM      1  C   LIG    1       26.286 -21.908   7.727  0.00  0.00    +0.253 C 
ATOM      2  N   LIG    1       27.065 -21.395   6.711  0.00  0.00    -0.260 N 
ATOM      3  H   LIG    1       26.699 -21.387   5.770  0.00  0.00    +0.157 HD
ATOM      4  O   LIG    1       26.542 -21.877   8.931  0.00  0.00    -0.270 OA
ENDROOT
BRANCH   1   6
ATOM      5  C   LIG    1       24.908 -23.886   6.878  0.00  0.00    +0.144 A 
ATOM      6  C   LIG    1       25.004 -22.545   7.298  0.00  0.00    +0.079 A 
ATOM      7  C   LIG    1       23.841 -21.755   7.319  0.00  0.00    +0.017 A 
ATOM      8  C   LIG    1       22.606 -22.299   6.961  0.00  0.00    +0.001 A 
ATOM      9  C   LIG    1       22.518 -23.641   6.602  0.00  0.00    +0.004 A 
ATOM     10  C   LIG    1       23.663 -24.433   6.567  0.00  0.00    +0.047 A 
BRANCH   5  11
ATOM     11  O   LIG    1       26.111 -24.640   6.763  0.00  0.00    -0.425 OA
BRANCH  11  13
ATOM     12  C   LIG    1       26.170 -26.951   7.278  0.00  0.00    +0.136 C 
ATOM     13  C   LIG    1       26.246 -25.914   6.204  0.00  0.00    +0.309 C 
ATOM     14  O   LIG    1       26.354 -26.187   5.014  0.00  0.00    -0.251 OA
ENDBRANCH  11  13
ENDBRANCH   5  11
ENDBRANCH   1   6
BRANCH   2  15
ATOM     15  C   LIG    1       28.222 -20.681   6.859  0.00  0.00    +0.171 A 
ATOM     16  S   LIG    1       29.353 -21.046   8.081  0.00  0.00    +0.022 S 
ATOM     17  C   LIG    1       30.347 -19.804   7.499  0.00  0.00    +0.332 A 
ATOM     18  C   LIG    1       29.769 -19.177   6.420  0.00  0.00    +0.205 A 
ATOM     19  N   LIG    1       28.553 -19.720   6.027  0.00  0.00    -0.226 NA
BRANCH  17  20
ATOM     20  N   LIG    1       31.607 -19.517   8.102  0.00  0.00    +0.089 N 
ATOM     21  O   LIG    1       32.033 -20.291   8.967  0.00  0.00    -0.576 OA
ATOM     22  O   LIG    1       32.188 -18.502   7.697  0.00  0.00    +0.042 OA
ENDBRANCH  17  20
ENDBRANCH   2  15
TORSDOF 5
ENDMDL
MODEL 3
REMARK VINA RESULT:      -8.6      1.484      3.170
REMARK  Name = *****
REMARK                            x       y       z     vdW  Elec       q    Type
REMARK                         _______ _______ _______ _____ _____    ______ ____
ROOT
ATOM      1  C   LIG    1       26.278 -20.424   6.488  0.00  0.00    +0.253 C 
ATOM      2  N   LIG    1       27.526 -20.389   5.901  0.00  0.00    -0.260 N 
ATOM      3  H   LIG    1       27.592 -20.320   4.896  0.00  0.00    +0.157 HD
ATOM      4  O   LIG    1       26.038 -20.385   7.695  0.00  0.00    -0.270 OA
ENDROOT
BRANCH   1   6
ATOM      5  C   LIG    1       24.007 -21.334   5.752  0.00  0.00    +0.144 A 
ATOM      6  C   LIG    1       25.123 -20.500   5.544  0.00  0.00    +0.079 A 
ATOM      7  C   LIG    1       25.162 -19.693   4.393  0.00  0.00    +0.017 A 
ATOM      8  C   LIG    1       24.099 -19.694   3.487  0.00  0.00    +0.001 A 
ATOM      9  C   LIG    1       22.979 -20.482   3.735  0.00  0.00    +0.004 A 
ATOM     10  C   LIG    1       22.930 -21.294   4.866  0.00  0.00    +0.047 A 
BRANCH   5  11
ATOM     11  O   LIG    1       24.031 -22.221   6.866  0.00  0.00    -0.425 OA
BRANCH  11  13
ATOM     12  C   LIG    1       25.471 -24.101   6.872  0.00  0.00    +0.136 C 
ATOM     13  C   LIG    1       24.057 -23.617   6.820  0.00  0.00    +0.309 C 
ATOM     14  O   LIG    1       23.090 -24.371   6.797  0.00  0.00    -0.251 OA
ENDBRANCH  11  13
ENDBRANCH   5  11
ENDBRANCH   1   6
BRANCH   2  15
ATOM     15  C   LIG    1       28.720 -20.218   6.544  0.00  0.00    +0.171 A 
ATOM     16  S   LIG    1       29.172 -21.188   7.871  0.00  0.00    +0.022 S 
ATOM     17  C   LIG    1       30.646 -20.358   7.946  0.00  0.00    +0.332 A 
ATOM     18  C   LIG    1       30.715 -19.390   6.971  0.00  0.00    +0.205 A 
ATOM     19  N   LIG    1       29.609 -19.342   6.133  0.00  0.00    -0.226 NA
BRANCH  17  20
ATOM     20  N   LIG    1       31.636 -20.687   8.918  0.00  0.00    +0.089 N 
ATOM     21  O   LIG    1       31.859 -21.882   9.147  0.00  0.00    -0.576 OA
ATOM     22  O   LIG    1       32.211 -19.734   9.458  0.00  0.00    +0.042 OA
ENDBRANCH  17  20
ENDBRANCH   2  15
TORSDOF 5
ENDMDL
MODEL 4
REMARK VINA RESULT:      -8.5      1.624      3.187
REMARK  Name = *****
REMARK                            x       y       z     vdW  Elec       q    Type
REMARK                         _______ _______ _______ _____ _____    ______ ____
ROOT
ATOM      1  C   LIG    1       25.557 -20.791   7.306  0.00  0.00    +0.253 C 
ATOM      2  N   LIG    1       26.750 -21.013   6.651  0.00  0.00    -0.260 N 
ATOM      3  H   LIG    1       26.744 -21.125   5.648  0.00  0.00    +0.157 HD
ATOM      4  O   LIG    1       25.418 -20.516   8.498  0.00  0.00    -0.270 OA
ENDROOT
BRANCH   1   6
ATOM      5  C   LIG    1       23.481 -22.008   6.446  0.00  0.00    +0.144 A 
ATOM      6  C   LIG    1       24.329 -20.883   6.459  0.00  0.00    +0.079 A 
ATOM      7  C   LIG    1       24.015 -19.785   5.638  0.00  0.00    +0.017 A 
ATOM      8  C   LIG    1       22.864 -19.796   4.847  0.00  0.00    +0.001 A 
ATOM      9  C   LIG    1       22.006 -20.891   4.887  0.00  0.00    +0.004 A 
ATOM     10  C   LIG    1       22.310 -21.990   5.688  0.00  0.00    +0.047 A 
BRANCH   5  11
ATOM     11  O   LIG    1       23.870 -23.150   7.202  0.00  0.00    -0.425 OA
BRANCH  11  13
ATOM     12  C   LIG    1       25.744 -24.520   6.734  0.00  0.00    +0.136 C 
ATOM     13  C   LIG    1       24.255 -24.394   6.695  0.00  0.00    +0.309 C 
ATOM     14  O   LIG    1       23.514 -25.295   6.317  0.00  0.00    -0.251 OA
ENDBRANCH  11  13
ENDBRANCH   5  11
ENDBRANCH   1   6
BRANCH   2  15
ATOM     15  C   LIG    1       28.003 -20.884   7.183  0.00  0.00    +0.171 A 
ATOM     16  S   LIG    1       29.081 -19.672   6.661  0.00  0.00    +0.022 S 
ATOM     17  C   LIG    1       30.212 -20.220   7.796  0.00  0.00    +0.332 A 
ATOM     18  C   LIG    1       29.718 -21.291   8.503  0.00  0.00    +0.205 A 
ATOM     19  N   LIG    1       28.417 -21.646   8.171  0.00  0.00    -0.226 NA
BRANCH  17  20
ATOM     20  N   LIG    1       31.483 -19.592   7.942  0.00  0.00    +0.089 N 
ATOM     21  O   LIG    1       32.002 -19.572   9.064  0.00  0.00    -0.576 OA
ATOM     22  O   LIG    1       31.979 -19.115   6.913  0.00  0.00    +0.042 OA
ENDBRANCH  17  20
ENDBRANCH   2  15
TORSDOF 5
ENDMDL
MODEL 5
REMARK VINA RESULT:      -8.0      3.910      6.883
REMARK  Name = *****
REMARK                            x       y       z     vdW  Elec       q    Type
REMARK                         _______ _______ _______ _____ _____    ______ ____
ROOT
ATOM      1  C   LIG    1       23.981 -22.594   5.948  0.00  0.00    +0.253 C 
ATOM      2  N   LIG    1       24.716 -23.496   5.208  0.00  0.00    -0.260 N 
ATOM      3  H   LIG    1       25.143 -23.188   4.346  0.00  0.00    +0.157 HD
ATOM      4  O   LIG    1       23.506 -22.784   7.068  0.00  0.00    -0.270 OA
ENDROOT
BRANCH   1   6
ATOM      5  C   LIG    1       24.818 -20.444   4.851  0.00  0.00    +0.144 A 
ATOM      6  C   LIG    1       23.767 -21.259   5.312  0.00  0.00    +0.079 A 
ATOM      7  C   LIG    1       22.443 -20.804   5.174  0.00  0.00    +0.017 A 
ATOM      8  C   LIG    1       22.174 -19.579   4.560  0.00  0.00    +0.001 A 
ATOM      9  C   LIG    1       23.220 -18.811   4.058  0.00  0.00    +0.004 A 
ATOM     10  C   LIG    1       24.537 -19.244   4.197  0.00  0.00    +0.047 A 
BRANCH   5  11
ATOM     11  O   LIG    1       26.155 -20.872   5.094  0.00  0.00    -0.425 OA
BRANCH  11  13
ATOM     12  C   LIG    1       26.606 -20.469   7.383  0.00  0.00    +0.136 C 
ATOM     13  C   LIG    1       27.070 -20.288   5.973  0.00  0.00    +0.309 C 
ATOM     14  O   LIG    1       28.132 -19.750   5.680  0.00  0.00    -0.251 OA
ENDBRANCH  11  13
ENDBRANCH   5  11
ENDBRANCH   1   6
BRANCH   2  15
ATOM     15  C   LIG    1       25.128 -24.734   5.615  0.00  0.00    +0.171 A 
ATOM     16  S   LIG    1       24.099 -26.091   5.546  0.00  0.00    +0.022 S 
ATOM     17  C   LIG    1       25.361 -27.050   6.142  0.00  0.00    +0.332 A 
ATOM     18  C   LIG    1       26.488 -26.294   6.367  0.00  0.00    +0.205 A 
ATOM     19  N   LIG    1       26.359 -24.956   6.019  0.00  0.00    -0.226 NA
BRANCH  17  20
ATOM     20  N   LIG    1       25.197 -28.451   6.347  0.00  0.00    +0.089 N 
ATOM     21  O   LIG    1       25.039 -29.174   5.356  0.00  0.00    -0.576 OA
ATOM     22  O   LIG    1       25.236 -28.841   7.520  0.00  0.00    +0.042 OA
ENDBRANCH  17  20
ENDBRANCH   2  15
TORSDOF 5
ENDMDL
MODEL 6
REMARK VINA RESULT:      -7.8      4.019      7.208
REMARK  Name = *****
REMARK                            x       y       z     vdW  Elec       q    Type
REMARK                         _______ _______ _______ _____ _____    ______ ____
ROOT
ATOM      1  C   LIG    1       24.513 -22.980   5.810  0.00  0.00    +0.253 C 
ATOM      2  N   LIG    1       25.318 -24.021   5.395  0.00  0.00    -0.260 N 
ATOM      3  H   LIG    1       26.093 -23.824   4.778  0.00  0.00    +0.157 HD
ATOM      4  O   LIG    1       23.614 -23.042   6.648  0.00  0.00    -0.270 OA
ENDROOT
BRANCH   1   6
ATOM      5  C   LIG    1       25.912 -20.865   5.494  0.00  0.00    +0.144 A 
ATOM      6  C   LIG    1       24.791 -21.657   5.175  0.00  0.00    +0.079 A 
ATOM      7  C   LIG    1       23.880 -21.187   4.212  0.00  0.00    +0.017 A 
ATOM      8  C   LIG    1       24.099 -19.972   3.559  0.00  0.00    +0.001 A 
ATOM      9  C   LIG    1       25.240 -19.229   3.844  0.00  0.00    +0.004 A 
ATOM     10  C   LIG    1       26.147 -19.676   4.804  0.00  0.00    +0.047 A 
BRANCH   5  11
ATOM     11  O   LIG    1       26.767 -21.305   6.545  0.00  0.00    -0.425 OA
BRANCH  11  13
ATOM     12  C   LIG    1       25.840 -20.681   8.633  0.00  0.00    +0.136 C 
ATOM     13  C   LIG    1       27.036 -20.629   7.738  0.00  0.00    +0.309 C 
ATOM     14  O   LIG    1       28.097 -20.109   8.065  0.00  0.00    -0.251 OA
ENDBRANCH  11  13
ENDBRANCH   5  11
ENDBRANCH   1   6
BRANCH   2  15
ATOM     15  C   LIG    1       25.325 -25.291   5.900  0.00  0.00    +0.171 A 
ATOM     16  S   LIG    1       24.280 -26.500   5.306  0.00  0.00    +0.022 S 
ATOM     17  C   LIG    1       24.978 -27.602   6.385  0.00  0.00    +0.332 A 
ATOM     18  C   LIG    1       25.956 -26.998   7.140  0.00  0.00    +0.205 A 
ATOM     19  N   LIG    1       26.181 -25.665   6.823  0.00  0.00    -0.226 NA
BRANCH  17  20
ATOM     20  N   LIG    1       24.555 -28.962   6.435  0.00  0.00    +0.089 N 
ATOM     21  O   LIG    1       23.926 -29.345   7.429  0.00  0.00    -0.576 OA
ATOM     22  O   LIG    1       24.847 -29.663   5.458  0.00  0.00    +0.042 OA
ENDBRANCH  17  20
ENDBRANCH   2  15
TORSDOF 5
ENDMDL
MODEL 7
REMARK VINA RESULT:      -7.7      1.634      1.791
REMARK  Name = *****
REMARK                            x       y       z     vdW  Elec       q    Type
REMARK                         _______ _______ _______ _____ _____    ______ ____
ROOT
ATOM      1  C   LIG    1       26.860 -20.782   6.409  0.00  0.00    +0.253 C 
ATOM      2  N   LIG    1       27.782 -20.824   7.435  0.00  0.00    -0.260 N 
ATOM      3  H   LIG    1       27.714 -21.559   8.123  0.00  0.00    +0.157 HD
ATOM      4  O   LIG    1       26.884 -20.026   5.437  0.00  0.00    -0.270 OA
ENDROOT
BRANCH   1   6
ATOM      5  C   LIG    1       24.416 -21.475   6.136  0.00  0.00    +0.144 A 
ATOM      6  C   LIG    1       25.744 -21.770   6.503  0.00  0.00    +0.079 A 
ATOM      7  C   LIG    1       26.045 -23.056   6.985  0.00  0.00    +0.017 A 
ATOM      8  C   LIG    1       25.053 -24.035   7.067  0.00  0.00    +0.001 A 
ATOM      9  C   LIG    1       23.758 -23.745   6.647  0.00  0.00    +0.004 A 
ATOM     10  C   LIG    1       23.442 -22.472   6.178  0.00  0.00    +0.047 A 
BRANCH   5  11
ATOM     11  O   LIG    1       24.108 -20.138   5.751  0.00  0.00    -0.425 OA
BRANCH  11  13
ATOM     12  C   LIG    1       22.374 -18.878   4.745  0.00  0.00    +0.136 C 
ATOM     13  C   LIG    1       23.586 -19.724   4.523  0.00  0.00    +0.309 C 
ATOM     14  O   LIG    1       24.053 -19.951   3.412  0.00  0.00    -0.251 OA
ENDBRANCH  11  13
ENDBRANCH   5  11
ENDBRANCH   1   6
BRANCH   2  15
ATOM     15  C   LIG    1       28.936 -20.096   7.518  0.00  0.00    +0.171 A 
ATOM     16  S   LIG    1       29.393 -19.297   8.952  0.00  0.00    +0.022 S 
ATOM     17  C   LIG    1       30.810 -18.776   8.183  0.00  0.00    +0.332 A 
ATOM     18  C   LIG    1       30.858 -19.227   6.885  0.00  0.00    +0.205 A 
ATOM     19  N   LIG    1       29.786 -20.029   6.517  0.00  0.00    -0.226 NA
BRANCH  17  20
ATOM     20  N   LIG    1       31.778 -17.984   8.867  0.00  0.00    +0.089 N 
ATOM     21  O   LIG    1       32.066 -16.876   8.398  0.00  0.00    -0.576 OA
ATOM     22  O   LIG    1       32.255 -18.472   9.899  0.00  0.00    +0.042 OA
ENDBRANCH  17  20
ENDBRANCH   2  15
TORSDOF 5
ENDMDL
MODEL 8
REMARK VINA RESULT:      -7.5      4.589      7.383
REMARK  Name = *****
REMARK                            x       y       z     vdW  Elec       q    Type
REMARK                         _______ _______ _______ _____ _____    ______ ____
ROOT
ATOM      1  C   LIG    1       24.727 -24.176   6.687  0.00  0.00    +0.253 C 
ATOM      2  N   LIG    1       25.579 -25.211   6.360  0.00  0.00    -0.260 N 
ATOM      3  H   LIG    1       26.576 -25.054   6.398  0.00  0.00    +0.157 HD
ATOM      4  O   LIG    1       23.504 -24.247   6.804  0.00  0.00    -0.270 OA
ENDROOT
BRANCH   1   6
ATOM      5  C   LIG    1       25.285 -21.767   6.045  0.00  0.00    +0.144 A 
ATOM      6  C   LIG    1       25.380 -22.855   6.934  0.00  0.00    +0.079 A 
ATOM      7  C   LIG    1       26.126 -22.703   8.117  0.00  0.00    +0.017 A 
ATOM      8  C   LIG    1       26.734 -21.484   8.421  0.00  0.00    +0.001 A 
ATOM      9  C   LIG    1       26.584 -20.401   7.561  0.00  0.00    +0.004 A 
ATOM     10  C   LIG    1       25.857 -20.539   6.380  0.00  0.00    +0.047 A 
BRANCH   5  11
ATOM     11  O   LIG    1       24.615 -21.970   4.805  0.00  0.00    -0.425 OA
BRANCH  11  13
ATOM     12  C   LIG    1       22.580 -20.763   4.887  0.00  0.00    +0.136 C 
ATOM     13  C   LIG    1       23.832 -21.039   4.118  0.00  0.00    +0.309 C 
ATOM     14  O   LIG    1       24.116 -20.469   3.071  0.00  0.00    -0.251 OA
ENDBRANCH  11  13
ENDBRANCH   5  11
ENDBRANCH   1   6
BRANCH   2  15
ATOM     15  C   LIG    1       25.234 -26.522   6.190  0.00  0.00    +0.171 A 
ATOM     16  S   LIG    1       25.619 -27.710   7.350  0.00  0.00    +0.022 S 
ATOM     17  C   LIG    1       24.834 -28.866   6.393  0.00  0.00    +0.332 A 
ATOM     18  C   LIG    1       24.330 -28.296   5.248  0.00  0.00    +0.205 A 
ATOM     19  N   LIG    1       24.529 -26.925   5.156  0.00  0.00    -0.226 NA
BRANCH  17  20
ATOM     20  N   LIG    1       24.745 -30.230   6.799  0.00  0.00    +0.089 N 
ATOM     21  O   LIG    1       23.819 -30.560   7.548  0.00  0.00    -0.576 OA
ATOM     22  O   LIG    1       25.613 -30.992   6.353  0.00  0.00    +0.042 OA
ENDBRANCH  17  20
ENDBRANCH   2  15
TORSDOF 5
ENDMDL
MODEL 9
REMARK VINA RESULT:      -7.4      1.907      2.491
REMARK  Name = *****
REMARK                            x       y       z     vdW  Elec       q    Type
REMARK                         _______ _______ _______ _____ _____    ______ ____
ROOT
ATOM      1  C   LIG    1       26.023 -20.703   7.386  0.00  0.00    +0.253 C 
ATOM      2  N   LIG    1       27.183 -20.794   6.644  0.00  0.00    -0.260 N 
ATOM      3  H   LIG    1       27.118 -21.021   5.663  0.00  0.00    +0.157 HD
ATOM      4  O   LIG    1       25.931 -20.320   8.553  0.00  0.00    -0.270 OA
ENDROOT
BRANCH   1   6
ATOM      5  C   LIG    1       24.490 -20.742   5.342  0.00  0.00    +0.144 A 
ATOM      6  C   LIG    1       24.770 -21.099   6.676  0.00  0.00    +0.079 A 
ATOM      7  C   LIG    1       23.829 -21.866   7.386  0.00  0.00    +0.017 A 
ATOM      8  C   LIG    1       22.652 -22.295   6.769  0.00  0.00    +0.001 A 
ATOM      9  C   LIG    1       22.415 -21.982   5.434  0.00  0.00    +0.004 A 
ATOM     10  C   LIG    1       23.333 -21.214   4.721  0.00  0.00    +0.047 A 
BRANCH   5  11
ATOM     11  O   LIG    1       25.403 -19.878   4.673  0.00  0.00    -0.425 OA
BRANCH  11  13
ATOM     12  C   LIG    1       23.592 -18.656   3.759  0.00  0.00    +0.136 C 
ATOM     13  C   LIG    1       25.077 -18.816   3.826  0.00  0.00    +0.309 C 
ATOM     14  O   LIG    1       25.859 -18.068   3.250  0.00  0.00    -0.251 OA
ENDBRANCH  11  13
ENDBRANCH   5  11
ENDBRANCH   1   6
BRANCH   2  15
ATOM     15  C   LIG    1       28.430 -20.395   7.037  0.00  0.00    +0.171 A 
ATOM     16  S   LIG    1       29.237 -21.128   8.347  0.00  0.00    +0.022 S 
ATOM     17  C   LIG    1       30.564 -20.115   8.068  0.00  0.00    +0.332 A 
ATOM     18  C   LIG    1       30.325 -19.273   7.006  0.00  0.00    +0.205 A 
ATOM     19  N   LIG    1       29.098 -19.471   6.385  0.00  0.00    -0.226 NA
BRANCH  17  20
ATOM     20  N   LIG    1       31.741 -20.193   8.868  0.00  0.00    +0.089 N 
ATOM     21  O   LIG    1       32.183 -21.313   9.153  0.00  0.00    -0.576 OA
ATOM     22  O   LIG    1       32.241 -19.115   9.214  0.00  0.00    +0.042 OA
ENDBRANCH  17  20
ENDBRANCH   2  15
TORSDOF 5
ENDMDL
