MODEL 1
REMARK VINA RESULT:      -3.9      0.000      0.000
REMARK  Name = *****
REMARK                            x       y       z     vdW  Elec       q    Type
REMARK                         _______ _______ _______ _____ _____    ______ ____
ROOT
ATOM      1  C   LIG    1       24.993 -14.726   3.587  0.00  0.00    +0.065 C 
ENDROOT
BRANCH   1   5
ATOM      2  C   LIG    1       22.562 -18.289   4.412  0.00  0.00    +0.120 A 
ATOM      3  C   LIG    1       22.113 -17.011   4.764  0.00  0.00    +0.046 A 
ATOM      4  C   LIG    1       22.900 -15.893   4.529  0.00  0.00    +0.007 A 
ATOM      5  C   LIG    1       24.152 -15.992   3.922  0.00  0.00    -0.040 A 
ATOM      6  C   LIG    1       24.627 -17.285   3.615  0.00  0.00    +0.007 A 
ATOM      7  C   LIG    1       23.839 -18.419   3.870  0.00  0.00    +0.046 A 
BRANCH   2   9
ATOM      8  C   LIG    1       22.536 -20.535   5.124  0.00  0.00    +0.277 C 
ATOM      9  O   LIG    1       21.818 -19.420   4.593  0.00  0.00    -0.495 OA
ENDBRANCH   2   9
ENDBRANCH   1   5
BRANCH   1  10
ATOM     10  C   LIG    1       26.535 -15.083   3.500  0.00  0.00    +0.074 C 
ATOM     11  C   LIG    1       27.276 -14.188   2.463  0.00  0.00    +0.035 C 
ATOM     12  C   LIG    1       27.430 -12.734   2.918  0.00  0.00    +0.003 C 
ATOM     13  C   LIG    1       28.133 -12.629   4.268  0.00  0.00    +0.000 C 
ATOM     14  C   LIG    1       27.494 -13.529   5.317  0.00  0.00    +0.003 C 
ATOM     15  C   LIG    1       27.335 -14.959   4.817  0.00  0.00    +0.035 C 
BRANCH  10  16
ATOM     16  O   LIG    1       26.699 -16.447   3.071  0.00  0.00    -0.388 OA
ATOM     17  H   LIG    1       27.570 -16.512   2.642  0.00  0.00    +0.210 HD
ENDBRANCH  10  16
ENDBRANCH   1  10
BRANCH   1  18
ATOM     18  C   LIG    1       24.529 -13.627   4.613  0.00  0.00    +0.094 C 
BRANCH  18  19
ATOM     19  N   LIG    1       24.437 -12.209   4.211  0.00  0.00    -0.308 NA
ATOM     20  C   LIG    1       23.556 -11.498   5.157  0.00  0.00    +0.104 C 
ATOM     21  C   LIG    1       23.901 -12.021   2.863  0.00  0.00    +0.104 C 
ENDBRANCH  18  19
ENDBRANCH   1  18
TORSDOF 6
ENDMDL
MODEL 2
REMARK VINA RESULT:      -3.9      3.066      6.752
REMARK  Name = *****
REMARK                            x       y       z     vdW  Elec       q    Type
REMARK                         _______ _______ _______ _____ _____    ______ ____
ROOT
ATOM      1  C   LIG    1       25.725 -19.452   3.917  0.00  0.00    +0.065 C 
ENDROOT
BRANCH   1   5
ATOM      2  C   LIG    1       25.578 -15.082   3.518  0.00  0.00    +0.120 A 
ATOM      3  C   LIG    1       24.412 -15.827   3.723  0.00  0.00    +0.046 A 
ATOM      4  C   LIG    1       24.462 -17.211   3.817  0.00  0.00    +0.007 A 
ATOM      5  C   LIG    1       25.667 -17.908   3.728  0.00  0.00    -0.040 A 
ATOM      6  C   LIG    1       26.836 -17.161   3.470  0.00  0.00    +0.007 A 
ATOM      7  C   LIG    1       26.783 -15.762   3.356  0.00  0.00    +0.046 A 
BRANCH   2   9
ATOM      8  C   LIG    1       24.306 -13.098   3.500  0.00  0.00    +0.277 C 
ATOM      9  O   LIG    1       25.592 -13.717   3.447  0.00  0.00    -0.495 OA
ENDBRANCH   2   9
ENDBRANCH   1   5
BRANCH   1  10
ATOM     10  C   LIG    1       24.361 -20.124   3.466  0.00  0.00    +0.074 C 
ATOM     11  C   LIG    1       24.200 -21.555   4.058  0.00  0.00    +0.035 C 
ATOM     12  C   LIG    1       23.940 -21.562   5.567  0.00  0.00    +0.003 C 
ATOM     13  C   LIG    1       22.722 -20.722   5.941  0.00  0.00    +0.000 C 
ATOM     14  C   LIG    1       22.786 -19.324   5.341  0.00  0.00    +0.003 C 
ATOM     15  C   LIG    1       23.071 -19.360   3.845  0.00  0.00    +0.035 C 
BRANCH  10  16
ATOM     16  O   LIG    1       24.330 -20.255   2.033  0.00  0.00    -0.388 OA
ATOM     17  H   LIG    1       24.483 -19.370   1.658  0.00  0.00    +0.210 HD
ENDBRANCH  10  16
ENDBRANCH   1  10
BRANCH   1  18
ATOM     18  C   LIG    1       26.229 -19.680   5.390  0.00  0.00    +0.094 C 
BRANCH  18  19
ATOM     19  N   LIG    1       27.524 -20.336   5.652  0.00  0.00    -0.308 NA
ATOM     20  C   LIG    1       27.430 -21.102   6.910  0.00  0.00    +0.104 C 
ATOM     21  C   LIG    1       28.638 -19.396   5.775  0.00  0.00    +0.104 C 
ENDBRANCH  18  19
ENDBRANCH   1  18
TORSDOF 6
ENDMDL
MODEL 3
REMARK VINA RESULT:      -2.9      2.528      6.232
REMARK  Name = *****
REMARK                            x       y       z     vdW  Elec       q    Type
REMARK                         _______ _______ _______ _____ _____    ______ ____
ROOT
ATOM      1  C   LIG    1       24.197 -18.434   4.085  0.00  0.00    +0.065 C 
ENDROOT
BRANCH   1   5
ATOM      2  C   LIG    1       26.062 -14.495   3.554  0.00  0.00    +0.120 A 
ATOM      3  C   LIG    1       24.714 -14.613   3.911  0.00  0.00    +0.046 A 
ATOM      4  C   LIG    1       24.123 -15.861   4.046  0.00  0.00    +0.007 A 
ATOM      5  C   LIG    1       24.845 -17.039   3.851  0.00  0.00    -0.040 A 
ATOM      6  C   LIG    1       26.190 -16.919   3.441  0.00  0.00    +0.007 A 
ATOM      7  C   LIG    1       26.783 -15.655   3.285  0.00  0.00    +0.046 A 
BRANCH   2   9
ATOM      8  C   LIG    1       28.114 -13.339   3.647  0.00  0.00    +0.277 C 
ATOM      9  O   LIG    1       26.702 -13.293   3.435  0.00  0.00    -0.495 OA
ENDBRANCH   2   9
ENDBRANCH   1   5
BRANCH   1  10
ATOM     10  C   LIG    1       25.199 -19.594   3.679  0.00  0.00    +0.074 C 
ATOM     11  C   LIG    1       26.420 -19.664   4.644  0.00  0.00    +0.035 C 
ATOM     12  C   LIG    1       26.062 -20.184   6.039  0.00  0.00    +0.003 C 
ATOM     13  C   LIG    1       25.384 -21.551   5.983  0.00  0.00    +0.000 C 
ATOM     14  C   LIG    1       24.214 -21.569   5.009  0.00  0.00    +0.003 C 
ATOM     15  C   LIG    1       24.605 -21.021   3.642  0.00  0.00    +0.035 C 
BRANCH  10  16
ATOM     16  O   LIG    1       25.720 -19.353   2.359  0.00  0.00    -0.388 OA
ATOM     17  H   LIG    1       24.969 -19.397   1.741  0.00  0.00    +0.210 HD
ENDBRANCH  10  16
ENDBRANCH   1  10
BRANCH   1  18
ATOM     18  C   LIG    1       22.791 -18.371   3.381  0.00  0.00    +0.094 C 
BRANCH  18  19
ATOM     19  N   LIG    1       21.549 -18.569   4.155  0.00  0.00    -0.308 NA
ATOM     20  C   LIG    1       21.605 -19.882   4.826  0.00  0.00    +0.104 C 
ATOM     21  C   LIG    1       20.340 -18.531   3.333  0.00  0.00    +0.104 C 
ENDBRANCH  18  19
ENDBRANCH   1  18
TORSDOF 6
ENDMDL
MODEL 4
REMARK VINA RESULT:      -2.8      1.871      3.380
REMARK  Name = *****
REMARK                            x       y       z     vdW  Elec       q    Type
REMARK                         _______ _______ _______ _____ _____    ______ ____
ROOT
ATOM      1  C   LIG    1       25.196 -14.999   4.086  0.00  0.00    +0.065 C 
ENDROOT
BRANCH   1   5
ATOM      2  C   LIG    1       24.492 -19.294   3.509  0.00  0.00    +0.120 A 
ATOM      3  C   LIG    1       25.728 -18.718   3.199  0.00  0.00    +0.046 A 
ATOM      4  C   LIG    1       25.934 -17.354   3.354  0.00  0.00    +0.007 A 
ATOM      5  C   LIG    1       24.932 -16.512   3.837  0.00  0.00    -0.040 A 
ATOM      6  C   LIG    1       23.670 -17.085   4.101  0.00  0.00    +0.007 A 
ATOM      7  C   LIG    1       23.456 -18.462   3.925  0.00  0.00    +0.046 A 
BRANCH   2   9
ATOM      8  C   LIG    1       24.529 -21.395   4.577  0.00  0.00    +0.277 C 
ATOM      9  O   LIG    1       24.243 -20.634   3.403  0.00  0.00    -0.495 OA
ENDBRANCH   2   9
ENDBRANCH   1   5
BRANCH   1  10
ATOM     10  C   LIG    1       23.885 -14.148   3.820  0.00  0.00    +0.074 C 
ATOM     11  C   LIG    1       23.872 -12.832   4.651  0.00  0.00    +0.035 C 
ATOM     12  C   LIG    1       24.888 -11.796   4.161  0.00  0.00    +0.003 C 
ATOM     13  C   LIG    1       24.697 -11.461   2.685  0.00  0.00    +0.000 C 
ATOM     14  C   LIG    1       24.639 -12.712   1.819  0.00  0.00    +0.003 C 
ATOM     15  C   LIG    1       23.637 -13.727   2.353  0.00  0.00    +0.035 C 
BRANCH  10  16
ATOM     16  O   LIG    1       22.724 -14.903   4.211  0.00  0.00    -0.388 OA
ATOM     17  H   LIG    1       21.946 -14.450   3.841  0.00  0.00    +0.210 HD
ENDBRANCH  10  16
ENDBRANCH   1  10
BRANCH   1  18
ATOM     18  C   LIG    1       26.497 -14.656   3.270  0.00  0.00    +0.094 C 
BRANCH  18  19
ATOM     19  N   LIG    1       27.724 -14.206   3.957  0.00  0.00    -0.308 NA
ATOM     20  C   LIG    1       27.379 -13.781   5.328  0.00  0.00    +0.104 C 
ATOM     21  C   LIG    1       28.387 -13.086   3.288  0.00  0.00    +0.104 C 
ENDBRANCH  18  19
ENDBRANCH   1  18
TORSDOF 6
ENDMDL
MODEL 5
REMARK VINA RESULT:      -1.9      2.706      6.939
REMARK  Name = *****
REMARK                            x       y       z     vdW  Elec       q    Type
REMARK                         _______ _______ _______ _____ _____    ______ ____
ROOT
ATOM      1  C   LIG    1       24.169 -19.472   4.062  0.00  0.00    +0.065 C 
ENDROOT
BRANCH   1   5
ATOM      2  C   LIG    1       25.551 -15.338   3.532  0.00  0.00    +0.120 A 
ATOM      3  C   LIG    1       24.243 -15.614   3.943  0.00  0.00    +0.046 A 
ATOM      4  C   LIG    1       23.803 -16.924   4.078  0.00  0.00    +0.007 A 
ATOM      5  C   LIG    1       24.644 -18.008   3.828  0.00  0.00    -0.040 A 
ATOM      6  C   LIG    1       25.947 -17.730   3.364  0.00  0.00    +0.007 A 
ATOM      7  C   LIG    1       26.386 -16.405   3.208  0.00  0.00    +0.046 A 
BRANCH   2   9
ATOM      8  C   LIG    1       27.466 -13.986   3.283  0.00  0.00    +0.277 C 
ATOM      9  O   LIG    1       26.045 -14.070   3.409  0.00  0.00    -0.495 OA
ENDBRANCH   2   9
ENDBRANCH   1   5
BRANCH   1  10
ATOM     10  C   LIG    1       23.005 -19.519   5.138  0.00  0.00    +0.074 C 
ATOM     11  C   LIG    1       21.968 -18.379   4.916  0.00  0.00    +0.035 C 
ATOM     12  C   LIG    1       21.100 -18.581   3.670  0.00  0.00    +0.003 C 
ATOM     13  C   LIG    1       20.376 -19.925   3.690  0.00  0.00    +0.000 C 
ATOM     14  C   LIG    1       21.326 -21.082   3.964  0.00  0.00    +0.003 C 
ATOM     15  C   LIG    1       22.188 -20.831   5.195  0.00  0.00    +0.035 C 
BRANCH  10  16
ATOM     16  O   LIG    1       23.550 -19.341   6.457  0.00  0.00    -0.388 OA
ATOM     17  H   LIG    1       23.090 -19.965   7.047  0.00  0.00    +0.210 HD
ENDBRANCH  10  16
ENDBRANCH   1  10
BRANCH   1  18
ATOM     18  C   LIG    1       25.477 -20.305   4.327  0.00  0.00    +0.094 C 
BRANCH  18  19
ATOM     19  N   LIG    1       26.113 -20.308   5.659  0.00  0.00    -0.308 NA
ATOM     20  C   LIG    1       27.559 -20.056   5.502  0.00  0.00    +0.104 C 
ATOM     21  C   LIG    1       25.949 -21.572   6.379  0.00  0.00    +0.104 C 
ENDBRANCH  18  19
ENDBRANCH   1  18
TORSDOF 6
ENDMDL
MODEL 6
REMARK VINA RESULT:      -1.5      2.478      6.986
REMARK  Name = *****
REMARK                            x       y       z     vdW  Elec       q    Type
REMARK                         _______ _______ _______ _____ _____    ______ ____
ROOT
ATOM      1  C   LIG    1       23.877 -18.831   3.715  0.00  0.00    +0.065 C 
ENDROOT
BRANCH   1   5
ATOM      2  C   LIG    1       25.960 -14.971   3.528  0.00  0.00    +0.120 A 
ATOM      3  C   LIG    1       26.640 -16.170   3.290  0.00  0.00    +0.046 A 
ATOM      4  C   LIG    1       25.982 -17.389   3.382  0.00  0.00    +0.007 A 
ATOM      5  C   LIG    1       24.626 -17.467   3.695  0.00  0.00    -0.040 A 
ATOM      6  C   LIG    1       23.952 -16.262   3.986  0.00  0.00    +0.007 A 
ATOM      7  C   LIG    1       24.622 -15.029   3.912  0.00  0.00    +0.046 A 
BRANCH   2   9
ATOM      8  C   LIG    1       27.978 -13.757   3.417  0.00  0.00    +0.277 C 
ATOM      9  O   LIG    1       26.549 -13.742   3.424  0.00  0.00    -0.495 OA
ENDBRANCH   2   9
ENDBRANCH   1   5
BRANCH   1  10
ATOM     10  C   LIG    1       22.624 -18.770   4.685  0.00  0.00    +0.074 C 
ATOM     11  C   LIG    1       21.325 -19.261   3.980  0.00  0.00    +0.035 C 
ATOM     12  C   LIG    1       21.308 -20.771   3.723  0.00  0.00    +0.003 C 
ATOM     13  C   LIG    1       21.520 -21.572   5.005  0.00  0.00    +0.000 C 
ATOM     14  C   LIG    1       22.745 -21.100   5.777  0.00  0.00    +0.003 C 
ATOM     15  C   LIG    1       22.736 -19.592   5.989  0.00  0.00    +0.035 C 
BRANCH  10  16
ATOM     16  O   LIG    1       22.390 -17.411   5.098  0.00  0.00    -0.388 OA
ATOM     17  H   LIG    1       21.574 -17.113   4.659  0.00  0.00    +0.210 HD
ENDBRANCH  10  16
ENDBRANCH   1  10
BRANCH   1  18
ATOM     18  C   LIG    1       24.984 -19.918   3.979  0.00  0.00    +0.094 C 
BRANCH  18  19
ATOM     19  N   LIG    1       25.714 -19.957   5.261  0.00  0.00    -0.308 NA
ATOM     20  C   LIG    1       27.120 -19.577   5.025  0.00  0.00    +0.104 C 
ATOM     21  C   LIG    1       25.701 -21.274   5.898  0.00  0.00    +0.104 C 
ENDBRANCH  18  19
ENDBRANCH   1  18
TORSDOF 6
ENDMDL
MODEL 7
REMARK VINA RESULT:      -1.0      3.595      7.007
REMARK  Name = *****
REMARK                            x       y       z     vdW  Elec       q    Type
REMARK                         _______ _______ _______ _____ _____    ______ ____
ROOT
ATOM      1  C   LIG    1       26.790 -19.720   4.468  0.00  0.00    +0.065 C 
ENDROOT
BRANCH   1   5
ATOM      2  C   LIG    1       26.823 -15.417   3.592  0.00  0.00    +0.120 A 
ATOM      3  C   LIG    1       25.800 -16.243   3.115  0.00  0.00    +0.046 A 
ATOM      4  C   LIG    1       25.813 -17.608   3.369  0.00  0.00    +0.007 A 
ATOM      5  C   LIG    1       26.827 -18.204   4.118  0.00  0.00    -0.040 A 
ATOM      6  C   LIG    1       27.885 -17.380   4.556  0.00  0.00    +0.007 A 
ATOM      7  C   LIG    1       27.883 -16.002   4.282  0.00  0.00    +0.046 A 
BRANCH   2   9
ATOM      8  C   LIG    1       25.880 -13.573   2.467  0.00  0.00    +0.277 C 
ATOM      9  O   LIG    1       26.847 -14.065   3.397  0.00  0.00    -0.495 OA
ENDBRANCH   2   9
ENDBRANCH   1   5
BRANCH   1  10
ATOM     10  C   LIG    1       25.469 -20.079   5.268  0.00  0.00    +0.074 C 
ATOM     11  C   LIG    1       24.344 -19.030   5.026  0.00  0.00    +0.035 C 
ATOM     12  C   LIG    1       23.750 -19.092   3.616  0.00  0.00    +0.003 C 
ATOM     13  C   LIG    1       23.223 -20.484   3.279  0.00  0.00    +0.000 C 
ATOM     14  C   LIG    1       24.256 -21.568   3.551  0.00  0.00    +0.003 C 
ATOM     15  C   LIG    1       24.840 -21.456   4.954  0.00  0.00    +0.035 C 
BRANCH  10  16
ATOM     16  O   LIG    1       25.740 -20.087   6.682  0.00  0.00    -0.388 OA
ATOM     17  H   LIG    1       24.886 -20.191   7.138  0.00  0.00    +0.210 HD
ENDBRANCH  10  16
ENDBRANCH   1  10
BRANCH   1  18
ATOM     18  C   LIG    1       28.183 -20.036   5.129  0.00  0.00    +0.094 C 
BRANCH  18  19
ATOM     19  N   LIG    1       28.319 -20.133   6.595  0.00  0.00    -0.308 NA
ATOM     20  C   LIG    1       29.399 -19.230   7.039  0.00  0.00    +0.104 C 
ATOM     21  C   LIG    1       28.637 -21.483   7.061  0.00  0.00    +0.104 C 
ENDBRANCH  18  19
ENDBRANCH   1  18
TORSDOF 6
ENDMDL
