MODEL 1
REMARK VINA RESULT:       4.4      0.000      0.000
REMARK  Name = *****
REMARK                            x       y       z     vdW  Elec       q    Type
REMARK                         _______ _______ _______ _____ _____    ______ ____
ROOT
ATOM      1  C   LIG    1       27.311 -18.673   4.916  0.00  0.00    +0.087 C 
ATOM      2  C   LIG    1       26.547 -18.191   3.656  0.00  0.00    +0.169 C 
ATOM      3  C   LIG    1       25.818 -19.410   3.002  0.00  0.00    +0.175 C 
ATOM      4  C   LIG    1       24.771 -20.124   3.903  0.00  0.00    +0.170 C 
ATOM      5  C   LIG    1       25.230 -20.232   5.408  0.00  0.00    +0.084 C 
ATOM      6  C   LIG    1       26.273 -19.205   5.917  0.00  0.00    +0.042 C 
ENDROOT
BRANCH   5   7
ATOM      7  N   LIG    1       25.753 -21.571   5.751  0.00  0.00    -0.325 NA
ATOM      8  H   LIG    1       26.770 -21.552   5.811  0.00  0.00    +0.118 HD
ATOM      9  H   LIG    1       25.401 -21.870   6.660  0.00  0.00    +0.118 HD
ENDBRANCH   5   7
BRANCH   1  10
ATOM     10  N   LIG    1       28.380 -19.678   4.684  0.00  0.00    -0.311 NA
ATOM     11  H   LIG    1       27.931 -20.601   4.660  0.00  0.00    +0.122 HD
BRANCH  10  13
ATOM     12  C   LIG    1       29.099 -20.872   6.710  0.00  0.00    +0.020 C 
ATOM     13  C   LIG    1       29.378 -19.705   5.771  0.00  0.00    +0.078 C 
ENDBRANCH  10  13
ENDBRANCH   1  10
BRANCH   3  14
ATOM     14  O   LIG    1       26.770 -20.396   2.550  0.00  0.00    -0.387 OA
ATOM     15  H   LIG    1       26.518 -20.633   1.630  0.00  0.00    +0.210 HD
ENDBRANCH   3  14
BRANCH   2  16
ATOM     16  O   LIG    1       25.615 -17.124   3.944  0.00  0.00    -0.341 OA
BRANCH  16  17
ATOM     17  C   LIG    1       26.085 -15.778   3.708  0.00  0.00    +0.281 C 
ATOM     18  C   LIG    1       25.095 -14.796   4.382  0.00  0.00    +0.190 C 
ATOM     19  C   LIG    1       25.505 -13.310   4.177  0.00  0.00    +0.121 C 
ATOM     20  C   LIG    1       25.789 -13.017   2.668  0.00  0.00    +0.104 C 
ATOM     21  C   LIG    1       24.500 -12.771   1.878  0.00  0.00    +0.045 C 
ATOM     22  C   LIG    1       26.638 -14.156   2.060  0.00  0.00    +0.199 C 
ATOM     23  O   LIG    1       26.125 -15.472   2.311  0.00  0.00    -0.346 OA
BRANCH  19  24
ATOM     24  N   LIG    1       26.686 -12.830   4.953  0.00  0.00    -0.311 NA
ATOM     25  H   LIG    1       27.520 -12.761   4.371  0.00  0.00    +0.122 HD
ATOM     26  C   LIG    1       26.979 -13.654   6.118  0.00  0.00    +0.101 C 
ENDBRANCH  19  24
BRANCH  18  27
ATOM     27  O   LIG    1       23.771 -14.992   3.849  0.00  0.00    -0.385 OA
ATOM     28  H   LIG    1       23.701 -15.947   3.643  0.00  0.00    +0.210 HD
ENDBRANCH  18  27
BRANCH  20  29
ATOM     29  O   LIG    1       26.550 -11.794   2.548  0.00  0.00    -0.385 OA
ATOM     30  H   LIG    1       26.349 -11.448   1.652  0.00  0.00    +0.210 HD
ENDBRANCH  20  29
ENDBRANCH  16  17
ENDBRANCH   2  16
BRANCH   4  31
ATOM     31  O   LIG    1       23.469 -19.521   3.650  0.00  0.00    -0.333 OA
BRANCH  31  32
ATOM     32  C   LIG    1       22.702 -19.139   4.811  0.00  0.00    +0.324 C 
ATOM     33  C   LIG    1       22.145 -20.354   5.653  0.00  0.00    +0.124 C 
ATOM     34  C   LIG    1       21.281 -21.231   4.737  0.00  0.00    +0.055 C 
ATOM     35  C   LIG    1       20.386 -20.383   3.900  0.00  0.00    +0.017 C 
ATOM     36  C   LIG    1       20.554 -19.037   3.786  0.00  0.00    +0.111 C 
ATOM     37  O   LIG    1       21.571 -18.344   4.410  0.00  0.00    -0.465 OA
BRANCH  33  38
ATOM     38  N   LIG    1       23.088 -21.162   6.449  0.00  0.00    -0.322 NA
ATOM     39  H   LIG    1       24.043 -21.031   6.126  0.00  0.00    +0.119 HD
ATOM     40  H   LIG    1       22.874 -22.155   6.350  0.00  0.00    +0.119 HD
ENDBRANCH  33  38
BRANCH  36  41
ATOM     41  C   LIG    1       19.668 -18.200   2.915  0.00  0.00    +0.152 C 
BRANCH  41  42
ATOM     42  N   LIG    1       20.482 -17.460   1.953  0.00  0.00    -0.324 NA
ATOM     43  H   LIG    1       21.217 -17.014   2.494  0.00  0.00    +0.119 HD
ATOM     44  H   LIG    1       20.969 -18.155   1.389  0.00  0.00    +0.119 HD
ENDBRANCH  41  42
ENDBRANCH  36  41
ENDBRANCH  31  32
ENDBRANCH   4  31
TORSDOF 14
ENDMDL
MODEL 2
REMARK VINA RESULT:       5.7      1.916      7.126
REMARK  Name = *****
REMARK                            x       y       z     vdW  Elec       q    Type
REMARK                         _______ _______ _______ _____ _____    ______ ____
ROOT
ATOM      1  C   LIG    1       24.651 -13.807   3.952  0.00  0.00    +0.087 C 
ATOM      2  C   LIG    1       24.744 -15.282   3.484  0.00  0.00    +0.169 C 
ATOM      3  C   LIG    1       26.219 -15.594   3.066  0.00  0.00    +0.175 C 
ATOM      4  C   LIG    1       27.282 -15.422   4.189  0.00  0.00    +0.170 C 
ATOM      5  C   LIG    1       27.000 -14.174   5.112  0.00  0.00    +0.084 C 
ATOM      6  C   LIG    1       25.543 -13.653   5.194  0.00  0.00    +0.042 C 
ENDROOT
BRANCH   5   7
ATOM      7  N   LIG    1       27.847 -13.011   4.772  0.00  0.00    -0.325 NA
ATOM      8  H   LIG    1       27.331 -12.351   4.191  0.00  0.00    +0.118 HD
ATOM      9  H   LIG    1       28.128 -12.515   5.617  0.00  0.00    +0.118 HD
ENDBRANCH   5   7
BRANCH   1  10
ATOM     10  N   LIG    1       24.985 -12.778   2.934  0.00  0.00    -0.311 NA
ATOM     11  H   LIG    1       25.922 -12.422   3.157  0.00  0.00    +0.122 HD
BRANCH  10  13
ATOM     12  C   LIG    1       23.407 -11.518   4.337  0.00  0.00    +0.020 C 
ATOM     13  C   LIG    1       24.062 -11.627   2.966  0.00  0.00    +0.078 C 
ENDBRANCH  10  13
ENDBRANCH   1  10
BRANCH   3  14
ATOM     14  O   LIG    1       26.617 -14.782   1.942  0.00  0.00    -0.387 OA
ATOM     15  H   LIG    1       27.308 -14.164   2.269  0.00  0.00    +0.210 HD
ENDBRANCH   3  14
BRANCH   2  16
ATOM     16  O   LIG    1       24.282 -16.215   4.486  0.00  0.00    -0.341 OA
BRANCH  16  17
ATOM     17  C   LIG    1       23.573 -17.378   4.004  0.00  0.00    +0.281 C 
ATOM     18  C   LIG    1       22.176 -17.405   4.674  0.00  0.00    +0.190 C 
ATOM     19  C   LIG    1       21.331 -18.631   4.228  0.00  0.00    +0.121 C 
ATOM     20  C   LIG    1       22.152 -19.953   4.378  0.00  0.00    +0.104 C 
ATOM     21  C   LIG    1       22.147 -20.473   5.819  0.00  0.00    +0.045 C 
ATOM     22  C   LIG    1       23.584 -19.749   3.835  0.00  0.00    +0.199 C 
ATOM     23  O   LIG    1       24.250 -18.589   4.351  0.00  0.00    -0.346 OA
BRANCH  19  24
ATOM     24  N   LIG    1       20.788 -18.599   2.838  0.00  0.00    -0.311 NA
ATOM     25  H   LIG    1       21.270 -17.912   2.259  0.00  0.00    +0.122 HD
ATOM     26  C   LIG    1       19.354 -18.351   2.789  0.00  0.00    +0.101 C 
ENDBRANCH  19  24
BRANCH  18  27
ATOM     27  O   LIG    1       22.321 -17.434   6.107  0.00  0.00    -0.385 OA
ATOM     28  H   LIG    1       23.242 -17.718   6.281  0.00  0.00    +0.210 HD
ENDBRANCH  18  27
BRANCH  20  29
ATOM     29  O   LIG    1       21.532 -20.998   3.594  0.00  0.00    -0.385 OA
ATOM     30  H   LIG    1       20.567 -20.828   3.648  0.00  0.00    +0.210 HD
ENDBRANCH  20  29
ENDBRANCH  16  17
ENDBRANCH   2  16
BRANCH   4  31
ATOM     31  O   LIG    1       27.454 -16.708   4.851  0.00  0.00    -0.333 OA
BRANCH  31  32
ATOM     32  C   LIG    1       28.061 -17.757   4.067  0.00  0.00    +0.324 C 
ATOM     33  C   LIG    1       27.037 -18.790   3.454  0.00  0.00    +0.124 C 
ATOM     34  C   LIG    1       26.223 -19.412   4.597  0.00  0.00    +0.055 C 
ATOM     35  C   LIG    1       27.119 -19.778   5.731  0.00  0.00    +0.017 C 
ATOM     36  C   LIG    1       28.404 -19.338   5.816  0.00  0.00    +0.111 C 
ATOM     37  O   LIG    1       28.984 -18.503   4.882  0.00  0.00    -0.465 OA
BRANCH  33  38
ATOM     38  N   LIG    1       26.169 -18.358   2.342  0.00  0.00    -0.322 NA
ATOM     39  H   LIG    1       25.187 -18.446   2.590  0.00  0.00    +0.119 HD
ATOM     40  H   LIG    1       26.323 -18.946   1.523  0.00  0.00    +0.119 HD
ENDBRANCH  33  38
BRANCH  36  41
ATOM     41  C   LIG    1       29.284 -19.685   6.978  0.00  0.00    +0.152 C 
BRANCH  41  42
ATOM     42  N   LIG    1       29.462 -21.134   7.044  0.00  0.00    -0.324 NA
ATOM     43  H   LIG    1       29.537 -21.450   6.081  0.00  0.00    +0.119 HD
ATOM     44  H   LIG    1       30.388 -21.295   7.435  0.00  0.00    +0.119 HD
ENDBRANCH  41  42
ENDBRANCH  36  41
ENDBRANCH  31  32
ENDBRANCH   4  31
TORSDOF 14
ENDMDL
MODEL 3
REMARK VINA RESULT:       6.3      1.967      5.311
REMARK  Name = *****
REMARK                            x       y       z     vdW  Elec       q    Type
REMARK                         _______ _______ _______ _____ _____    ______ ____
ROOT
ATOM      1  C   LIG    1       22.795 -18.317   3.432  0.00  0.00    +0.087 C 
ATOM      2  C   LIG    1       23.353 -17.675   4.727  0.00  0.00    +0.169 C 
ATOM      3  C   LIG    1       23.594 -18.795   5.792  0.00  0.00    +0.175 C 
ATOM      4  C   LIG    1       24.607 -19.901   5.380  0.00  0.00    +0.170 C 
ATOM      5  C   LIG    1       24.483 -20.309   3.861  0.00  0.00    +0.084 C 
ATOM      6  C   LIG    1       23.867 -19.275   2.886  0.00  0.00    +0.042 C 
ENDROOT
BRANCH   5   7
ATOM      7  N   LIG    1       23.737 -21.570   3.668  0.00  0.00    -0.325 NA
ATOM      8  H   LIG    1       24.048 -22.043   2.820  0.00  0.00    +0.118 HD
ATOM      9  H   LIG    1       23.901 -22.206   4.447  0.00  0.00    +0.118 HD
ENDBRANCH   5   7
BRANCH   1  10
ATOM     10  N   LIG    1       21.487 -19.010   3.560  0.00  0.00    -0.311 NA
ATOM     11  H   LIG    1       21.339 -19.543   2.694  0.00  0.00    +0.122 HD
BRANCH  10  13
ATOM     12  C   LIG    1       19.394 -18.239   2.527  0.00  0.00    +0.020 C 
ATOM     13  C   LIG    1       20.357 -18.069   3.693  0.00  0.00    +0.078 C 
ENDBRANCH  10  13
ENDBRANCH   1  10
BRANCH   3  14
ATOM     14  O   LIG    1       22.353 -19.435   6.155  0.00  0.00    -0.387 OA
ATOM     15  H   LIG    1       22.586 -20.215   6.704  0.00  0.00    +0.210 HD
ENDBRANCH   3  14
BRANCH   2  16
ATOM     16  O   LIG    1       24.559 -16.912   4.497  0.00  0.00    -0.341 OA
BRANCH  16  17
ATOM     17  C   LIG    1       24.411 -15.683   3.753  0.00  0.00    +0.281 C 
ATOM     18  C   LIG    1       25.523 -14.705   4.208  0.00  0.00    +0.190 C 
ATOM     19  C   LIG    1       25.447 -13.338   3.471  0.00  0.00    +0.121 C 
ATOM     20  C   LIG    1       23.998 -12.754   3.538  0.00  0.00    +0.104 C 
ATOM     21  C   LIG    1       23.723 -12.052   4.872  0.00  0.00    +0.045 C 
ATOM     22  C   LIG    1       22.967 -13.865   3.239  0.00  0.00    +0.199 C 
ATOM     23  O   LIG    1       23.149 -15.061   4.010  0.00  0.00    -0.346 OA
BRANCH  19  24
ATOM     24  N   LIG    1       25.866 -13.327   2.039  0.00  0.00    -0.311 NA
ATOM     25  H   LIG    1       25.238 -13.879   1.456  0.00  0.00    +0.122 HD
ATOM     26  C   LIG    1       27.235 -13.782   1.839  0.00  0.00    +0.101 C 
ENDBRANCH  19  24
BRANCH  18  27
ATOM     27  O   LIG    1       25.425 -14.477   5.627  0.00  0.00    -0.385 OA
ATOM     28  H   LIG    1       24.543 -14.078   5.777  0.00  0.00    +0.210 HD
ENDBRANCH  18  27
BRANCH  20  29
ATOM     29  O   LIG    1       23.843 -11.730   2.529  0.00  0.00    -0.385 OA
ATOM     30  H   LIG    1       24.294 -12.080   1.731  0.00  0.00    +0.210 HD
ENDBRANCH  20  29
ENDBRANCH  16  17
ENDBRANCH   2  16
BRANCH   4  31
ATOM     31  O   LIG    1       25.927 -19.506   5.853  0.00  0.00    -0.333 OA
BRANCH  31  32
ATOM     32  C   LIG    1       27.054 -20.012   5.107  0.00  0.00    +0.324 C 
ATOM     33  C   LIG    1       28.313 -20.370   5.990  0.00  0.00    +0.124 C 
ATOM     34  C   LIG    1       28.737 -19.117   6.770  0.00  0.00    +0.055 C 
ATOM     35  C   LIG    1       28.719 -17.922   5.881  0.00  0.00    +0.017 C 
ATOM     36  C   LIG    1       28.127 -17.933   4.655  0.00  0.00    +0.111 C 
ATOM     37  O   LIG    1       27.476 -19.035   4.137  0.00  0.00    -0.465 OA
BRANCH  33  38
ATOM     38  N   LIG    1       28.259 -21.560   6.860  0.00  0.00    -0.322 NA
ATOM     39  H   LIG    1       29.055 -21.587   7.491  0.00  0.00    +0.119 HD
ATOM     40  H   LIG    1       28.295 -22.411   6.299  0.00  0.00    +0.119 HD
ENDBRANCH  33  38
BRANCH  36  41
ATOM     41  C   LIG    1       28.087 -16.715   3.785  0.00  0.00    +0.152 C 
BRANCH  41  42
ATOM     42  N   LIG    1       28.146 -15.515   4.616  0.00  0.00    -0.324 NA
ATOM     43  H   LIG    1       27.678 -15.754   5.486  0.00  0.00    +0.119 HD
ATOM     44  H   LIG    1       29.123 -15.392   4.880  0.00  0.00    +0.119 HD
ENDBRANCH  41  42
ENDBRANCH  36  41
ENDBRANCH  31  32
ENDBRANCH   4  31
TORSDOF 14
ENDMDL
