MODEL 1
REMARK VINA RESULT:      -7.5      0.000      0.000
REMARK  Name = *****
REMARK                            x       y       z     vdW  Elec       q    Type
REMARK                         _______ _______ _______ _____ _____    ______ ____
ROOT
ATOM      1  N   LIG    1       26.460 -22.737   7.012  0.00  0.00    -0.183 NA
ATOM      2  C   LIG    1       26.960 -21.981   7.939  0.00  0.00    +0.176 C 
ENDROOT
BRANCH   1   7
ATOM      3  N   LIG    1       24.878 -23.733   5.117  0.00  0.00    -0.312 N 
ATOM      4  H   LIG    1       25.582 -23.023   4.974  0.00  0.00    +0.146 HD
ATOM      5  H   LIG    1       24.247 -23.980   4.370  0.00  0.00    +0.146 HD
ATOM      6  C   LIG    1       24.450 -23.889   6.392  0.00  0.00    +0.317 C 
ATOM      7  N   LIG    1       25.289 -23.366   7.342  0.00  0.00    -0.191 N 
ATOM      8  H   LIG    1       25.012 -23.499   8.310  0.00  0.00    +0.179 HD
ATOM      9  O   LIG    1       23.404 -24.464   6.671  0.00  0.00    -0.251 OA
ENDBRANCH   1   7
BRANCH   2  10
ATOM     10  C   LIG    1       28.194 -21.281   7.717  0.00  0.00    +0.154 A 
ATOM     11  O   LIG    1       29.214 -21.462   8.614  0.00  0.00    -0.399 OA
ATOM     12  C   LIG    1       30.256 -20.711   8.164  0.00  0.00    +0.438 A 
ATOM     13  C   LIG    1       29.936 -20.042   7.007  0.00  0.00    +0.132 A 
ATOM     14  C   LIG    1       28.602 -20.417   6.714  0.00  0.00    +0.058 A 
BRANCH  12  15
ATOM     15  N   LIG    1       31.458 -20.753   8.935  0.00  0.00    +0.119 N 
ATOM     16  O   LIG    1       31.890 -21.861   9.271  0.00  0.00    -0.574 OA
ATOM     17  O   LIG    1       31.975 -19.658   9.202  0.00  0.00    +0.045 OA
ENDBRANCH  12  15
ENDBRANCH   2  10
TORSDOF 3
ENDMDL
MODEL 2
REMARK VINA RESULT:      -7.4      4.814      8.376
REMARK  Name = *****
REMARK                            x       y       z     vdW  Elec       q    Type
REMARK                         _______ _______ _______ _____ _____    ______ ____
ROOT
ATOM      1  N   LIG    1       31.980 -16.338  11.936  0.00  0.00    -0.183 NA
ATOM      2  C   LIG    1       30.833 -16.636  11.412  0.00  0.00    +0.176 C 
ENDROOT
BRANCH   1   7
ATOM      3  N   LIG    1       32.847 -17.183  14.307  0.00  0.00    -0.312 N 
ATOM      4  H   LIG    1       32.581 -17.780  13.537  0.00  0.00    +0.146 HD
ATOM      5  H   LIG    1       33.062 -17.582  15.209  0.00  0.00    +0.146 HD
ATOM      6  C   LIG    1       32.359 -15.920  14.268  0.00  0.00    +0.317 C 
ATOM      7  N   LIG    1       31.923 -15.517  13.032  0.00  0.00    -0.191 N 
ATOM      8  H   LIG    1       31.585 -14.562  12.964  0.00  0.00    +0.179 HD
ATOM      9  O   LIG    1       32.325 -15.196  15.255  0.00  0.00    -0.251 OA
ENDBRANCH   1   7
BRANCH   2  10
ATOM     10  C   LIG    1       30.764 -17.477  10.250  0.00  0.00    +0.154 A 
ATOM     11  O   LIG    1       31.058 -18.807  10.392  0.00  0.00    -0.399 OA
ATOM     12  C   LIG    1       30.900 -19.367   9.161  0.00  0.00    +0.438 A 
ATOM     13  C   LIG    1       30.523 -18.435   8.225  0.00  0.00    +0.132 A 
ATOM     14  C   LIG    1       30.428 -17.210   8.933  0.00  0.00    +0.058 A 
BRANCH  12  15
ATOM     15  N   LIG    1       31.135 -20.773   9.059  0.00  0.00    +0.119 N 
ATOM     16  O   LIG    1       32.270 -21.189   9.318  0.00  0.00    -0.574 OA
ATOM     17  O   LIG    1       30.166 -21.466   8.718  0.00  0.00    +0.045 OA
ENDBRANCH  12  15
ENDBRANCH   2  10
TORSDOF 3
ENDMDL
MODEL 3
REMARK VINA RESULT:      -7.2      2.872      6.829
REMARK  Name = *****
REMARK                            x       y       z     vdW  Elec       q    Type
REMARK                         _______ _______ _______ _____ _____    ______ ____
ROOT
ATOM      1  N   LIG    1       30.278 -19.165   9.208  0.00  0.00    -0.183 NA
ATOM      2  C   LIG    1       30.088 -19.328   7.936  0.00  0.00    +0.176 C 
ENDROOT
BRANCH   1   7
ATOM      3  N   LIG    1       30.625 -16.906  10.573  0.00  0.00    -0.312 N 
ATOM      4  H   LIG    1       29.805 -17.140  10.031  0.00  0.00    +0.146 HD
ATOM      5  H   LIG    1       30.725 -15.985  10.972  0.00  0.00    +0.146 HD
ATOM      6  C   LIG    1       31.751 -17.592  10.261  0.00  0.00    +0.317 C 
ATOM      7  N   LIG    1       31.536 -18.750   9.560  0.00  0.00    -0.191 N 
ATOM      8  H   LIG    1       32.358 -19.304   9.343  0.00  0.00    +0.179 HD
ATOM      9  O   LIG    1       32.867 -17.212  10.592  0.00  0.00    -0.251 OA
ENDBRANCH   1   7
BRANCH   2  10
ATOM     10  C   LIG    1       28.815 -19.776   7.446  0.00  0.00    +0.154 A 
ATOM     11  O   LIG    1       27.833 -20.066   8.356  0.00  0.00    -0.399 OA
ATOM     12  C   LIG    1       26.742 -20.444   7.635  0.00  0.00    +0.438 A 
ATOM     13  C   LIG    1       26.993 -20.416   6.284  0.00  0.00    +0.132 A 
ATOM     14  C   LIG    1       28.335 -19.976   6.162  0.00  0.00    +0.058 A 
BRANCH  12  15
ATOM     15  N   LIG    1       25.568 -20.782   8.375  0.00  0.00    +0.119 N 
ATOM     16  O   LIG    1       24.478 -20.705   7.797  0.00  0.00    -0.574 OA
ATOM     17  O   LIG    1       25.745 -21.134   9.551  0.00  0.00    +0.045 OA
ENDBRANCH  12  15
ENDBRANCH   2  10
TORSDOF 3
ENDMDL
MODEL 4
REMARK VINA RESULT:      -7.1      2.120      2.355
REMARK  Name = *****
REMARK                            x       y       z     vdW  Elec       q    Type
REMARK                         _______ _______ _______ _____ _____    ______ ____
ROOT
ATOM      1  N   LIG    1       26.183 -20.278   7.518  0.00  0.00    -0.183 NA
ATOM      2  C   LIG    1       27.326 -20.588   8.045  0.00  0.00    +0.176 C 
ENDROOT
BRANCH   1   7
ATOM      3  N   LIG    1       23.992 -20.673   6.059  0.00  0.00    -0.312 N 
ATOM      4  H   LIG    1       24.698 -19.975   5.873  0.00  0.00    +0.146 HD
ATOM      5  H   LIG    1       23.138 -20.689   5.522  0.00  0.00    +0.146 HD
ATOM      6  C   LIG    1       23.958 -21.153   7.325  0.00  0.00    +0.317 C 
ATOM      7  N   LIG    1       25.102 -20.934   8.048  0.00  0.00    -0.191 N 
ATOM      8  H   LIG    1       25.120 -21.314   8.989  0.00  0.00    +0.179 HD
ATOM      9  O   LIG    1       22.987 -21.747   7.779  0.00  0.00    -0.251 OA
ENDBRANCH   1   7
BRANCH   2  10
ATOM     10  C   LIG    1       28.534 -19.979   7.563  0.00  0.00    +0.154 A 
ATOM     11  O   LIG    1       29.502 -19.645   8.474  0.00  0.00    -0.399 OA
ATOM     12  C   LIG    1       30.530 -19.111   7.761  0.00  0.00    +0.438 A 
ATOM     13  C   LIG    1       30.252 -19.080   6.415  0.00  0.00    +0.132 A 
ATOM     14  C   LIG    1       28.961 -19.650   6.287  0.00  0.00    +0.058 A 
BRANCH  12  15
ATOM     15  N   LIG    1       31.681 -18.699   8.502  0.00  0.00    +0.119 N 
ATOM     16  O   LIG    1       32.102 -17.551   8.323  0.00  0.00    -0.574 OA
ATOM     17  O   LIG    1       32.163 -19.539   9.275  0.00  0.00    +0.045 OA
ENDBRANCH  12  15
ENDBRANCH   2  10
TORSDOF 3
ENDMDL
MODEL 5
REMARK VINA RESULT:      -7.1      1.592      1.625
REMARK  Name = *****
REMARK                            x       y       z     vdW  Elec       q    Type
REMARK                         _______ _______ _______ _____ _____    ______ ____
ROOT
ATOM      1  N   LIG    1       26.183 -20.741   6.375  0.00  0.00    -0.183 NA
ATOM      2  C   LIG    1       26.791 -20.426   7.475  0.00  0.00    +0.176 C 
ENDROOT
BRANCH   1   7
ATOM      3  N   LIG    1       24.801 -22.483   4.910  0.00  0.00    -0.312 N 
ATOM      4  H   LIG    1       25.743 -22.172   4.713  0.00  0.00    +0.146 HD
ATOM      5  H   LIG    1       24.308 -23.062   4.248  0.00  0.00    +0.146 HD
ATOM      6  C   LIG    1       24.074 -21.676   5.720  0.00  0.00    +0.317 C 
ATOM      7  N   LIG    1       24.816 -20.793   6.460  0.00  0.00    -0.191 N 
ATOM      8  H   LIG    1       24.301 -20.200   7.103  0.00  0.00    +0.179 HD
ATOM      9  O   LIG    1       22.852 -21.743   5.792  0.00  0.00    -0.251 OA
ENDBRANCH   1   7
BRANCH   2  10
ATOM     10  C   LIG    1       28.225 -20.355   7.516  0.00  0.00    +0.154 A 
ATOM     11  O   LIG    1       28.879 -21.004   8.530  0.00  0.00    -0.399 OA
ATOM     12  C   LIG    1       30.208 -20.794   8.323  0.00  0.00    +0.438 A 
ATOM     13  C   LIG    1       30.432 -20.019   7.211  0.00  0.00    +0.132 A 
ATOM     14  C   LIG    1       29.146 -19.741   6.683  0.00  0.00    +0.058 A 
BRANCH  12  15
ATOM     15  N   LIG    1       31.107 -21.398   9.255  0.00  0.00    +0.119 N 
ATOM     16  O   LIG    1       30.696 -22.360   9.914  0.00  0.00    -0.574 OA
ATOM     17  O   LIG    1       32.241 -20.901   9.323  0.00  0.00    +0.045 OA
ENDBRANCH  12  15
ENDBRANCH   2  10
TORSDOF 3
ENDMDL
MODEL 6
REMARK VINA RESULT:      -7.1      1.248      1.457
REMARK  Name = *****
REMARK                            x       y       z     vdW  Elec       q    Type
REMARK                         _______ _______ _______ _____ _____    ______ ____
ROOT
ATOM      1  N   LIG    1       26.253 -21.493   6.663  0.00  0.00    -0.183 NA
ATOM      2  C   LIG    1       27.309 -21.935   7.272  0.00  0.00    +0.176 C 
ENDROOT
BRANCH   1   7
ATOM      3  N   LIG    1       23.946 -20.734   7.753  0.00  0.00    -0.312 N 
ATOM      4  H   LIG    1       24.847 -20.318   7.946  0.00  0.00    +0.146 HD
ATOM      5  H   LIG    1       23.135 -20.461   8.287  0.00  0.00    +0.146 HD
ATOM      6  C   LIG    1       23.975 -21.983   7.231  0.00  0.00    +0.317 C 
ATOM      7  N   LIG    1       25.177 -22.341   6.677  0.00  0.00    -0.191 N 
ATOM      8  H   LIG    1       25.218 -23.259   6.245  0.00  0.00    +0.179 HD
ATOM      9  O   LIG    1       23.000 -22.725   7.242  0.00  0.00    -0.251 OA
ENDBRANCH   1   7
BRANCH   2  10
ATOM     10  C   LIG    1       28.506 -21.143   7.312  0.00  0.00    +0.154 A 
ATOM     11  O   LIG    1       29.417 -21.393   8.305  0.00  0.00    -0.399 OA
ATOM     12  C   LIG    1       30.449 -20.528   8.103  0.00  0.00    +0.438 A 
ATOM     13  C   LIG    1       30.228 -19.720   7.014  0.00  0.00    +0.132 A 
ATOM     14  C   LIG    1       28.971 -20.124   6.497  0.00  0.00    +0.058 A 
BRANCH  12  15
ATOM     15  N   LIG    1       31.546 -20.612   9.015  0.00  0.00    +0.119 N 
ATOM     16  O   LIG    1       31.909 -21.736   9.380  0.00  0.00    -0.574 OA
ATOM     17  O   LIG    1       32.050 -19.535   9.365  0.00  0.00    +0.045 OA
ENDBRANCH  12  15
ENDBRANCH   2  10
TORSDOF 3
ENDMDL
MODEL 7
REMARK VINA RESULT:      -6.9      2.287      2.443
REMARK  Name = *****
REMARK                            x       y       z     vdW  Elec       q    Type
REMARK                         _______ _______ _______ _____ _____    ______ ____
ROOT
ATOM      1  N   LIG    1       26.893 -20.214   5.716  0.00  0.00    -0.183 NA
ATOM      2  C   LIG    1       27.669 -20.667   6.650  0.00  0.00    +0.176 C 
ENDROOT
BRANCH   1   7
ATOM      3  N   LIG    1       25.402 -19.799   3.550  0.00  0.00    -0.312 N 
ATOM      4  H   LIG    1       26.074 -19.147   3.929  0.00  0.00    +0.146 HD
ATOM      5  H   LIG    1       24.799 -19.524   2.789  0.00  0.00    +0.146 HD
ATOM      6  C   LIG    1       24.954 -20.746   4.408  0.00  0.00    +0.317 C 
ATOM      7  N   LIG    1       25.746 -20.936   5.511  0.00  0.00    -0.191 N 
ATOM      8  H   LIG    1       25.455 -21.665   6.154  0.00  0.00    +0.179 HD
ATOM      9  O   LIG    1       23.931 -21.390   4.204  0.00  0.00    -0.251 OA
ENDBRANCH   1   7
BRANCH   2  10
ATOM     10  C   LIG    1       28.908 -20.006   6.947  0.00  0.00    +0.154 A 
ATOM     11  O   LIG    1       29.604 -20.399   8.060  0.00  0.00    -0.399 OA
ATOM     12  C   LIG    1       30.730 -19.636   8.095  0.00  0.00    +0.438 A 
ATOM     13  C   LIG    1       30.778 -18.753   7.043  0.00  0.00    +0.132 A 
ATOM     14  C   LIG    1       29.600 -18.998   6.295  0.00  0.00    +0.058 A 
BRANCH  12  15
ATOM     15  N   LIG    1       31.638 -19.880   9.171  0.00  0.00    +0.119 N 
ATOM     16  O   LIG    1       32.061 -21.032   9.321  0.00  0.00    -0.574 OA
ATOM     17  O   LIG    1       31.932 -18.900   9.872  0.00  0.00    +0.045 OA
ENDBRANCH  12  15
ENDBRANCH   2  10
TORSDOF 3
ENDMDL
MODEL 8
REMARK VINA RESULT:      -6.8      2.360      2.974
REMARK  Name = *****
REMARK                            x       y       z     vdW  Elec       q    Type
REMARK                         _______ _______ _______ _____ _____    ______ ____
ROOT
ATOM      1  N   LIG    1       27.934 -21.363   8.068  0.00  0.00    -0.183 NA
ATOM      2  C   LIG    1       28.559 -20.552   7.274  0.00  0.00    +0.176 C 
ENDROOT
BRANCH   1   7
ATOM      3  N   LIG    1       25.399 -21.297   8.881  0.00  0.00    -0.312 N 
ATOM      4  H   LIG    1       26.194 -20.992   9.425  0.00  0.00    +0.146 HD
ATOM      5  H   LIG    1       24.483 -21.340   9.300  0.00  0.00    +0.146 HD
ATOM      6  C   LIG    1       25.675 -22.145   7.861  0.00  0.00    +0.317 C 
ATOM      7  N   LIG    1       26.989 -22.153   7.467  0.00  0.00    -0.191 N 
ATOM      8  H   LIG    1       27.219 -22.752   6.681  0.00  0.00    +0.179 HD
ATOM      9  O   LIG    1       24.816 -22.837   7.328  0.00  0.00    -0.251 OA
ENDBRANCH   1   7
BRANCH   2  10
ATOM     10  C   LIG    1       29.560 -19.662   7.789  0.00  0.00    +0.154 A 
ATOM     11  O   LIG    1       29.363 -19.109   9.027  0.00  0.00    -0.399 OA
ATOM     12  C   LIG    1       30.453 -18.333   9.277  0.00  0.00    +0.438 A 
ATOM     13  C   LIG    1       31.345 -18.360   8.232  0.00  0.00    +0.132 A 
ATOM     14  C   LIG    1       30.769 -19.227   7.271  0.00  0.00    +0.058 A 
BRANCH  12  15
ATOM     15  N   LIG    1       30.487 -17.658  10.536  0.00  0.00    +0.119 N 
ATOM     16  O   LIG    1       30.809 -18.312  11.534  0.00  0.00    -0.574 OA
ATOM     17  O   LIG    1       30.188 -16.455  10.520  0.00  0.00    +0.045 OA
ENDBRANCH  12  15
ENDBRANCH   2  10
TORSDOF 3
ENDMDL
MODEL 9
REMARK VINA RESULT:      -6.8      2.488      6.523
REMARK  Name = *****
REMARK                            x       y       z     vdW  Elec       q    Type
REMARK                         _______ _______ _______ _____ _____    ______ ____
ROOT
ATOM      1  N   LIG    1       29.260 -21.063   7.485  0.00  0.00    -0.183 NA
ATOM      2  C   LIG    1       28.053 -21.397   7.823  0.00  0.00    +0.176 C 
ENDROOT
BRANCH   1   7
ATOM      3  N   LIG    1       31.450 -19.587   7.817  0.00  0.00    -0.312 N 
ATOM      4  H   LIG    1       30.835 -19.545   7.017  0.00  0.00    +0.146 HD
ATOM      5  H   LIG    1       32.318 -19.073   7.818  0.00  0.00    +0.146 HD
ATOM      6  C   LIG    1       31.379 -20.720   8.555  0.00  0.00    +0.317 C 
ATOM      7  N   LIG    1       30.238 -21.456   8.361  0.00  0.00    -0.191 N 
ATOM      8  H   LIG    1       30.140 -22.292   8.927  0.00  0.00    +0.179 HD
ATOM      9  O   LIG    1       32.259 -21.052   9.341  0.00  0.00    -0.251 OA
ENDBRANCH   1   7
BRANCH   2  10
ATOM     10  C   LIG    1       26.941 -21.028   6.993  0.00  0.00    +0.154 A 
ATOM     11  O   LIG    1       25.679 -21.357   7.414  0.00  0.00    -0.399 OA
ATOM     12  C   LIG    1       24.824 -20.882   6.467  0.00  0.00    +0.438 A 
ATOM     13  C   LIG    1       25.497 -20.263   5.441  0.00  0.00    +0.132 A 
ATOM     14  C   LIG    1       26.869 -20.352   5.786  0.00  0.00    +0.058 A 
BRANCH  12  15
ATOM     15  N   LIG    1       23.430 -21.091   6.698  0.00  0.00    +0.119 N 
ATOM     16  O   LIG    1       22.650 -20.864   5.766  0.00  0.00    -0.574 OA
ATOM     17  O   LIG    1       23.116 -21.491   7.828  0.00  0.00    +0.045 OA
ENDBRANCH  12  15
ENDBRANCH   2  10
TORSDOF 3
ENDMDL
