MODEL 1
REMARK VINA RESULT:      -9.6      0.000      0.000
REMARK  Name = *****
REMARK                            x       y       z     vdW  Elec       q    Type
REMARK                         _______ _______ _______ _____ _____    ______ ____
ROOT
ATOM      1  C   LIG    1       27.565 -19.955   6.299  0.00  0.00    +0.158 C 
ENDROOT
BRANCH   1   2
ATOM      2  C   LIG    1       28.839 -20.253   7.059  0.00  0.00    -0.016 A 
ATOM      3  C   LIG    1       29.899 -19.330   7.081  0.00  0.00    +0.033 A 
ATOM      4  C   LIG    1       31.059 -19.543   7.823  0.00  0.00    +0.075 A 
ATOM      5  C   LIG    1       31.164 -20.710   8.577  0.00  0.00    +0.138 A 
ATOM      6  C   LIG    1       30.130 -21.652   8.567  0.00  0.00    +0.048 A 
ATOM      7  C   LIG    1       28.967 -21.419   7.822  0.00  0.00    +0.010 A 
BRANCH   4   8
ATOM      8  N   LIG    1       31.923 -18.445   7.992  0.00  0.00    -0.285 N 
ATOM      9  H   LIG    1       32.625 -18.309   7.292  0.00  0.00    +0.155 HD
ATOM     10  C   LIG    1       31.752 -17.351   8.818  0.00  0.00    +0.330 C 
ATOM     11  O   LIG    1       32.512 -16.411   8.847  0.00  0.00    -0.279 OA
ENDBRANCH   4   8
BRANCH   5  12
ATOM     12  O   LIG    1       32.261 -20.899   9.367  0.00  0.00    -0.505 OA
ATOM     13  H   LIG    1       32.561 -21.817   9.256  0.00  0.00    +0.292 HD
ENDBRANCH   5  12
ENDBRANCH   1   2
BRANCH   1  14
ATOM     14  O   LIG    1       27.890 -20.018   4.904  0.00  0.00    -0.386 OA
ATOM     15  H   LIG    1       28.683 -19.472   4.766  0.00  0.00    +0.210 HD
ENDBRANCH   1  14
BRANCH   1  16
ATOM     16  C   LIG    1       26.382 -20.932   6.558  0.00  0.00    +0.117 C 
BRANCH  16  17
ATOM     17  N   LIG    1       25.445 -21.183   5.446  0.00  0.00    -0.310 NA
ATOM     18  H   LIG    1       25.291 -20.291   4.972  0.00  0.00    +0.122 HD
BRANCH  17  19
ATOM     19  C   LIG    1       24.128 -21.757   5.797  0.00  0.00    +0.055 C 
ATOM     20  C   LIG    1       23.120 -20.698   6.287  0.00  0.00    +0.024 C 
BRANCH  19  21
ATOM     21  C   LIG    1       24.154 -22.809   6.938  0.00  0.00    +0.053 C 
BRANCH  21  25
ATOM     22  C   LIG    1       25.410 -26.776   5.855  0.00  0.00    +0.120 A 
ATOM     23  C   LIG    1       24.069 -26.406   5.777  0.00  0.00    +0.046 A 
ATOM     24  C   LIG    1       23.665 -25.131   6.141  0.00  0.00    +0.007 A 
ATOM     25  C   LIG    1       24.587 -24.213   6.638  0.00  0.00    -0.046 A 
ATOM     26  C   LIG    1       25.940 -24.579   6.714  0.00  0.00    +0.007 A 
ATOM     27  C   LIG    1       26.352 -25.850   6.304  0.00  0.00    +0.046 A 
BRANCH  22  29
ATOM     28  C   LIG    1       24.864 -29.004   5.371  0.00  0.00    +0.277 C 
ATOM     29  O   LIG    1       25.878 -28.003   5.467  0.00  0.00    -0.495 OA
ENDBRANCH  22  29
ENDBRANCH  21  25
ENDBRANCH  19  21
ENDBRANCH  17  19
ENDBRANCH  16  17
ENDBRANCH   1  16
TORSDOF 10
ENDMDL
MODEL 2
REMARK VINA RESULT:      -9.4      2.449      9.287
REMARK  Name = *****
REMARK                            x       y       z     vdW  Elec       q    Type
REMARK                         _______ _______ _______ _____ _____    ______ ____
ROOT
ATOM      1  C   LIG    1       26.855 -20.669   7.710  0.00  0.00    +0.158 C 
ENDROOT
BRANCH   1   2
ATOM      2  C   LIG    1       25.633 -21.486   7.349  0.00  0.00    -0.016 A 
ATOM      3  C   LIG    1       25.762 -22.787   6.834  0.00  0.00    +0.033 A 
ATOM      4  C   LIG    1       24.659 -23.591   6.551  0.00  0.00    +0.075 A 
ATOM      5  C   LIG    1       23.384 -23.086   6.800  0.00  0.00    +0.138 A 
ATOM      6  C   LIG    1       23.225 -21.790   7.303  0.00  0.00    +0.048 A 
ATOM      7  C   LIG    1       24.344 -20.998   7.589  0.00  0.00    +0.010 A 
BRANCH   4   8
ATOM      8  N   LIG    1       24.904 -24.954   6.307  0.00  0.00    -0.285 N 
ATOM      9  H   LIG    1       24.650 -25.597   7.030  0.00  0.00    +0.155 HD
ATOM     10  C   LIG    1       25.163 -25.566   5.095  0.00  0.00    +0.330 C 
ATOM     11  O   LIG    1       25.289 -26.761   4.963  0.00  0.00    -0.279 OA
ENDBRANCH   4   8
BRANCH   5  12
ATOM     12  O   LIG    1       22.297 -23.886   6.600  0.00  0.00    -0.505 OA
ATOM     13  H   LIG    1       22.553 -24.600   5.993  0.00  0.00    +0.292 HD
ENDBRANCH   5  12
ENDBRANCH   1   2
BRANCH   1  14
ATOM     14  O   LIG    1       26.698 -20.269   9.077  0.00  0.00    -0.386 OA
ATOM     15  H   LIG    1       26.737 -19.297   9.101  0.00  0.00    +0.210 HD
ENDBRANCH   1  14
BRANCH   1  16
ATOM     16  C   LIG    1       28.220 -21.407   7.583  0.00  0.00    +0.117 C 
BRANCH  16  17
ATOM     17  N   LIG    1       29.255 -20.789   6.731  0.00  0.00    -0.310 NA
ATOM     18  H   LIG    1       30.135 -21.272   6.926  0.00  0.00    +0.122 HD
BRANCH  17  19
ATOM     19  C   LIG    1       29.475 -19.336   6.893  0.00  0.00    +0.055 C 
ATOM     20  C   LIG    1       29.292 -18.549   5.579  0.00  0.00    +0.024 C 
BRANCH  19  21
ATOM     21  C   LIG    1       30.895 -18.938   7.376  0.00  0.00    +0.053 C 
BRANCH  21  25
ATOM     22  C   LIG    1       31.391 -16.729  11.032  0.00  0.00    +0.120 A 
ATOM     23  C   LIG    1       30.194 -17.385  10.751  0.00  0.00    +0.046 A 
ATOM     24  C   LIG    1       30.032 -18.084   9.565  0.00  0.00    +0.007 A 
ATOM     25  C   LIG    1       31.047 -18.101   8.611  0.00  0.00    -0.046 A 
ATOM     26  C   LIG    1       32.256 -17.446   8.890  0.00  0.00    +0.007 A 
ATOM     27  C   LIG    1       32.434 -16.780  10.106  0.00  0.00    +0.046 A 
BRANCH  22  29
ATOM     28  C   LIG    1       32.949 -16.249  12.716  0.00  0.00    +0.277 C 
ATOM     29  O   LIG    1       31.629 -16.061  12.203  0.00  0.00    -0.495 OA
ENDBRANCH  22  29
ENDBRANCH  21  25
ENDBRANCH  19  21
ENDBRANCH  17  19
ENDBRANCH  16  17
ENDBRANCH   1  16
TORSDOF 10
ENDMDL
MODEL 3
REMARK VINA RESULT:      -9.2      2.895      5.082
REMARK  Name = *****
REMARK                            x       y       z     vdW  Elec       q    Type
REMARK                         _______ _______ _______ _____ _____    ______ ____
ROOT
ATOM      1  C   LIG    1       26.534 -21.374   8.395  0.00  0.00    +0.158 C 
ENDROOT
BRANCH   1   2
ATOM      2  C   LIG    1       27.445 -20.487   7.575  0.00  0.00    -0.016 A 
ATOM      3  C   LIG    1       28.608 -19.932   8.135  0.00  0.00    +0.033 A 
ATOM      4  C   LIG    1       29.503 -19.165   7.392  0.00  0.00    +0.075 A 
ATOM      5  C   LIG    1       29.235 -18.950   6.041  0.00  0.00    +0.138 A 
ATOM      6  C   LIG    1       28.080 -19.481   5.458  0.00  0.00    +0.048 A 
ATOM      7  C   LIG    1       27.194 -20.257   6.217  0.00  0.00    +0.010 A 
BRANCH   4   8
ATOM      8  N   LIG    1       30.755 -18.898   7.973  0.00  0.00    -0.285 N 
ATOM      9  H   LIG    1       31.448 -18.479   7.385  0.00  0.00    +0.155 HD
ATOM     10  C   LIG    1       31.074 -18.846   9.317  0.00  0.00    +0.330 C 
ATOM     11  O   LIG    1       32.165 -18.534   9.733  0.00  0.00    -0.279 OA
ENDBRANCH   4   8
BRANCH   5  12
ATOM     12  O   LIG    1       30.139 -18.264   5.281  0.00  0.00    -0.505 OA
ATOM     13  H   LIG    1       30.852 -17.954   5.864  0.00  0.00    +0.292 HD
ENDBRANCH   5  12
ENDBRANCH   1   2
BRANCH   1  14
ATOM     14  O   LIG    1       25.941 -20.542   9.401  0.00  0.00    -0.386 OA
ATOM     15  H   LIG    1       24.977 -20.640   9.327  0.00  0.00    +0.210 HD
ENDBRANCH   1  14
BRANCH   1  16
ATOM     16  C   LIG    1       25.382 -22.067   7.610  0.00  0.00    +0.117 C 
BRANCH  16  17
ATOM     17  N   LIG    1       24.068 -21.396   7.587  0.00  0.00    -0.310 NA
ATOM     18  H   LIG    1       23.858 -21.108   8.545  0.00  0.00    +0.122 HD
BRANCH  17  19
ATOM     19  C   LIG    1       22.924 -22.182   7.077  0.00  0.00    +0.055 C 
ATOM     20  C   LIG    1       23.293 -23.644   6.757  0.00  0.00    +0.024 C 
BRANCH  19  21
ATOM     21  C   LIG    1       22.301 -21.652   5.757  0.00  0.00    +0.053 C 
BRANCH  21  25
ATOM     22  C   LIG    1       24.710 -18.954   3.433  0.00  0.00    +0.120 A 
ATOM     23  C   LIG    1       23.586 -18.497   4.118  0.00  0.00    +0.046 A 
ATOM     24  C   LIG    1       22.804 -19.372   4.855  0.00  0.00    +0.007 A 
ATOM     25  C   LIG    1       23.099 -20.733   4.882  0.00  0.00    -0.046 A 
ATOM     26  C   LIG    1       24.232 -21.198   4.197  0.00  0.00    +0.007 A 
ATOM     27  C   LIG    1       25.046 -20.307   3.491  0.00  0.00    +0.046 A 
BRANCH  22  29
ATOM     28  C   LIG    1       26.042 -17.026   3.479  0.00  0.00    +0.277 C 
ATOM     29  O   LIG    1       25.549 -18.134   2.726  0.00  0.00    -0.495 OA
ENDBRANCH  22  29
ENDBRANCH  21  25
ENDBRANCH  19  21
ENDBRANCH  17  19
ENDBRANCH  16  17
ENDBRANCH   1  16
TORSDOF 10
ENDMDL
MODEL 4
REMARK VINA RESULT:      -9.0      1.922      3.378
REMARK  Name = *****
REMARK                            x       y       z     vdW  Elec       q    Type
REMARK                         _______ _______ _______ _____ _____    ______ ____
ROOT
ATOM      1  C   LIG    1       26.230 -22.203   7.562  0.00  0.00    +0.158 C 
ENDROOT
BRANCH   1   2
ATOM      2  C   LIG    1       27.300 -21.204   7.178  0.00  0.00    -0.016 A 
ATOM      3  C   LIG    1       28.530 -21.169   7.857  0.00  0.00    +0.033 A 
ATOM      4  C   LIG    1       29.562 -20.307   7.489  0.00  0.00    +0.075 A 
ATOM      5  C   LIG    1       29.366 -19.459   6.401  0.00  0.00    +0.138 A 
ATOM      6  C   LIG    1       28.148 -19.465   5.712  0.00  0.00    +0.048 A 
ATOM      7  C   LIG    1       27.124 -20.342   6.090  0.00  0.00    +0.010 A 
BRANCH   4   8
ATOM      8  N   LIG    1       30.829 -20.547   8.050  0.00  0.00    -0.285 N 
ATOM      9  H   LIG    1       31.523 -19.838   7.921  0.00  0.00    +0.155 HD
ATOM     10  C   LIG    1       31.168 -21.477   9.015  0.00  0.00    +0.330 C 
ATOM     11  O   LIG    1       32.272 -21.566   9.498  0.00  0.00    -0.279 OA
ENDBRANCH   4   8
BRANCH   5  12
ATOM     12  O   LIG    1       30.392 -18.662   5.980  0.00  0.00    -0.505 OA
ATOM     13  H   LIG    1       30.244 -18.444   5.045  0.00  0.00    +0.292 HD
ENDBRANCH   5  12
ENDBRANCH   1   2
BRANCH   1  14
ATOM     14  O   LIG    1       25.728 -21.801   8.843  0.00  0.00    -0.386 OA
ATOM     15  H   LIG    1       26.010 -22.471   9.489  0.00  0.00    +0.210 HD
ENDBRANCH   1  14
BRANCH   1  16
ATOM     16  C   LIG    1       25.022 -22.304   6.586  0.00  0.00    +0.117 C 
BRANCH  16  17
ATOM     17  N   LIG    1       25.183 -23.140   5.381  0.00  0.00    -0.310 NA
ATOM     18  H   LIG    1       24.676 -22.680   4.623  0.00  0.00    +0.122 HD
BRANCH  17  19
ATOM     19  C   LIG    1       24.718 -24.541   5.470  0.00  0.00    +0.055 C 
ATOM     20  C   LIG    1       23.613 -24.743   6.526  0.00  0.00    +0.024 C 
BRANCH  19  21
ATOM     21  C   LIG    1       25.810 -25.571   5.864  0.00  0.00    +0.053 C 
BRANCH  21  25
ATOM     22  C   LIG    1       24.497 -29.508   6.987  0.00  0.00    +0.120 A 
ATOM     23  C   LIG    1       25.381 -28.794   7.793  0.00  0.00    +0.046 A 
ATOM     24  C   LIG    1       25.814 -27.531   7.421  0.00  0.00    +0.007 A 
ATOM     25  C   LIG    1       25.410 -26.974   6.210  0.00  0.00    -0.046 A 
ATOM     26  C   LIG    1       24.517 -27.687   5.396  0.00  0.00    +0.007 A 
ATOM     27  C   LIG    1       24.045 -28.941   5.794  0.00  0.00    +0.046 A 
BRANCH  22  29
ATOM     28  C   LIG    1       24.201 -31.735   6.318  0.00  0.00    +0.277 C 
ATOM     29  O   LIG    1       23.997 -30.739   7.320  0.00  0.00    -0.495 OA
ENDBRANCH  22  29
ENDBRANCH  21  25
ENDBRANCH  19  21
ENDBRANCH  17  19
ENDBRANCH  16  17
ENDBRANCH   1  16
TORSDOF 10
ENDMDL
MODEL 5
REMARK VINA RESULT:      -8.5      2.736      7.898
REMARK  Name = *****
REMARK                            x       y       z     vdW  Elec       q    Type
REMARK                         _______ _______ _______ _____ _____    ______ ____
ROOT
ATOM      1  C   LIG    1       25.148 -24.365   5.928  0.00  0.00    +0.158 C 
ENDROOT
BRANCH   1   2
ATOM      2  C   LIG    1       25.142 -25.857   6.178  0.00  0.00    -0.016 A 
ATOM      3  C   LIG    1       26.043 -26.440   7.085  0.00  0.00    +0.033 A 
ATOM      4  C   LIG    1       26.023 -27.801   7.387  0.00  0.00    +0.075 A 
ATOM      5  C   LIG    1       25.066 -28.607   6.773  0.00  0.00    +0.138 A 
ATOM      6  C   LIG    1       24.163 -28.056   5.857  0.00  0.00    +0.048 A 
ATOM      7  C   LIG    1       24.192 -26.685   5.570  0.00  0.00    +0.010 A 
BRANCH   4   8
ATOM      8  N   LIG    1       26.773 -28.222   8.500  0.00  0.00    -0.285 N 
ATOM      9  H   LIG    1       27.768 -28.140   8.433  0.00  0.00    +0.155 HD
ATOM     10  C   LIG    1       26.328 -28.446   9.789  0.00  0.00    +0.330 C 
ATOM     11  O   LIG    1       27.059 -28.736  10.707  0.00  0.00    -0.279 OA
ENDBRANCH   4   8
BRANCH   5  12
ATOM     12  O   LIG    1       24.985 -29.926   7.113  0.00  0.00    -0.505 OA
ATOM     13  H   LIG    1       24.424 -30.002   7.903  0.00  0.00    +0.292 HD
ENDBRANCH   5  12
ENDBRANCH   1   2
BRANCH   1  14
ATOM     14  O   LIG    1       24.970 -24.179   4.518  0.00  0.00    -0.386 OA
ATOM     15  H   LIG    1       24.053 -24.427   4.307  0.00  0.00    +0.210 HD
ENDBRANCH   1  14
BRANCH   1  16
ATOM     16  C   LIG    1       24.040 -23.555   6.660  0.00  0.00    +0.117 C 
BRANCH  16  17
ATOM     17  N   LIG    1       23.251 -22.596   5.862  0.00  0.00    -0.310 NA
ATOM     18  H   LIG    1       23.347 -22.868   4.882  0.00  0.00    +0.122 HD
BRANCH  17  19
ATOM     19  C   LIG    1       23.608 -21.167   5.987  0.00  0.00    +0.055 C 
ATOM     20  C   LIG    1       22.556 -20.226   5.367  0.00  0.00    +0.024 C 
BRANCH  19  21
ATOM     21  C   LIG    1       24.935 -20.760   5.293  0.00  0.00    +0.053 C 
BRANCH  21  25
ATOM     22  C   LIG    1       28.432 -20.054   7.693  0.00  0.00    +0.120 A 
ATOM     23  C   LIG    1       27.223 -20.417   8.283  0.00  0.00    +0.046 A 
ATOM     24  C   LIG    1       26.094 -20.629   7.508  0.00  0.00    +0.007 A 
ATOM     25  C   LIG    1       26.136 -20.436   6.129  0.00  0.00    -0.046 A 
ATOM     26  C   LIG    1       27.352 -20.074   5.529  0.00  0.00    +0.007 A 
ATOM     27  C   LIG    1       28.501 -19.904   6.307  0.00  0.00    +0.046 A 
BRANCH  22  29
ATOM     28  C   LIG    1       30.760 -19.798   7.577  0.00  0.00    +0.277 C 
ATOM     29  O   LIG    1       29.593 -19.874   8.397  0.00  0.00    -0.495 OA
ENDBRANCH  22  29
ENDBRANCH  21  25
ENDBRANCH  19  21
ENDBRANCH  17  19
ENDBRANCH  16  17
ENDBRANCH   1  16
TORSDOF 10
ENDMDL
MODEL 6
REMARK VINA RESULT:      -8.5      2.660      8.075
REMARK  Name = *****
REMARK                            x       y       z     vdW  Elec       q    Type
REMARK                         _______ _______ _______ _____ _____    ______ ____
ROOT
ATOM      1  C   LIG    1       22.880 -23.147   6.111  0.00  0.00    +0.158 C 
ENDROOT
BRANCH   1   2
ATOM      2  C   LIG    1       23.941 -24.211   6.293  0.00  0.00    -0.016 A 
ATOM      3  C   LIG    1       23.640 -25.571   6.100  0.00  0.00    +0.033 A 
ATOM      4  C   LIG    1       24.606 -26.570   6.195  0.00  0.00    +0.075 A 
ATOM      5  C   LIG    1       25.919 -26.204   6.484  0.00  0.00    +0.138 A 
ATOM      6  C   LIG    1       26.247 -24.859   6.692  0.00  0.00    +0.048 A 
ATOM      7  C   LIG    1       25.265 -23.866   6.585  0.00  0.00    +0.010 A 
BRANCH   4   8
ATOM      8  N   LIG    1       24.258 -27.846   5.716  0.00  0.00    -0.285 N 
ATOM      9  H   LIG    1       24.388 -28.014   4.738  0.00  0.00    +0.155 HD
ATOM     10  C   LIG    1       24.052 -29.001   6.447  0.00  0.00    +0.330 C 
ATOM     11  O   LIG    1       23.828 -30.078   5.946  0.00  0.00    -0.279 OA
ENDBRANCH   4   8
BRANCH   5  12
ATOM     12  O   LIG    1       26.891 -27.162   6.508  0.00  0.00    -0.505 OA
ATOM     13  H   LIG    1       26.516 -27.984   6.151  0.00  0.00    +0.292 HD
ENDBRANCH   5  12
ENDBRANCH   1   2
BRANCH   1  14
ATOM     14  O   LIG    1       21.705 -23.614   6.785  0.00  0.00    -0.386 OA
ATOM     15  H   LIG    1       21.991 -24.017   7.623  0.00  0.00    +0.210 HD
ENDBRANCH   1  14
BRANCH   1  16
ATOM     16  C   LIG    1       23.231 -21.742   6.681  0.00  0.00    +0.117 C 
BRANCH  16  17
ATOM     17  N   LIG    1       22.900 -20.566   5.854  0.00  0.00    -0.310 NA
ATOM     18  H   LIG    1       22.261 -20.880   5.122  0.00  0.00    +0.122 HD
BRANCH  17  19
ATOM     19  C   LIG    1       24.030 -19.858   5.214  0.00  0.00    +0.055 C 
ATOM     20  C   LIG    1       23.738 -19.454   3.755  0.00  0.00    +0.024 C 
BRANCH  19  21
ATOM     21  C   LIG    1       25.347 -20.674   5.123  0.00  0.00    +0.053 C 
BRANCH  21  25
ATOM     22  C   LIG    1       28.678 -19.920   7.736  0.00  0.00    +0.120 A 
ATOM     23  C   LIG    1       27.436 -20.288   8.250  0.00  0.00    +0.046 A 
ATOM     24  C   LIG    1       26.361 -20.516   7.407  0.00  0.00    +0.007 A 
ATOM     25  C   LIG    1       26.490 -20.333   6.032  0.00  0.00    -0.046 A 
ATOM     26  C   LIG    1       27.739 -19.966   5.508  0.00  0.00    +0.007 A 
ATOM     27  C   LIG    1       28.834 -19.780   6.357  0.00  0.00    +0.046 A 
BRANCH  22  29
ATOM     28  C   LIG    1       30.274 -18.382   8.498  0.00  0.00    +0.277 C 
ATOM     29  O   LIG    1       29.789 -19.725   8.512  0.00  0.00    -0.495 OA
ENDBRANCH  22  29
ENDBRANCH  21  25
ENDBRANCH  19  21
ENDBRANCH  17  19
ENDBRANCH  16  17
ENDBRANCH   1  16
TORSDOF 10
ENDMDL
MODEL 7
REMARK VINA RESULT:      -8.2      2.776      9.643
REMARK  Name = *****
REMARK                            x       y       z     vdW  Elec       q    Type
REMARK                         _______ _______ _______ _____ _____    ______ ____
ROOT
ATOM      1  C   LIG    1       26.758 -20.425   7.758  0.00  0.00    +0.158 C 
ENDROOT
BRANCH   1   2
ATOM      2  C   LIG    1       25.872 -21.574   7.328  0.00  0.00    -0.016 A 
ATOM      3  C   LIG    1       24.661 -21.338   6.654  0.00  0.00    +0.033 A 
ATOM      4  C   LIG    1       23.853 -22.372   6.187  0.00  0.00    +0.075 A 
ATOM      5  C   LIG    1       24.268 -23.687   6.389  0.00  0.00    +0.138 A 
ATOM      6  C   LIG    1       25.463 -23.953   7.067  0.00  0.00    +0.048 A 
ATOM      7  C   LIG    1       26.268 -22.902   7.523  0.00  0.00    +0.010 A 
BRANCH   4   8
ATOM      8  N   LIG    1       22.821 -22.027   5.295  0.00  0.00    -0.285 N 
ATOM      9  H   LIG    1       22.333 -22.781   4.853  0.00  0.00    +0.155 HD
ATOM     10  C   LIG    1       22.177 -20.810   5.172  0.00  0.00    +0.330 C 
ATOM     11  O   LIG    1       21.245 -20.621   4.426  0.00  0.00    -0.279 OA
ENDBRANCH   4   8
BRANCH   5  12
ATOM     12  O   LIG    1       23.525 -24.710   5.873  0.00  0.00    -0.505 OA
ATOM     13  H   LIG    1       22.592 -24.440   5.879  0.00  0.00    +0.292 HD
ENDBRANCH   5  12
ENDBRANCH   1   2
BRANCH   1  14
ATOM     14  O   LIG    1       26.595 -20.283   9.175  0.00  0.00    -0.386 OA
ATOM     15  H   LIG    1       26.811 -19.362   9.401  0.00  0.00    +0.210 HD
ENDBRANCH   1  14
BRANCH   1  16
ATOM     16  C   LIG    1       28.277 -20.600   7.467  0.00  0.00    +0.117 C 
BRANCH  16  17
ATOM     17  N   LIG    1       29.227 -19.842   8.303  0.00  0.00    -0.310 NA
ATOM     18  H   LIG    1       28.719 -19.535   9.136  0.00  0.00    +0.122 HD
BRANCH  17  19
ATOM     19  C   LIG    1       29.867 -18.661   7.686  0.00  0.00    +0.055 C 
ATOM     20  C   LIG    1       29.951 -18.755   6.150  0.00  0.00    +0.024 C 
BRANCH  19  21
ATOM     21  C   LIG    1       31.332 -18.403   8.129  0.00  0.00    +0.053 C 
BRANCH  21  25
ATOM     22  C   LIG    1       31.949 -16.206  11.773  0.00  0.00    +0.120 A 
ATOM     23  C   LIG    1       32.689 -15.914  10.630  0.00  0.00    +0.046 A 
ATOM     24  C   LIG    1       32.499 -16.633   9.461  0.00  0.00    +0.007 A 
ATOM     25  C   LIG    1       31.598 -17.694   9.424  0.00  0.00    -0.046 A 
ATOM     26  C   LIG    1       30.847 -17.991  10.571  0.00  0.00    +0.007 A 
ATOM     27  C   LIG    1       31.008 -17.235  11.736  0.00  0.00    +0.046 A 
BRANCH  22  29
ATOM     28  C   LIG    1       32.519 -16.286  14.046  0.00  0.00    +0.277 C 
ATOM     29  O   LIG    1       32.058 -15.503  12.944  0.00  0.00    -0.495 OA
ENDBRANCH  22  29
ENDBRANCH  21  25
ENDBRANCH  19  21
ENDBRANCH  17  19
ENDBRANCH  16  17
ENDBRANCH   1  16
TORSDOF 10
ENDMDL
MODEL 8
REMARK VINA RESULT:      -8.2      2.697      8.741
REMARK  Name = *****
REMARK                            x       y       z     vdW  Elec       q    Type
REMARK                         _______ _______ _______ _____ _____    ______ ____
ROOT
ATOM      1  C   LIG    1       25.722 -25.220   5.775  0.00  0.00    +0.158 C 
ENDROOT
BRANCH   1   2
ATOM      2  C   LIG    1       25.334 -26.646   6.103  0.00  0.00    -0.016 A 
ATOM      3  C   LIG    1       25.906 -27.315   7.199  0.00  0.00    +0.033 A 
ATOM      4  C   LIG    1       25.526 -28.604   7.568  0.00  0.00    +0.075 A 
ATOM      5  C   LIG    1       24.534 -29.245   6.828  0.00  0.00    +0.138 A 
ATOM      6  C   LIG    1       23.954 -28.607   5.726  0.00  0.00    +0.048 A 
ATOM      7  C   LIG    1       24.342 -27.309   5.372  0.00  0.00    +0.010 A 
BRANCH   4   8
ATOM      8  N   LIG    1       25.955 -29.064   8.826  0.00  0.00    -0.285 N 
ATOM      9  H   LIG    1       25.872 -30.045   9.003  0.00  0.00    +0.155 HD
ATOM     10  C   LIG    1       26.758 -28.408   9.741  0.00  0.00    +0.330 C 
ATOM     11  O   LIG    1       27.142 -28.909  10.772  0.00  0.00    -0.279 OA
ENDBRANCH   4   8
BRANCH   5  12
ATOM     12  O   LIG    1       24.098 -30.477   7.221  0.00  0.00    -0.505 OA
ATOM     13  H   LIG    1       23.720 -30.927   6.447  0.00  0.00    +0.292 HD
ENDBRANCH   5  12
ENDBRANCH   1   2
BRANCH   1  14
ATOM     14  O   LIG    1       24.968 -24.841   4.617  0.00  0.00    -0.386 OA
ATOM     15  H   LIG    1       24.051 -24.692   4.904  0.00  0.00    +0.210 HD
ENDBRANCH   1  14
BRANCH   1  16
ATOM     16  C   LIG    1       25.442 -24.172   6.891  0.00  0.00    +0.117 C 
BRANCH  16  17
ATOM     17  N   LIG    1       25.210 -22.775   6.477  0.00  0.00    -0.310 NA
ATOM     18  H   LIG    1       25.396 -22.722   5.473  0.00  0.00    +0.122 HD
BRANCH  17  19
ATOM     19  C   LIG    1       26.012 -21.734   7.154  0.00  0.00    +0.055 C 
ATOM     20  C   LIG    1       25.162 -20.796   8.033  0.00  0.00    +0.024 C 
BRANCH  19  21
ATOM     21  C   LIG    1       26.775 -20.772   6.205  0.00  0.00    +0.053 C 
BRANCH  21  25
ATOM     22  C   LIG    1       30.726 -19.465   7.285  0.00  0.00    +0.120 A 
ATOM     23  C   LIG    1       30.026 -18.843   6.254  0.00  0.00    +0.046 A 
ATOM     24  C   LIG    1       28.758 -19.277   5.898  0.00  0.00    +0.007 A 
ATOM     25  C   LIG    1       28.182 -20.373   6.533  0.00  0.00    -0.046 A 
ATOM     26  C   LIG    1       28.881 -21.001   7.576  0.00  0.00    +0.007 A 
ATOM     27  C   LIG    1       30.141 -20.535   7.964  0.00  0.00    +0.046 A 
BRANCH  22  29
ATOM     28  C   LIG    1       31.916 -18.029   8.705  0.00  0.00    +0.277 C 
ATOM     29  O   LIG    1       31.961 -19.056   7.714  0.00  0.00    -0.495 OA
ENDBRANCH  22  29
ENDBRANCH  21  25
ENDBRANCH  19  21
ENDBRANCH  17  19
ENDBRANCH  16  17
ENDBRANCH   1  16
TORSDOF 10
ENDMDL
MODEL 9
REMARK VINA RESULT:      -8.0      2.596      9.163
REMARK  Name = *****
REMARK                            x       y       z     vdW  Elec       q    Type
REMARK                         _______ _______ _______ _____ _____    ______ ____
ROOT
ATOM      1  C   LIG    1       24.400 -24.963   5.611  0.00  0.00    +0.158 C 
ENDROOT
BRANCH   1   2
ATOM      2  C   LIG    1       24.885 -26.397   5.608  0.00  0.00    -0.016 A 
ATOM      3  C   LIG    1       24.307 -27.356   6.457  0.00  0.00    +0.033 A 
ATOM      4  C   LIG    1       24.685 -28.697   6.435  0.00  0.00    +0.075 A 
ATOM      5  C   LIG    1       25.665 -29.099   5.530  0.00  0.00    +0.138 A 
ATOM      6  C   LIG    1       26.266 -28.165   4.679  0.00  0.00    +0.048 A 
ATOM      7  C   LIG    1       25.870 -26.822   4.708  0.00  0.00    +0.010 A 
BRANCH   4   8
ATOM      8  N   LIG    1       23.859 -29.607   7.119  0.00  0.00    -0.285 N 
ATOM      9  H   LIG    1       23.205 -30.128   6.569  0.00  0.00    +0.155 HD
ATOM     10  C   LIG    1       24.026 -30.111   8.395  0.00  0.00    +0.330 C 
ATOM     11  O   LIG    1       23.304 -30.951   8.881  0.00  0.00    -0.279 OA
ENDBRANCH   4   8
BRANCH   5  12
ATOM     12  O   LIG    1       25.993 -30.422   5.444  0.00  0.00    -0.505 OA
ATOM     13  H   LIG    1       26.851 -30.493   4.994  0.00  0.00    +0.292 HD
ENDBRANCH   5  12
ENDBRANCH   1   2
BRANCH   1  14
ATOM     14  O   LIG    1       23.249 -24.917   6.464  0.00  0.00    -0.386 OA
ATOM     15  H   LIG    1       22.530 -24.502   5.958  0.00  0.00    +0.210 HD
ENDBRANCH   1  14
BRANCH   1  16
ATOM     16  C   LIG    1       25.420 -23.908   6.127  0.00  0.00    +0.117 C 
BRANCH  16  17
ATOM     17  N   LIG    1       25.229 -22.507   5.704  0.00  0.00    -0.310 NA
ATOM     18  H   LIG    1       25.685 -22.399   4.796  0.00  0.00    +0.122 HD
BRANCH  17  19
ATOM     19  C   LIG    1       25.744 -21.458   6.611  0.00  0.00    +0.055 C 
ATOM     20  C   LIG    1       24.627 -20.715   7.369  0.00  0.00    +0.024 C 
BRANCH  19  21
ATOM     21  C   LIG    1       26.545 -20.325   5.914  0.00  0.00    +0.053 C 
BRANCH  21  25
ATOM     22  C   LIG    1       30.593 -19.510   7.110  0.00  0.00    +0.120 A 
ATOM     23  C   LIG    1       30.008 -18.815   6.054  0.00  0.00    +0.046 A 
ATOM     24  C   LIG    1       28.708 -19.091   5.661  0.00  0.00    +0.007 A 
ATOM     25  C   LIG    1       27.980 -20.101   6.285  0.00  0.00    -0.046 A 
ATOM     26  C   LIG    1       28.564 -20.802   7.352  0.00  0.00    +0.007 A 
ATOM     27  C   LIG    1       29.859 -20.492   7.776  0.00  0.00    +0.046 A 
BRANCH  22  29
ATOM     28  C   LIG    1       31.893 -18.334   8.667  0.00  0.00    +0.277 C 
ATOM     29  O   LIG    1       31.856 -19.253   7.575  0.00  0.00    -0.495 OA
ENDBRANCH  22  29
ENDBRANCH  21  25
ENDBRANCH  19  21
ENDBRANCH  17  19
ENDBRANCH  16  17
ENDBRANCH   1  16
TORSDOF 10
ENDMDL
