MODEL 1
REMARK VINA RESULT:     -10.9      0.000      0.000
REMARK  Name = *****
REMARK                            x       y       z     vdW  Elec       q    Type
REMARK                         _______ _______ _______ _____ _____    ______ ____
ROOT
ATOM      1  C   LIG    1       26.181 -24.787   6.197  0.00  0.00    +0.084 C 
ENDROOT
BRANCH   1   5
ATOM      2  C   LIG    1       24.829 -28.215   5.982  0.00  0.00    +0.095 C 
ATOM      3  C   LIG    1       26.255 -27.842   5.557  0.00  0.00    +0.041 C 
ATOM      4  C   LIG    1       26.232 -26.666   4.580  0.00  0.00    +0.086 C 
ATOM      5  N   LIG    1       25.512 -25.491   5.086  0.00  0.00    -0.302 NA
ATOM      6  C   LIG    1       24.127 -25.856   5.436  0.00  0.00    +0.086 C 
ATOM      7  C   LIG    1       24.033 -26.994   6.454  0.00  0.00    +0.041 C 
BRANCH   2   9
ATOM      8  C   LIG    1       24.155 -30.509   6.803  0.00  0.00    +0.297 A 
ATOM      9  N   LIG    1       24.797 -29.314   6.943  0.00  0.00    -0.291 N 
ATOM     10  C   LIG    1       25.456 -29.352   8.152  0.00  0.00    +0.072 A 
ATOM     11  C   LIG    1       25.135 -30.602   8.677  0.00  0.00    +0.093 A 
ATOM     12  C   LIG    1       25.651 -30.979   9.929  0.00  0.00    +0.030 A 
ATOM     13  C   LIG    1       26.483 -30.085  10.612  0.00  0.00    +0.002 A 
ATOM     14  C   LIG    1       26.795 -28.840  10.066  0.00  0.00    +0.002 A 
ATOM     15  C   LIG    1       26.284 -28.443   8.825  0.00  0.00    +0.028 A 
ATOM     16  N   LIG    1       24.328 -31.312   7.828  0.00  0.00    -0.195 NA
BRANCH   8  17
ATOM     17  O   LIG    1       23.446 -30.878   5.761  0.00  0.00    -0.479 OA
ATOM     18  H   LIG    1       23.129 -30.015   5.431  0.00  0.00    +0.295 HD
ENDBRANCH   8  17
ENDBRANCH   2   9
ENDBRANCH   1   5
BRANCH   1  19
ATOM     19  C   LIG    1       25.279 -23.789   6.944  0.00  0.00    +0.016 C 
BRANCH  19  20
ATOM     20  C   LIG    1       26.060 -22.543   7.385  0.00  0.00    +0.014 C 
BRANCH  20  21
ATOM     21  C   LIG    1       26.380 -21.546   6.233  0.00  0.00    +0.049 C 
BRANCH  21  22
ATOM     22  C   LIG    1       27.502 -20.556   6.605  0.00  0.00    -0.040 A 
ATOM     23  C   LIG    1       28.195 -19.814   5.629  0.00  0.00    +0.007 A 
ATOM     24  C   LIG    1       29.238 -18.954   5.981  0.00  0.00    +0.038 A 
ATOM     25  C   LIG    1       29.599 -18.826   7.313  0.00  0.00    +0.123 A 
ATOM     26  F   LIG    1       30.594 -17.994   7.647  0.00  0.00    -0.205 F 
ATOM     27  C   LIG    1       28.944 -19.551   8.300  0.00  0.00    +0.038 A 
ATOM     28  C   LIG    1       27.903 -20.420   7.949  0.00  0.00    +0.007 A 
ENDBRANCH  21  22
BRANCH  21  29
ATOM     29  C   LIG    1       25.116 -20.839   5.733  0.00  0.00    -0.040 A 
ATOM     30  C   LIG    1       23.992 -20.685   6.563  0.00  0.00    +0.007 A 
ATOM     31  C   LIG    1       22.844 -20.039   6.106  0.00  0.00    +0.038 A 
ATOM     32  C   LIG    1       22.786 -19.591   4.795  0.00  0.00    +0.123 A 
ATOM     33  F   LIG    1       21.671 -19.000   4.350  0.00  0.00    -0.205 F 
ATOM     34  C   LIG    1       23.868 -19.754   3.940  0.00  0.00    +0.038 A 
ATOM     35  C   LIG    1       25.038 -20.357   4.412  0.00  0.00    +0.007 A 
ENDBRANCH  21  29
ENDBRANCH  20  21
ENDBRANCH  19  20
ENDBRANCH   1  19
TORSDOF 8
ENDMDL
MODEL 2
REMARK VINA RESULT:     -10.3      0.680      3.976
REMARK  Name = *****
REMARK                            x       y       z     vdW  Elec       q    Type
REMARK                         _______ _______ _______ _____ _____    ______ ____
ROOT
ATOM      1  C   LIG    1       26.090 -24.824   6.114  0.00  0.00    +0.084 C 
ENDROOT
BRANCH   1   5
ATOM      2  C   LIG    1       24.747 -28.259   5.971  0.00  0.00    +0.095 C 
ATOM      3  C   LIG    1       26.139 -27.875   5.453  0.00  0.00    +0.041 C 
ATOM      4  C   LIG    1       26.044 -26.694   4.487  0.00  0.00    +0.086 C 
ATOM      5  N   LIG    1       25.353 -25.526   5.047  0.00  0.00    -0.302 NA
ATOM      6  C   LIG    1       23.997 -25.902   5.486  0.00  0.00    +0.086 C 
ATOM      7  C   LIG    1       23.977 -27.045   6.501  0.00  0.00    +0.041 C 
BRANCH   2   9
ATOM      8  C   LIG    1       24.182 -30.581   6.798  0.00  0.00    +0.297 A 
ATOM      9  N   LIG    1       24.785 -29.363   6.925  0.00  0.00    -0.291 N 
ATOM     10  C   LIG    1       25.484 -29.384   8.113  0.00  0.00    +0.072 A 
ATOM     11  C   LIG    1       25.225 -30.647   8.640  0.00  0.00    +0.093 A 
ATOM     12  C   LIG    1       25.794 -31.011   9.872  0.00  0.00    +0.030 A 
ATOM     13  C   LIG    1       26.616 -30.091  10.534  0.00  0.00    +0.002 A 
ATOM     14  C   LIG    1       26.865 -28.833   9.986  0.00  0.00    +0.002 A 
ATOM     15  C   LIG    1       26.299 -28.449   8.764  0.00  0.00    +0.028 A 
ATOM     16  N   LIG    1       24.417 -31.381   7.813  0.00  0.00    -0.195 NA
BRANCH   8  17
ATOM     17  O   LIG    1       23.454 -30.970   5.778  0.00  0.00    -0.479 OA
ATOM     18  H   LIG    1       22.583 -31.094   6.202  0.00  0.00    +0.295 HD
ENDBRANCH   8  17
ENDBRANCH   2   9
ENDBRANCH   1   5
BRANCH   1  19
ATOM     19  C   LIG    1       25.329 -23.637   6.729  0.00  0.00    +0.016 C 
BRANCH  19  20
ATOM     20  C   LIG    1       26.175 -22.911   7.786  0.00  0.00    +0.014 C 
BRANCH  20  21
ATOM     21  C   LIG    1       26.166 -21.359   7.658  0.00  0.00    +0.049 C 
BRANCH  21  22
ATOM     22  C   LIG    1       25.144 -20.859   6.618  0.00  0.00    -0.040 A 
ATOM     23  C   LIG    1       25.509 -20.592   5.284  0.00  0.00    +0.007 A 
ATOM     24  C   LIG    1       24.579 -20.098   4.366  0.00  0.00    +0.038 A 
ATOM     25  C   LIG    1       23.274 -19.867   4.771  0.00  0.00    +0.123 A 
ATOM     26  F   LIG    1       22.383 -19.401   3.886  0.00  0.00    -0.205 F 
ATOM     27  C   LIG    1       22.884 -20.108   6.082  0.00  0.00    +0.038 A 
ATOM     28  C   LIG    1       23.816 -20.596   7.006  0.00  0.00    +0.007 A 
ENDBRANCH  21  22
BRANCH  21  29
ATOM     29  C   LIG    1       27.574 -20.807   7.409  0.00  0.00    -0.040 A 
ATOM     30  C   LIG    1       27.810 -19.831   6.425  0.00  0.00    +0.007 A 
ATOM     31  C   LIG    1       29.091 -19.329   6.203  0.00  0.00    +0.038 A 
ATOM     32  C   LIG    1       30.161 -19.840   6.923  0.00  0.00    +0.123 A 
ATOM     33  F   LIG    1       31.395 -19.379   6.685  0.00  0.00    -0.205 F 
ATOM     34  C   LIG    1       29.967 -20.825   7.881  0.00  0.00    +0.038 A 
ATOM     35  C   LIG    1       28.675 -21.294   8.140  0.00  0.00    +0.007 A 
ENDBRANCH  21  29
ENDBRANCH  20  21
ENDBRANCH  19  20
ENDBRANCH   1  19
TORSDOF 8
ENDMDL
MODEL 3
REMARK VINA RESULT:     -10.2      1.235      2.171
REMARK  Name = *****
REMARK                            x       y       z     vdW  Elec       q    Type
REMARK                         _______ _______ _______ _____ _____    ______ ____
ROOT
ATOM      1  C   LIG    1       25.940 -24.672   6.207  0.00  0.00    +0.084 C 
ENDROOT
BRANCH   1   5
ATOM      2  C   LIG    1       25.056 -28.254   6.086  0.00  0.00    +0.095 C 
ATOM      3  C   LIG    1       26.405 -27.702   5.610  0.00  0.00    +0.041 C 
ATOM      4  C   LIG    1       26.197 -26.558   4.617  0.00  0.00    +0.086 C 
ATOM      5  N   LIG    1       25.340 -25.481   5.128  0.00  0.00    -0.302 NA
ATOM      6  C   LIG    1       24.028 -26.021   5.526  0.00  0.00    +0.086 C 
ATOM      7  C   LIG    1       24.117 -27.142   6.563  0.00  0.00    +0.041 C 
BRANCH   2   9
ATOM      8  C   LIG    1       25.832 -29.263   8.270  0.00  0.00    +0.297 A 
ATOM      9  N   LIG    1       25.200 -29.329   7.063  0.00  0.00    -0.291 N 
ATOM     10  C   LIG    1       24.676 -30.599   6.954  0.00  0.00    +0.072 A 
ATOM     11  C   LIG    1       25.061 -31.230   8.134  0.00  0.00    +0.093 A 
ATOM     12  C   LIG    1       24.687 -32.566   8.357  0.00  0.00    +0.030 A 
ATOM     13  C   LIG    1       23.926 -33.225   7.384  0.00  0.00    +0.002 A 
ATOM     14  C   LIG    1       23.548 -32.572   6.211  0.00  0.00    +0.002 A 
ATOM     15  C   LIG    1       23.919 -31.245   5.967  0.00  0.00    +0.028 A 
ATOM     16  N   LIG    1       25.777 -30.389   8.945  0.00  0.00    -0.195 NA
BRANCH   8  17
ATOM     17  O   LIG    1       26.426 -28.202   8.764  0.00  0.00    -0.479 OA
ATOM     18  H   LIG    1       26.333 -27.570   8.025  0.00  0.00    +0.295 HD
ENDBRANCH   8  17
ENDBRANCH   2   9
ENDBRANCH   1   5
BRANCH   1  19
ATOM     19  C   LIG    1       24.954 -23.719   6.902  0.00  0.00    +0.016 C 
BRANCH  19  20
ATOM     20  C   LIG    1       25.630 -22.400   7.303  0.00  0.00    +0.014 C 
BRANCH  20  21
ATOM     21  C   LIG    1       26.084 -21.521   6.101  0.00  0.00    +0.049 C 
BRANCH  21  22
ATOM     22  C   LIG    1       27.289 -20.625   6.448  0.00  0.00    -0.040 A 
ATOM     23  C   LIG    1       27.861 -19.747   5.507  0.00  0.00    +0.007 A 
ATOM     24  C   LIG    1       28.980 -18.974   5.826  0.00  0.00    +0.038 A 
ATOM     25  C   LIG    1       29.539 -19.070   7.090  0.00  0.00    +0.123 A 
ATOM     26  F   LIG    1       30.607 -18.322   7.396  0.00  0.00    -0.205 F 
ATOM     27  C   LIG    1       29.008 -19.935   8.039  0.00  0.00    +0.038 A 
ATOM     28  C   LIG    1       27.891 -20.716   7.719  0.00  0.00    +0.007 A 
ENDBRANCH  21  22
BRANCH  21  29
ATOM     29  C   LIG    1       24.914 -20.728   5.509  0.00  0.00    -0.040 A 
ATOM     30  C   LIG    1       24.994 -20.161   4.226  0.00  0.00    +0.007 A 
ATOM     31  C   LIG    1       23.927 -19.442   3.689  0.00  0.00    +0.038 A 
ATOM     32  C   LIG    1       22.790 -19.232   4.454  0.00  0.00    +0.123 A 
ATOM     33  F   LIG    1       21.780 -18.513   3.949  0.00  0.00    -0.205 F 
ATOM     34  C   LIG    1       22.691 -19.752   5.737  0.00  0.00    +0.038 A 
ATOM     35  C   LIG    1       23.740 -20.516   6.258  0.00  0.00    +0.007 A 
ENDBRANCH  21  29
ENDBRANCH  20  21
ENDBRANCH  19  20
ENDBRANCH   1  19
TORSDOF 8
ENDMDL
MODEL 4
REMARK VINA RESULT:     -10.2      1.455      4.270
REMARK  Name = *****
REMARK                            x       y       z     vdW  Elec       q    Type
REMARK                         _______ _______ _______ _____ _____    ______ ____
ROOT
ATOM      1  C   LIG    1       24.176 -25.344   6.307  0.00  0.00    +0.084 C 
ENDROOT
BRANCH   1   5
ATOM      2  C   LIG    1       25.498 -28.784   6.089  0.00  0.00    +0.095 C 
ATOM      3  C   LIG    1       25.675 -27.888   7.321  0.00  0.00    +0.041 C 
ATOM      4  C   LIG    1       26.263 -26.534   6.920  0.00  0.00    +0.086 C 
ATOM      5  N   LIG    1       25.496 -25.844   5.876  0.00  0.00    -0.302 NA
ATOM      6  C   LIG    1       25.385 -26.697   4.679  0.00  0.00    +0.086 C 
ATOM      7  C   LIG    1       24.757 -28.063   4.958  0.00  0.00    +0.041 C 
BRANCH   2   9
ATOM      8  C   LIG    1       24.917 -31.203   5.642  0.00  0.00    +0.297 A 
ATOM      9  N   LIG    1       24.908 -30.079   6.414  0.00  0.00    -0.291 N 
ATOM     10  C   LIG    1       24.271 -30.407   7.592  0.00  0.00    +0.072 A 
ATOM     11  C   LIG    1       23.916 -31.743   7.427  0.00  0.00    +0.093 A 
ATOM     12  C   LIG    1       23.235 -32.409   8.461  0.00  0.00    +0.030 A 
ATOM     13  C   LIG    1       22.940 -31.708   9.636  0.00  0.00    +0.002 A 
ATOM     14  C   LIG    1       23.310 -30.371   9.781  0.00  0.00    +0.002 A 
ATOM     15  C   LIG    1       23.979 -29.688   8.759  0.00  0.00    +0.028 A 
ATOM     16  N   LIG    1       24.324 -32.227   6.213  0.00  0.00    -0.195 NA
BRANCH   8  17
ATOM     17  O   LIG    1       25.469 -31.311   4.456  0.00  0.00    -0.479 OA
ATOM     18  H   LIG    1       25.180 -32.206   4.191  0.00  0.00    +0.295 HD
ENDBRANCH   8  17
ENDBRANCH   2   9
ENDBRANCH   1   5
BRANCH   1  19
ATOM     19  C   LIG    1       24.112 -23.819   6.501  0.00  0.00    +0.016 C 
BRANCH  19  20
ATOM     20  C   LIG    1       25.515 -23.194   6.522  0.00  0.00    +0.014 C 
BRANCH  20  21
ATOM     21  C   LIG    1       25.533 -21.671   6.847  0.00  0.00    +0.049 C 
BRANCH  21  22
ATOM     22  C   LIG    1       24.593 -20.862   5.932  0.00  0.00    -0.040 A 
ATOM     23  C   LIG    1       24.922 -20.575   4.593  0.00  0.00    +0.007 A 
ATOM     24  C   LIG    1       24.079 -19.804   3.791  0.00  0.00    +0.038 A 
ATOM     25  C   LIG    1       22.895 -19.311   4.318  0.00  0.00    +0.123 A 
ATOM     26  F   LIG    1       22.084 -18.578   3.544  0.00  0.00    -0.205 F 
ATOM     27  C   LIG    1       22.546 -19.565   5.638  0.00  0.00    +0.038 A 
ATOM     28  C   LIG    1       23.394 -20.332   6.447  0.00  0.00    +0.007 A 
ENDBRANCH  21  22
BRANCH  21  29
ATOM     29  C   LIG    1       26.961 -21.116   6.860  0.00  0.00    -0.040 A 
ATOM     30  C   LIG    1       27.362 -20.119   5.953  0.00  0.00    +0.007 A 
ATOM     31  C   LIG    1       28.661 -19.614   5.968  0.00  0.00    +0.038 A 
ATOM     32  C   LIG    1       29.591 -20.142   6.852  0.00  0.00    +0.123 A 
ATOM     33  F   LIG    1       30.846 -19.677   6.843  0.00  0.00    -0.205 F 
ATOM     34  C   LIG    1       29.235 -21.147   7.741  0.00  0.00    +0.038 A 
ATOM     35  C   LIG    1       27.920 -21.620   7.760  0.00  0.00    +0.007 A 
ENDBRANCH  21  29
ENDBRANCH  20  21
ENDBRANCH  19  20
ENDBRANCH   1  19
TORSDOF 8
ENDMDL
MODEL 5
REMARK VINA RESULT:     -10.2      1.690      4.655
REMARK  Name = *****
REMARK                            x       y       z     vdW  Elec       q    Type
REMARK                         _______ _______ _______ _____ _____    ______ ____
ROOT
ATOM      1  C   LIG    1       24.217 -25.435   6.404  0.00  0.00    +0.084 C 
ENDROOT
BRANCH   1   5
ATOM      2  C   LIG    1       25.515 -28.881   6.136  0.00  0.00    +0.095 C 
ATOM      3  C   LIG    1       25.613 -28.039   7.415  0.00  0.00    +0.041 C 
ATOM      4  C   LIG    1       26.242 -26.679   7.114  0.00  0.00    +0.086 C 
ATOM      5  N   LIG    1       25.560 -25.935   6.048  0.00  0.00    -0.302 NA
ATOM      6  C   LIG    1       25.526 -26.735   4.812  0.00  0.00    +0.086 C 
ATOM      7  C   LIG    1       24.865 -28.104   4.986  0.00  0.00    +0.041 C 
BRANCH   2   9
ATOM      8  C   LIG    1       24.020 -30.511   7.361  0.00  0.00    +0.297 A 
ATOM      9  N   LIG    1       24.889 -30.180   6.363  0.00  0.00    -0.291 N 
ATOM     10  C   LIG    1       25.034 -31.299   5.571  0.00  0.00    +0.072 A 
ATOM     11  C   LIG    1       24.230 -32.257   6.183  0.00  0.00    +0.093 A 
ATOM     12  C   LIG    1       24.144 -33.544   5.625  0.00  0.00    +0.030 A 
ATOM     13  C   LIG    1       24.866 -33.825   4.460  0.00  0.00    +0.002 A 
ATOM     14  C   LIG    1       25.662 -32.848   3.861  0.00  0.00    +0.002 A 
ATOM     15  C   LIG    1       25.768 -31.563   4.407  0.00  0.00    +0.028 A 
ATOM     16  N   LIG    1       23.604 -31.755   7.293  0.00  0.00    -0.195 NA
BRANCH   8  17
ATOM     17  O   LIG    1       23.593 -29.701   8.301  0.00  0.00    -0.479 OA
ATOM     18  H   LIG    1       23.235 -30.336   8.952  0.00  0.00    +0.295 HD
ENDBRANCH   8  17
ENDBRANCH   2   9
ENDBRANCH   1   5
BRANCH   1  19
ATOM     19  C   LIG    1       24.137 -23.908   6.566  0.00  0.00    +0.016 C 
BRANCH  19  20
ATOM     20  C   LIG    1       25.526 -23.258   6.497  0.00  0.00    +0.014 C 
BRANCH  20  21
ATOM     21  C   LIG    1       25.542 -21.738   6.834  0.00  0.00    +0.049 C 
BRANCH  21  22
ATOM     22  C   LIG    1       24.590 -20.925   5.935  0.00  0.00    -0.040 A 
ATOM     23  C   LIG    1       24.866 -20.695   4.573  0.00  0.00    +0.007 A 
ATOM     24  C   LIG    1       24.014 -19.920   3.784  0.00  0.00    +0.038 A 
ATOM     25  C   LIG    1       22.875 -19.366   4.347  0.00  0.00    +0.123 A 
ATOM     26  F   LIG    1       22.056 -18.629   3.586  0.00  0.00    -0.205 F 
ATOM     27  C   LIG    1       22.578 -19.563   5.690  0.00  0.00    +0.038 A 
ATOM     28  C   LIG    1       23.436 -20.334   6.485  0.00  0.00    +0.007 A 
ENDBRANCH  21  22
BRANCH  21  29
ATOM     29  C   LIG    1       26.967 -21.177   6.838  0.00  0.00    -0.040 A 
ATOM     30  C   LIG    1       27.924 -21.626   7.764  0.00  0.00    +0.007 A 
ATOM     31  C   LIG    1       29.221 -21.115   7.764  0.00  0.00    +0.038 A 
ATOM     32  C   LIG    1       29.560 -20.107   6.874  0.00  0.00    +0.123 A 
ATOM     33  F   LIG    1       30.796 -19.596   6.897  0.00  0.00    -0.205 F 
ATOM     34  C   LIG    1       28.630 -19.620   5.965  0.00  0.00    +0.038 A 
ATOM     35  C   LIG    1       27.343 -20.166   5.932  0.00  0.00    +0.007 A 
ENDBRANCH  21  29
ENDBRANCH  20  21
ENDBRANCH  19  20
ENDBRANCH   1  19
TORSDOF 8
ENDMDL
MODEL 6
REMARK VINA RESULT:      -9.8      1.643      2.538
REMARK  Name = *****
REMARK                            x       y       z     vdW  Elec       q    Type
REMARK                         _______ _______ _______ _____ _____    ______ ____
ROOT
ATOM      1  C   LIG    1       23.954 -25.236   6.507  0.00  0.00    +0.084 C 
ENDROOT
BRANCH   1   5
ATOM      2  C   LIG    1       25.426 -28.594   6.076  0.00  0.00    +0.095 C 
ATOM      3  C   LIG    1       25.662 -27.721   7.316  0.00  0.00    +0.041 C 
ATOM      4  C   LIG    1       26.144 -26.329   6.907  0.00  0.00    +0.086 C 
ATOM      5  N   LIG    1       25.256 -25.653   5.952  0.00  0.00    -0.302 NA
ATOM      6  C   LIG    1       25.087 -26.480   4.744  0.00  0.00    +0.086 C 
ATOM      7  C   LIG    1       24.556 -27.885   5.033  0.00  0.00    +0.041 C 
BRANCH   2   9
ATOM      8  C   LIG    1       24.123 -30.265   7.455  0.00  0.00    +0.297 A 
ATOM      9  N   LIG    1       24.933 -29.927   6.411  0.00  0.00    -0.291 N 
ATOM     10  C   LIG    1       25.167 -31.080   5.695  0.00  0.00    +0.072 A 
ATOM     11  C   LIG    1       24.473 -32.064   6.395  0.00  0.00    +0.093 A 
ATOM     12  C   LIG    1       24.498 -33.390   5.931  0.00  0.00    +0.030 A 
ATOM     13  C   LIG    1       25.217 -33.684   4.767  0.00  0.00    +0.002 A 
ATOM     14  C   LIG    1       25.901 -32.683   4.079  0.00  0.00    +0.002 A 
ATOM     15  C   LIG    1       25.896 -31.358   4.531  0.00  0.00    +0.028 A 
ATOM     16  N   LIG    1       23.827 -31.544   7.485  0.00  0.00    -0.195 NA
BRANCH   8  17
ATOM     17  O   LIG    1       23.642 -29.433   8.349  0.00  0.00    -0.479 OA
ATOM     18  H   LIG    1       24.439 -28.916   8.577  0.00  0.00    +0.295 HD
ENDBRANCH   8  17
ENDBRANCH   2   9
ENDBRANCH   1   5
BRANCH   1  19
ATOM     19  C   LIG    1       23.709 -23.718   6.464  0.00  0.00    +0.016 C 
BRANCH  19  20
ATOM     20  C   LIG    1       24.913 -22.936   7.008  0.00  0.00    +0.014 C 
BRANCH  20  21
ATOM     21  C   LIG    1       25.566 -21.967   5.978  0.00  0.00    +0.049 C 
BRANCH  21  22
ATOM     22  C   LIG    1       26.842 -21.299   6.526  0.00  0.00    -0.040 A 
ATOM     23  C   LIG    1       27.424 -20.178   5.902  0.00  0.00    +0.007 A 
ATOM     24  C   LIG    1       28.604 -19.612   6.387  0.00  0.00    +0.038 A 
ATOM     25  C   LIG    1       29.218 -20.160   7.502  0.00  0.00    +0.123 A 
ATOM     26  F   LIG    1       30.346 -19.610   7.970  0.00  0.00    -0.205 F 
ATOM     27  C   LIG    1       28.679 -21.273   8.135  0.00  0.00    +0.038 A 
ATOM     28  C   LIG    1       27.498 -21.847   7.646  0.00  0.00    +0.007 A 
ENDBRANCH  21  22
BRANCH  21  29
ATOM     29  C   LIG    1       24.554 -20.948   5.444  0.00  0.00    -0.040 A 
ATOM     30  C   LIG    1       23.483 -20.501   6.237  0.00  0.00    +0.007 A 
ATOM     31  C   LIG    1       22.565 -19.573   5.749  0.00  0.00    +0.038 A 
ATOM     32  C   LIG    1       22.674 -19.125   4.441  0.00  0.00    +0.123 A 
ATOM     33  F   LIG    1       21.773 -18.257   3.964  0.00  0.00    -0.205 F 
ATOM     34  C   LIG    1       23.703 -19.569   3.621  0.00  0.00    +0.038 A 
ATOM     35  C   LIG    1       24.653 -20.462   4.125  0.00  0.00    +0.007 A 
ENDBRANCH  21  29
ENDBRANCH  20  21
ENDBRANCH  19  20
ENDBRANCH   1  19
TORSDOF 8
ENDMDL
MODEL 7
REMARK VINA RESULT:      -9.1      4.566      9.020
REMARK  Name = *****
REMARK                            x       y       z     vdW  Elec       q    Type
REMARK                         _______ _______ _______ _____ _____    ______ ____
ROOT
ATOM      1  C   LIG    1       26.221 -20.336   8.231  0.00  0.00    +0.084 C 
ENDROOT
BRANCH   1   5
ATOM      2  C   LIG    1       29.802 -19.942   7.421  0.00  0.00    +0.095 C 
ATOM      3  C   LIG    1       28.681 -19.206   6.674  0.00  0.00    +0.041 C 
ATOM      4  C   LIG    1       27.621 -20.196   6.189  0.00  0.00    +0.086 C 
ATOM      5  N   LIG    1       27.072 -21.043   7.254  0.00  0.00    -0.302 NA
ATOM      6  C   LIG    1       28.157 -21.785   7.921  0.00  0.00    +0.086 C 
ATOM      7  C   LIG    1       29.251 -20.885   8.495  0.00  0.00    +0.041 C 
BRANCH   2   9
ATOM      8  C   LIG    1       32.010 -18.713   7.340  0.00  0.00    +0.297 A 
ATOM      9  N   LIG    1       30.825 -19.036   7.935  0.00  0.00    -0.291 N 
ATOM     10  C   LIG    1       30.750 -18.308   9.102  0.00  0.00    +0.072 A 
ATOM     11  C   LIG    1       31.943 -17.591   9.134  0.00  0.00    +0.093 A 
ATOM     12  C   LIG    1       32.201 -16.728  10.213  0.00  0.00    +0.030 A 
ATOM     13  C   LIG    1       31.242 -16.607  11.225  0.00  0.00    +0.002 A 
ATOM     14  C   LIG    1       30.052 -17.331  11.170  0.00  0.00    +0.002 A 
ATOM     15  C   LIG    1       29.781 -18.203  10.109  0.00  0.00    +0.028 A 
ATOM     16  N   LIG    1       32.716 -17.849   8.033  0.00  0.00    -0.195 NA
BRANCH   8  17
ATOM     17  O   LIG    1       32.434 -19.169   6.185  0.00  0.00    -0.479 OA
ATOM     18  H   LIG    1       33.059 -18.466   5.921  0.00  0.00    +0.295 HD
ENDBRANCH   8  17
ENDBRANCH   2   9
ENDBRANCH   1   5
BRANCH   1  19
ATOM     19  C   LIG    1       24.792 -20.895   8.341  0.00  0.00    +0.016 C 
BRANCH  19  20
ATOM     20  C   LIG    1       24.774 -22.426   8.226  0.00  0.00    +0.014 C 
BRANCH  20  21
ATOM     21  C   LIG    1       23.949 -22.968   7.022  0.00  0.00    +0.049 C 
BRANCH  21  22
ATOM     22  C   LIG    1       24.512 -24.292   6.471  0.00  0.00    -0.040 A 
ATOM     23  C   LIG    1       23.687 -25.257   5.860  0.00  0.00    +0.007 A 
ATOM     24  C   LIG    1       24.208 -26.470   5.405  0.00  0.00    +0.038 A 
ATOM     25  C   LIG    1       25.560 -26.733   5.555  0.00  0.00    +0.123 A 
ATOM     26  F   LIG    1       26.058 -27.894   5.110  0.00  0.00    -0.205 F 
ATOM     27  C   LIG    1       26.401 -25.809   6.162  0.00  0.00    +0.038 A 
ATOM     28  C   LIG    1       25.879 -24.595   6.626  0.00  0.00    +0.007 A 
ENDBRANCH  21  22
BRANCH  21  29
ATOM     29  C   LIG    1       23.778 -21.905   5.933  0.00  0.00    -0.040 A 
ATOM     30  C   LIG    1       24.632 -21.861   4.817  0.00  0.00    +0.007 A 
ATOM     31  C   LIG    1       24.472 -20.894   3.826  0.00  0.00    +0.038 A 
ATOM     32  C   LIG    1       23.493 -19.923   3.969  0.00  0.00    +0.123 A 
ATOM     33  F   LIG    1       23.362 -18.976   3.032  0.00  0.00    -0.205 F 
ATOM     34  C   LIG    1       22.651 -19.919   5.073  0.00  0.00    +0.038 A 
ATOM     35  C   LIG    1       22.778 -20.918   6.043  0.00  0.00    +0.007 A 
ENDBRANCH  21  29
ENDBRANCH  20  21
ENDBRANCH  19  20
ENDBRANCH   1  19
TORSDOF 8
ENDMDL
MODEL 8
REMARK VINA RESULT:      -8.1      5.647      9.999
REMARK  Name = *****
REMARK                            x       y       z     vdW  Elec       q    Type
REMARK                         _______ _______ _______ _____ _____    ______ ____
ROOT
ATOM      1  C   LIG    1       25.176 -28.674  11.854  0.00  0.00    +0.084 C 
ENDROOT
BRANCH   1   5
ATOM      2  C   LIG    1       25.259 -29.760   8.326  0.00  0.00    +0.095 C 
ATOM      3  C   LIG    1       24.057 -29.987   9.251  0.00  0.00    +0.041 C 
ATOM      4  C   LIG    1       24.498 -30.669  10.546  0.00  0.00    +0.086 C 
ATOM      5  N   LIG    1       25.574 -29.961  11.250  0.00  0.00    -0.302 NA
ATOM      6  C   LIG    1       26.742 -29.803  10.365  0.00  0.00    +0.086 C 
ATOM      7  C   LIG    1       26.423 -29.080   9.055  0.00  0.00    +0.041 C 
BRANCH   2   9
ATOM      8  C   LIG    1       24.161 -29.588   6.055  0.00  0.00    +0.297 A 
ATOM      9  N   LIG    1       24.896 -29.080   7.086  0.00  0.00    -0.291 N 
ATOM     10  C   LIG    1       25.198 -27.776   6.759  0.00  0.00    +0.072 A 
ATOM     11  C   LIG    1       24.619 -27.595   5.505  0.00  0.00    +0.093 A 
ATOM     12  C   LIG    1       24.738 -26.351   4.862  0.00  0.00    +0.030 A 
ATOM     13  C   LIG    1       25.431 -25.321   5.508  0.00  0.00    +0.002 A 
ATOM     14  C   LIG    1       25.999 -25.522   6.766  0.00  0.00    +0.002 A 
ATOM     15  C   LIG    1       25.900 -26.757   7.418  0.00  0.00    +0.028 A 
ATOM     16  N   LIG    1       23.977 -28.728   5.080  0.00  0.00    -0.195 NA
BRANCH   8  17
ATOM     17  O   LIG    1       23.648 -30.795   6.005  0.00  0.00    -0.479 OA
ATOM     18  H   LIG    1       22.864 -30.645   5.442  0.00  0.00    +0.295 HD
ENDBRANCH   8  17
ENDBRANCH   2   9
ENDBRANCH   1   5
BRANCH   1  19
ATOM     19  C   LIG    1       24.301 -28.812  13.111  0.00  0.00    +0.016 C 
BRANCH  19  20
ATOM     20  C   LIG    1       22.927 -28.156  12.918  0.00  0.00    +0.014 C 
BRANCH  20  21
ATOM     21  C   LIG    1       21.734 -28.992  13.468  0.00  0.00    +0.049 C 
BRANCH  21  22
ATOM     22  C   LIG    1       21.434 -30.232  12.602  0.00  0.00    -0.040 A 
ATOM     23  C   LIG    1       21.764 -31.534  13.026  0.00  0.00    +0.007 A 
ATOM     24  C   LIG    1       21.525 -32.642  12.210  0.00  0.00    +0.038 A 
ATOM     25  C   LIG    1       20.952 -32.460  10.961  0.00  0.00    +0.123 A 
ATOM     26  F   LIG    1       20.717 -33.526  10.184  0.00  0.00    -0.205 F 
ATOM     27  C   LIG    1       20.625 -31.189  10.507  0.00  0.00    +0.038 A 
ATOM     28  C   LIG    1       20.871 -30.076  11.321  0.00  0.00    +0.007 A 
ENDBRANCH  21  22
BRANCH  21  29
ATOM     29  C   LIG    1       20.493 -28.121  13.694  0.00  0.00    -0.040 A 
ATOM     30  C   LIG    1       19.384 -28.606  14.408  0.00  0.00    +0.007 A 
ATOM     31  C   LIG    1       18.258 -27.811  14.614  0.00  0.00    +0.038 A 
ATOM     32  C   LIG    1       18.205 -26.542  14.058  0.00  0.00    +0.123 A 
ATOM     33  F   LIG    1       17.110 -25.792  14.231  0.00  0.00    -0.205 F 
ATOM     34  C   LIG    1       19.272 -26.043  13.323  0.00  0.00    +0.038 A 
ATOM     35  C   LIG    1       20.422 -26.821  13.157  0.00  0.00    +0.007 A 
ENDBRANCH  21  29
ENDBRANCH  20  21
ENDBRANCH  19  20
ENDBRANCH   1  19
TORSDOF 8
ENDMDL
MODEL 9
REMARK VINA RESULT:      -8.0      5.662     10.249
REMARK  Name = *****
REMARK                            x       y       z     vdW  Elec       q    Type
REMARK                         _______ _______ _______ _____ _____    ______ ____
ROOT
ATOM      1  C   LIG    1       28.644 -19.573   7.927  0.00  0.00    +0.084 C 
ENDROOT
BRANCH   1   5
ATOM      2  C   LIG    1       31.871 -18.513   9.373  0.00  0.00    +0.095 C 
ATOM      3  C   LIG    1       31.435 -18.174   7.942  0.00  0.00    +0.041 C 
ATOM      4  C   LIG    1       31.009 -19.440   7.197  0.00  0.00    +0.086 C 
ATOM      5  N   LIG    1       29.972 -20.213   7.890  0.00  0.00    -0.302 NA
ATOM      6  C   LIG    1       30.432 -20.579   9.242  0.00  0.00    +0.086 C 
ATOM      7  C   LIG    1       30.834 -19.378  10.098  0.00  0.00    +0.041 C 
BRANCH   2   9
ATOM      8  C   LIG    1       32.714 -16.146   9.646  0.00  0.00    +0.297 A 
ATOM      9  N   LIG    1       32.257 -17.333  10.140  0.00  0.00    -0.291 N 
ATOM     10  C   LIG    1       32.183 -17.196  11.509  0.00  0.00    +0.072 A 
ATOM     11  C   LIG    1       32.633 -15.899  11.747  0.00  0.00    +0.093 A 
ATOM     12  C   LIG    1       32.689 -15.420  13.067  0.00  0.00    +0.030 A 
ATOM     13  C   LIG    1       32.280 -16.260  14.108  0.00  0.00    +0.002 A 
ATOM     14  C   LIG    1       31.827 -17.553  13.846  0.00  0.00    +0.002 A 
ATOM     15  C   LIG    1       31.774 -18.052  12.539  0.00  0.00    +0.028 A 
ATOM     16  N   LIG    1       32.958 -15.257  10.582  0.00  0.00    -0.195 NA
BRANCH   8  17
ATOM     17  O   LIG    1       32.884 -15.862   8.376  0.00  0.00    -0.479 OA
ATOM     18  H   LIG    1       33.601 -15.199   8.423  0.00  0.00    +0.295 HD
ENDBRANCH   8  17
ENDBRANCH   2   9
ENDBRANCH   1   5
BRANCH   1  19
ATOM     19  C   LIG    1       27.483 -20.546   8.194  0.00  0.00    +0.016 C 
BRANCH  19  20
ATOM     20  C   LIG    1       26.905 -21.108   6.887  0.00  0.00    +0.014 C 
BRANCH  20  21
ATOM     21  C   LIG    1       25.390 -21.460   6.954  0.00  0.00    +0.049 C 
BRANCH  21  22
ATOM     22  C   LIG    1       25.130 -22.973   6.817  0.00  0.00    -0.040 A 
ATOM     23  C   LIG    1       26.180 -23.912   6.805  0.00  0.00    +0.007 A 
ATOM     24  C   LIG    1       25.928 -25.275   6.637  0.00  0.00    +0.038 A 
ATOM     25  C   LIG    1       24.624 -25.716   6.480  0.00  0.00    +0.123 A 
ATOM     26  F   LIG    1       24.385 -27.025   6.327  0.00  0.00    -0.205 F 
ATOM     27  C   LIG    1       23.565 -24.816   6.475  0.00  0.00    +0.038 A 
ATOM     28  C   LIG    1       23.816 -23.447   6.636  0.00  0.00    +0.007 A 
ENDBRANCH  21  22
BRANCH  21  29
ATOM     29  C   LIG    1       24.576 -20.632   5.954  0.00  0.00    -0.040 A 
ATOM     30  C   LIG    1       25.144 -20.178   4.751  0.00  0.00    +0.007 A 
ATOM     31  C   LIG    1       24.400 -19.428   3.842  0.00  0.00    +0.038 A 
ATOM     32  C   LIG    1       23.096 -19.073   4.153  0.00  0.00    +0.123 A 
ATOM     33  F   LIG    1       22.394 -18.325   3.293  0.00  0.00    -0.205 F 
ATOM     34  C   LIG    1       22.514 -19.480   5.346  0.00  0.00    +0.038 A 
ATOM     35  C   LIG    1       23.243 -20.275   6.236  0.00  0.00    +0.007 A 
ENDBRANCH  21  29
ENDBRANCH  20  21
ENDBRANCH  19  20
ENDBRANCH   1  19
TORSDOF 8
ENDMDL
