MODEL 1
REMARK VINA RESULT:     -10.1      0.000      0.000
REMARK  Name = *****
REMARK                            x       y       z     vdW  Elec       q    Type
REMARK                         _______ _______ _______ _____ _____    ______ ____
ROOT
ATOM      1  O   LIG    1       29.025 -20.348   6.708  0.00  0.00    -0.252 OA
ATOM      2  C   LIG    1       27.853 -20.618   6.907  0.00  0.00    +0.307 C 
ATOM      3  N   LIG    1       27.010 -21.167   5.982  0.00  0.00    -0.278 N 
ATOM      4  H   LIG    1       27.309 -21.328   5.033  0.00  0.00    +0.152 HD
ATOM      5  C   LIG    1       25.652 -21.357   6.474  0.00  0.00    +0.163 C 
ATOM      6  C   LIG    1       25.882 -20.809   7.922  0.00  0.00    +0.253 C 
ATOM      7  O   LIG    1       25.055 -20.705   8.821  0.00  0.00    -0.272 OA
ATOM      8  N   LIG    1       27.179 -20.422   8.056  0.00  0.00    -0.238 N 
ATOM      9  H   LIG    1       27.576 -20.017   8.887  0.00  0.00    +0.159 HD
ENDROOT
BRANCH   5  10
ATOM     10  C   LIG    1       24.698 -20.509   5.619  0.00  0.00    -0.011 A 
ATOM     11  C   LIG    1       23.370 -20.245   6.001  0.00  0.00    +0.006 A 
ATOM     12  C   LIG    1       22.532 -19.458   5.205  0.00  0.00    +0.000 A 
ATOM     13  C   LIG    1       23.003 -18.916   4.014  0.00  0.00    +0.000 A 
ATOM     14  C   LIG    1       24.314 -19.159   3.615  0.00  0.00    +0.000 A 
ATOM     15  C   LIG    1       25.153 -19.944   4.410  0.00  0.00    +0.006 A 
ENDBRANCH   5  10
BRANCH   5  16
ATOM     16  C   LIG    1       25.251 -22.839   6.531  0.00  0.00    -0.011 A 
ATOM     17  C   LIG    1       26.194 -23.879   6.620  0.00  0.00    +0.006 A 
ATOM     18  C   LIG    1       25.790 -25.216   6.664  0.00  0.00    +0.000 A 
ATOM     19  C   LIG    1       24.437 -25.541   6.618  0.00  0.00    +0.000 A 
ATOM     20  C   LIG    1       23.487 -24.530   6.522  0.00  0.00    +0.000 A 
ATOM     21  C   LIG    1       23.889 -23.194   6.472  0.00  0.00    +0.006 A 
ENDBRANCH   5  16
TORSDOF 2
ENDMDL
MODEL 2
REMARK VINA RESULT:      -9.7      1.057      4.578
REMARK  Name = *****
REMARK                            x       y       z     vdW  Elec       q    Type
REMARK                         _______ _______ _______ _____ _____    ______ ____
ROOT
ATOM      1  O   LIG    1       25.933 -20.346   9.907  0.00  0.00    -0.252 OA
ATOM      2  C   LIG    1       26.009 -20.568   8.710  0.00  0.00    +0.307 C 
ATOM      3  N   LIG    1       25.021 -21.138   7.957  0.00  0.00    -0.278 N 
ATOM      4  H   LIG    1       24.169 -21.472   8.380  0.00  0.00    +0.152 HD
ATOM      5  C   LIG    1       25.387 -21.319   6.559  0.00  0.00    +0.163 C 
ATOM      6  C   LIG    1       26.825 -20.705   6.644  0.00  0.00    +0.253 C 
ATOM      7  O   LIG    1       27.646 -20.599   5.740  0.00  0.00    -0.272 OA
ATOM      8  N   LIG    1       27.068 -20.304   7.921  0.00  0.00    -0.238 N 
ATOM      9  H   LIG    1       27.928 -19.894   8.241  0.00  0.00    +0.159 HD
ENDROOT
BRANCH   5  10
ATOM     10  C   LIG    1       25.357 -22.821   6.235  0.00  0.00    -0.011 A 
ATOM     11  C   LIG    1       24.836 -23.326   5.030  0.00  0.00    +0.006 A 
ATOM     12  C   LIG    1       24.836 -24.698   4.761  0.00  0.00    +0.000 A 
ATOM     13  C   LIG    1       25.358 -25.594   5.688  0.00  0.00    +0.000 A 
ATOM     14  C   LIG    1       25.883 -25.120   6.887  0.00  0.00    +0.000 A 
ATOM     15  C   LIG    1       25.885 -23.748   7.157  0.00  0.00    +0.006 A 
ENDBRANCH   5  10
BRANCH   5  16
ATOM     16  C   LIG    1       24.514 -20.483   5.611  0.00  0.00    -0.011 A 
ATOM     17  C   LIG    1       25.006 -19.931   4.413  0.00  0.00    +0.006 A 
ATOM     18  C   LIG    1       24.182 -19.171   3.579  0.00  0.00    +0.000 A 
ATOM     19  C   LIG    1       22.852 -18.946   3.924  0.00  0.00    +0.000 A 
ATOM     20  C   LIG    1       22.346 -19.475   5.107  0.00  0.00    +0.000 A 
ATOM     21  C   LIG    1       23.169 -20.230   5.945  0.00  0.00    +0.006 A 
ENDBRANCH   5  16
TORSDOF 2
ENDMDL
MODEL 3
REMARK VINA RESULT:      -9.5      2.044      4.861
REMARK  Name = *****
REMARK                            x       y       z     vdW  Elec       q    Type
REMARK                         _______ _______ _______ _____ _____    ______ ____
ROOT
ATOM      1  O   LIG    1       24.645 -25.090   5.317  0.00  0.00    -0.252 OA
ATOM      2  C   LIG    1       24.638 -23.969   5.795  0.00  0.00    +0.307 C 
ATOM      3  N   LIG    1       25.239 -22.877   5.235  0.00  0.00    -0.278 N 
ATOM      4  H   LIG    1       25.792 -22.957   4.395  0.00  0.00    +0.152 HD
ATOM      5  C   LIG    1       25.104 -21.665   6.032  0.00  0.00    +0.163 C 
ATOM      6  C   LIG    1       24.263 -22.283   7.199  0.00  0.00    +0.253 C 
ATOM      7  O   LIG    1       23.854 -21.715   8.205  0.00  0.00    -0.272 OA
ATOM      8  N   LIG    1       24.052 -23.604   6.951  0.00  0.00    -0.238 N 
ATOM      9  H   LIG    1       23.554 -24.231   7.560  0.00  0.00    +0.159 HD
ENDROOT
BRANCH   5  10
ATOM     10  C   LIG    1       26.507 -21.191   6.444  0.00  0.00    -0.011 A 
ATOM     11  C   LIG    1       27.236 -21.794   7.485  0.00  0.00    +0.006 A 
ATOM     12  C   LIG    1       28.515 -21.345   7.826  0.00  0.00    +0.000 A 
ATOM     13  C   LIG    1       29.095 -20.287   7.133  0.00  0.00    +0.000 A 
ATOM     14  C   LIG    1       28.397 -19.676   6.095  0.00  0.00    +0.000 A 
ATOM     15  C   LIG    1       27.118 -20.124   5.753  0.00  0.00    +0.006 A 
ENDBRANCH   5  10
BRANCH   5  16
ATOM     16  C   LIG    1       24.290 -20.578   5.315  0.00  0.00    -0.011 A 
ATOM     17  C   LIG    1       23.045 -20.124   5.790  0.00  0.00    +0.006 A 
ATOM     18  C   LIG    1       22.331 -19.136   5.107  0.00  0.00    +0.000 A 
ATOM     19  C   LIG    1       22.844 -18.583   3.937  0.00  0.00    +0.000 A 
ATOM     20  C   LIG    1       24.068 -19.022   3.444  0.00  0.00    +0.000 A 
ATOM     21  C   LIG    1       24.781 -20.013   4.122  0.00  0.00    +0.006 A 
ENDBRANCH   5  16
TORSDOF 2
ENDMDL
MODEL 4
REMARK VINA RESULT:      -9.5      2.041      4.942
REMARK  Name = *****
REMARK                            x       y       z     vdW  Elec       q    Type
REMARK                         _______ _______ _______ _____ _____    ______ ____
ROOT
ATOM      1  O   LIG    1       24.641 -25.062   5.303  0.00  0.00    -0.252 OA
ATOM      2  C   LIG    1       24.640 -23.944   5.787  0.00  0.00    +0.307 C 
ATOM      3  N   LIG    1       25.238 -22.850   5.228  0.00  0.00    -0.278 N 
ATOM      4  H   LIG    1       25.783 -22.926   4.382  0.00  0.00    +0.152 HD
ATOM      5  C   LIG    1       25.113 -21.643   6.033  0.00  0.00    +0.163 C 
ATOM      6  C   LIG    1       24.281 -22.266   7.204  0.00  0.00    +0.253 C 
ATOM      7  O   LIG    1       23.881 -21.704   8.218  0.00  0.00    -0.272 OA
ATOM      8  N   LIG    1       24.066 -23.585   6.951  0.00  0.00    -0.238 N 
ATOM      9  H   LIG    1       23.572 -24.215   7.560  0.00  0.00    +0.159 HD
ENDROOT
BRANCH   5  10
ATOM     10  C   LIG    1       26.520 -21.173   6.435  0.00  0.00    -0.011 A 
ATOM     11  C   LIG    1       27.179 -20.113   5.788  0.00  0.00    +0.006 A 
ATOM     12  C   LIG    1       28.454 -19.703   6.187  0.00  0.00    +0.000 A 
ATOM     13  C   LIG    1       29.097 -20.340   7.244  0.00  0.00    +0.000 A 
ATOM     14  C   LIG    1       28.465 -21.390   7.904  0.00  0.00    +0.000 A 
ATOM     15  C   LIG    1       27.189 -21.800   7.506  0.00  0.00    +0.006 A 
ENDBRANCH   5  10
BRANCH   5  16
ATOM     16  C   LIG    1       24.293 -20.550   5.330  0.00  0.00    -0.011 A 
ATOM     17  C   LIG    1       23.035 -20.125   5.797  0.00  0.00    +0.006 A 
ATOM     18  C   LIG    1       22.317 -19.131   5.127  0.00  0.00    +0.000 A 
ATOM     19  C   LIG    1       22.839 -18.543   3.978  0.00  0.00    +0.000 A 
ATOM     20  C   LIG    1       24.077 -18.953   3.494  0.00  0.00    +0.000 A 
ATOM     21  C   LIG    1       24.794 -19.950   4.159  0.00  0.00    +0.006 A 
ENDBRANCH   5  16
TORSDOF 2
ENDMDL
MODEL 5
REMARK VINA RESULT:      -9.1      2.134      4.875
REMARK  Name = *****
REMARK                            x       y       z     vdW  Elec       q    Type
REMARK                         _______ _______ _______ _____ _____    ______ ____
ROOT
ATOM      1  O   LIG    1       22.579 -19.932   5.778  0.00  0.00    -0.252 OA
ATOM      2  C   LIG    1       23.487 -20.522   6.339  0.00  0.00    +0.307 C 
ATOM      3  N   LIG    1       24.529 -21.137   5.703  0.00  0.00    -0.278 N 
ATOM      4  H   LIG    1       24.571 -21.187   4.697  0.00  0.00    +0.152 HD
ATOM      5  C   LIG    1       25.458 -21.795   6.611  0.00  0.00    +0.163 C 
ATOM      6  C   LIG    1       24.737 -21.416   7.949  0.00  0.00    +0.253 C 
ATOM      7  O   LIG    1       25.068 -21.724   9.088  0.00  0.00    -0.272 OA
ATOM      8  N   LIG    1       23.626 -20.682   7.668  0.00  0.00    -0.238 N 
ATOM      9  H   LIG    1       22.979 -20.332   8.354  0.00  0.00    +0.159 HD
ENDROOT
BRANCH   5  10
ATOM     10  C   LIG    1       25.464 -23.300   6.300  0.00  0.00    -0.011 A 
ATOM     11  C   LIG    1       25.920 -24.263   7.219  0.00  0.00    +0.006 A 
ATOM     12  C   LIG    1       25.900 -25.626   6.907  0.00  0.00    +0.000 A 
ATOM     13  C   LIG    1       25.423 -26.056   5.673  0.00  0.00    +0.000 A 
ATOM     14  C   LIG    1       24.963 -25.124   4.747  0.00  0.00    +0.000 A 
ATOM     15  C   LIG    1       24.981 -23.761   5.058  0.00  0.00    +0.006 A 
ENDBRANCH   5  10
BRANCH   5  16
ATOM     16  C   LIG    1       26.859 -21.169   6.574  0.00  0.00    -0.011 A 
ATOM     17  C   LIG    1       27.903 -21.590   7.421  0.00  0.00    +0.006 A 
ATOM     18  C   LIG    1       29.164 -20.991   7.362  0.00  0.00    +0.000 A 
ATOM     19  C   LIG    1       29.409 -19.961   6.457  0.00  0.00    +0.000 A 
ATOM     20  C   LIG    1       28.391 -19.523   5.616  0.00  0.00    +0.000 A 
ATOM     21  C   LIG    1       27.128 -20.116   5.678  0.00  0.00    +0.006 A 
ENDBRANCH   5  16
TORSDOF 2
ENDMDL
MODEL 6
REMARK VINA RESULT:      -8.1      2.442      4.974
REMARK  Name = *****
REMARK                            x       y       z     vdW  Elec       q    Type
REMARK                         _______ _______ _______ _____ _____    ______ ____
ROOT
ATOM      1  O   LIG    1       23.868 -20.725   2.816  0.00  0.00    -0.252 OA
ATOM      2  C   LIG    1       23.984 -21.160   3.948  0.00  0.00    +0.307 C 
ATOM      3  N   LIG    1       25.124 -21.715   4.459  0.00  0.00    -0.278 N 
ATOM      4  H   LIG    1       25.942 -21.852   3.885  0.00  0.00    +0.152 HD
ATOM      5  C   LIG    1       24.979 -22.184   5.830  0.00  0.00    +0.163 C 
ATOM      6  C   LIG    1       23.484 -21.765   6.031  0.00  0.00    +0.253 C 
ATOM      7  O   LIG    1       22.790 -21.930   7.028  0.00  0.00    -0.272 OA
ATOM      8  N   LIG    1       23.023 -21.183   4.891  0.00  0.00    -0.238 N 
ATOM      9  H   LIG    1       22.086 -20.844   4.756  0.00  0.00    +0.159 HD
ENDROOT
BRANCH   5  10
ATOM     10  C   LIG    1       25.220 -23.702   5.857  0.00  0.00    -0.011 A 
ATOM     11  C   LIG    1       25.731 -24.368   6.985  0.00  0.00    +0.006 A 
ATOM     12  C   LIG    1       25.927 -25.753   6.979  0.00  0.00    +0.000 A 
ATOM     13  C   LIG    1       25.614 -26.501   5.849  0.00  0.00    +0.000 A 
ATOM     14  C   LIG    1       25.104 -25.866   4.720  0.00  0.00    +0.000 A 
ATOM     15  C   LIG    1       24.906 -24.482   4.725  0.00  0.00    +0.006 A 
ENDBRANCH   5  10
BRANCH   5  16
ATOM     16  C   LIG    1       25.876 -21.417   6.812  0.00  0.00    -0.011 A 
ATOM     17  C   LIG    1       27.175 -20.987   6.479  0.00  0.00    +0.006 A 
ATOM     18  C   LIG    1       27.963 -20.296   7.402  0.00  0.00    +0.000 A 
ATOM     19  C   LIG    1       27.473 -20.020   8.675  0.00  0.00    +0.000 A 
ATOM     20  C   LIG    1       26.195 -20.441   9.030  0.00  0.00    +0.000 A 
ATOM     21  C   LIG    1       25.408 -21.137   8.111  0.00  0.00    +0.006 A 
ENDBRANCH   5  16
TORSDOF 2
ENDMDL
MODEL 7
REMARK VINA RESULT:      -7.9      2.380      4.102
REMARK  Name = *****
REMARK                            x       y       z     vdW  Elec       q    Type
REMARK                         _______ _______ _______ _____ _____    ______ ____
ROOT
ATOM      1  O   LIG    1       22.069 -18.520   5.335  0.00  0.00    -0.252 OA
ATOM      2  C   LIG    1       22.936 -19.347   5.108  0.00  0.00    +0.307 C 
ATOM      3  N   LIG    1       23.615 -20.049   6.063  0.00  0.00    -0.278 N 
ATOM      4  H   LIG    1       23.472 -19.870   7.045  0.00  0.00    +0.152 HD
ATOM      5  C   LIG    1       24.621 -20.949   5.517  0.00  0.00    +0.163 C 
ATOM      6  C   LIG    1       24.374 -20.636   4.003  0.00  0.00    +0.253 C 
ATOM      7  O   LIG    1       24.966 -21.106   3.037  0.00  0.00    -0.272 OA
ATOM      8  N   LIG    1       23.384 -19.711   3.891  0.00  0.00    -0.238 N 
ATOM      9  H   LIG    1       23.050 -19.326   3.024  0.00  0.00    +0.159 HD
ENDROOT
BRANCH   5  10
ATOM     10  C   LIG    1       26.001 -20.516   6.037  0.00  0.00    -0.011 A 
ATOM     11  C   LIG    1       26.983 -19.953   5.202  0.00  0.00    +0.006 A 
ATOM     12  C   LIG    1       28.224 -19.558   5.711  0.00  0.00    +0.000 A 
ATOM     13  C   LIG    1       28.509 -19.714   7.064  0.00  0.00    +0.000 A 
ATOM     14  C   LIG    1       27.553 -20.265   7.912  0.00  0.00    +0.000 A 
ATOM     15  C   LIG    1       26.312 -20.660   7.405  0.00  0.00    +0.006 A 
ENDBRANCH   5  10
BRANCH   5  16
ATOM     16  C   LIG    1       24.308 -22.425   5.805  0.00  0.00    -0.011 A 
ATOM     17  C   LIG    1       25.130 -23.478   5.362  0.00  0.00    +0.006 A 
ATOM     18  C   LIG    1       24.809 -24.809   5.639  0.00  0.00    +0.000 A 
ATOM     19  C   LIG    1       23.661 -25.116   6.365  0.00  0.00    +0.000 A 
ATOM     20  C   LIG    1       22.829 -24.092   6.807  0.00  0.00    +0.000 A 
ATOM     21  C   LIG    1       23.145 -22.762   6.526  0.00  0.00    +0.006 A 
ENDBRANCH   5  16
TORSDOF 2
ENDMDL
MODEL 8
REMARK VINA RESULT:      -7.7      1.821      2.442
REMARK  Name = *****
REMARK                            x       y       z     vdW  Elec       q    Type
REMARK                         _______ _______ _______ _____ _____    ______ ____
ROOT
ATOM      1  O   LIG    1       25.963 -20.841   9.564  0.00  0.00    -0.252 OA
ATOM      2  C   LIG    1       25.357 -21.310   8.616  0.00  0.00    +0.307 C 
ATOM      3  N   LIG    1       25.923 -21.654   7.420  0.00  0.00    -0.278 N 
ATOM      4  H   LIG    1       26.898 -21.476   7.232  0.00  0.00    +0.152 HD
ATOM      5  C   LIG    1       24.965 -22.161   6.448  0.00  0.00    +0.163 C 
ATOM      6  C   LIG    1       23.688 -22.058   7.348  0.00  0.00    +0.253 C 
ATOM      7  O   LIG    1       22.535 -22.343   7.044  0.00  0.00    -0.272 OA
ATOM      8  N   LIG    1       24.036 -21.564   8.567  0.00  0.00    -0.238 N 
ATOM      9  H   LIG    1       23.393 -21.385   9.320  0.00  0.00    +0.159 HD
ENDROOT
BRANCH   5  10
ATOM     10  C   LIG    1       24.959 -21.223   5.230  0.00  0.00    -0.011 A 
ATOM     11  C   LIG    1       23.964 -21.276   4.237  0.00  0.00    +0.006 A 
ATOM     12  C   LIG    1       23.983 -20.399   3.148  0.00  0.00    +0.000 A 
ATOM     13  C   LIG    1       24.993 -19.450   3.029  0.00  0.00    +0.000 A 
ATOM     14  C   LIG    1       25.987 -19.375   4.000  0.00  0.00    +0.000 A 
ATOM     15  C   LIG    1       25.970 -20.250   5.090  0.00  0.00    +0.006 A 
ENDBRANCH   5  10
BRANCH   5  16
ATOM     16  C   LIG    1       25.227 -23.628   6.075  0.00  0.00    -0.011 A 
ATOM     17  C   LIG    1       24.850 -24.175   4.834  0.00  0.00    +0.006 A 
ATOM     18  C   LIG    1       25.101 -25.517   4.533  0.00  0.00    +0.000 A 
ATOM     19  C   LIG    1       25.732 -26.337   5.464  0.00  0.00    +0.000 A 
ATOM     20  C   LIG    1       26.107 -25.820   6.699  0.00  0.00    +0.000 A 
ATOM     21  C   LIG    1       25.852 -24.482   7.004  0.00  0.00    +0.006 A 
ENDBRANCH   5  16
TORSDOF 2
ENDMDL
MODEL 9
REMARK VINA RESULT:      -7.5      2.179      3.980
REMARK  Name = *****
REMARK                            x       y       z     vdW  Elec       q    Type
REMARK                         _______ _______ _______ _____ _____    ______ ____
ROOT
ATOM      1  O   LIG    1       22.780 -20.202   8.033  0.00  0.00    -0.252 OA
ATOM      2  C   LIG    1       23.563 -20.661   7.219  0.00  0.00    +0.307 C 
ATOM      3  N   LIG    1       24.648 -21.433   7.527  0.00  0.00    -0.278 N 
ATOM      4  H   LIG    1       24.900 -21.621   8.485  0.00  0.00    +0.152 HD
ATOM      5  C   LIG    1       25.435 -21.821   6.365  0.00  0.00    +0.163 C 
ATOM      6  C   LIG    1       24.556 -21.113   5.279  0.00  0.00    +0.253 C 
ATOM      7  O   LIG    1       24.748 -21.081   4.069  0.00  0.00    -0.272 OA
ATOM      8  N   LIG    1       23.511 -20.488   5.884  0.00  0.00    -0.238 N 
ATOM      9  H   LIG    1       22.811 -19.945   5.408  0.00  0.00    +0.159 HD
ENDROOT
BRANCH   5  10
ATOM     10  C   LIG    1       26.849 -21.238   6.514  0.00  0.00    -0.011 A 
ATOM     11  C   LIG    1       27.780 -21.736   7.444  0.00  0.00    +0.006 A 
ATOM     12  C   LIG    1       29.063 -21.191   7.545  0.00  0.00    +0.000 A 
ATOM     13  C   LIG    1       29.446 -20.140   6.717  0.00  0.00    +0.000 A 
ATOM     14  C   LIG    1       28.545 -19.631   5.786  0.00  0.00    +0.000 A 
ATOM     15  C   LIG    1       27.262 -20.176   5.683  0.00  0.00    +0.006 A 
ENDBRANCH   5  10
BRANCH   5  16
ATOM     16  C   LIG    1       25.433 -23.339   6.134  0.00  0.00    -0.011 A 
ATOM     17  C   LIG    1       25.002 -23.924   4.928  0.00  0.00    +0.006 A 
ATOM     18  C   LIG    1       25.010 -25.311   4.758  0.00  0.00    +0.000 A 
ATOM     19  C   LIG    1       25.446 -26.141   5.787  0.00  0.00    +0.000 A 
ATOM     20  C   LIG    1       25.869 -25.586   6.990  0.00  0.00    +0.000 A 
ATOM     21  C   LIG    1       25.857 -24.201   7.165  0.00  0.00    +0.006 A 
ENDBRANCH   5  16
TORSDOF 2
ENDMDL
