MODEL 1
REMARK VINA RESULT:      -6.3      0.000      0.000
REMARK  Name = *****
REMARK                            x       y       z     vdW  Elec       q    Type
REMARK                         _______ _______ _______ _____ _____    ______ ____
ROOT
ATOM      1  C   LIG    1       24.621 -29.997   8.660  0.00  0.00    +0.201 C 
ATOM      2  C   LIG    1       23.932 -30.739   9.831  0.00  0.00    +0.042 C 
ATOM      3  C   LIG    1       23.528 -29.736  10.924  0.00  0.00    +0.025 C 
ATOM      4  C   LIG    1       22.699 -31.578   9.469  0.00  0.00    +0.025 C 
ATOM      5  S   LIG    1       25.189 -31.886  10.570  0.00  0.00    -0.127 S 
ATOM      6  C   LIG    1       26.605 -31.174   9.659  0.00  0.00    +0.169 C 
ATOM      7  C   LIG    1       27.558 -30.179  10.361  0.00  0.00    +0.223 C 
ATOM      8  C   LIG    1       26.683 -29.097   9.662  0.00  0.00    +0.244 C 
ATOM      9  O   LIG    1       26.478 -27.903   9.762  0.00  0.00    -0.273 OA
ATOM     10  N   LIG    1       26.053 -30.035   8.913  0.00  0.00    -0.270 N 
ENDROOT
BRANCH   1  11
ATOM     11  C   LIG    1       24.365 -30.576   7.267  0.00  0.00    +0.332 C 
ATOM     12  O   LIG    1       24.802 -31.656   6.889  0.00  0.00    -0.249 OA
BRANCH  11  13
ATOM     13  O   LIG    1       23.645 -29.717   6.498  0.00  0.00    -0.426 OA
BRANCH  13  14
ATOM     14  C   LIG    1       24.373 -28.688   5.835  0.00  0.00    +0.472 C 
BRANCH  14  15
ATOM     15  O   LIG    1       24.142 -27.374   6.337  0.00  0.00    -0.427 OA
BRANCH  15  16
ATOM     16  C   LIG    1       25.244 -26.591   6.457  0.00  0.00    +0.315 C 
ATOM     17  O   LIG    1       26.360 -26.999   6.754  0.00  0.00    -0.250 OA
BRANCH  16  19
ATOM     18  C   LIG    1       25.047 -24.969   4.597  0.00  0.00    +0.022 C 
ATOM     19  C   LIG    1       24.918 -25.138   6.114  0.00  0.00    +0.059 C 
ATOM     20  C   LIG    1       23.496 -24.771   6.573  0.00  0.00    +0.022 C 
ATOM     21  C   LIG    1       25.920 -24.226   6.837  0.00  0.00    +0.022 C 
ENDBRANCH  16  19
ENDBRANCH  15  16
ENDBRANCH  14  15
ENDBRANCH  13  14
ENDBRANCH  11  13
ENDBRANCH   1  11
BRANCH   7  22
ATOM     22  N   LIG    1       27.506 -30.169  11.835  0.00  0.00    -0.261 NA
ATOM     23  C   LIG    1       26.989 -29.075  12.282  0.00  0.00    +0.179 C 
BRANCH  23  24
ATOM     24  N   LIG    1       26.774 -28.708  13.587  0.00  0.00    -0.321 N 
ATOM     25  C   LIG    1       25.882 -29.462  14.457  0.00  0.00    +0.106 C 
ATOM     26  C   LIG    1       24.509 -28.796  14.577  0.00  0.00    +0.019 C 
ATOM     27  C   LIG    1       24.541 -27.474  15.348  0.00  0.00    +0.002 C 
ATOM     28  C   LIG    1       24.917 -26.244  14.521  0.00  0.00    +0.002 C 
ATOM     29  C   LIG    1       26.135 -26.349  13.603  0.00  0.00    +0.019 C 
ATOM     30  C   LIG    1       27.177 -27.377  14.032  0.00  0.00    +0.106 C 
ENDBRANCH  23  24
ENDBRANCH   7  22
TORSDOF 8
ENDMDL
MODEL 2
REMARK VINA RESULT:      -6.2      2.149      3.238
REMARK  Name = *****
REMARK                            x       y       z     vdW  Elec       q    Type
REMARK                         _______ _______ _______ _____ _____    ______ ____
ROOT
ATOM      1  C   LIG    1       24.919 -32.867   8.082  0.00  0.00    +0.201 C 
ATOM      2  C   LIG    1       26.028 -32.882   9.162  0.00  0.00    +0.042 C 
ATOM      3  C   LIG    1       25.577 -33.723  10.367  0.00  0.00    +0.025 C 
ATOM      4  C   LIG    1       27.404 -33.390   8.711  0.00  0.00    +0.025 C 
ATOM      5  S   LIG    1       26.244 -31.138   9.753  0.00  0.00    -0.127 S 
ATOM      6  C   LIG    1       24.743 -30.505   8.924  0.00  0.00    +0.169 C 
ATOM      7  C   LIG    1       23.442 -30.288   9.733  0.00  0.00    +0.223 C 
ATOM      8  C   LIG    1       23.051 -31.688   9.171  0.00  0.00    +0.244 C 
ATOM      9  O   LIG    1       22.238 -32.559   9.413  0.00  0.00    -0.273 OA
ATOM     10  N   LIG    1       24.107 -31.683   8.320  0.00  0.00    -0.270 N 
ENDROOT
BRANCH   1  11
ATOM     11  C   LIG    1       25.406 -32.829   6.633  0.00  0.00    +0.332 C 
ATOM     12  O   LIG    1       25.350 -33.788   5.872  0.00  0.00    -0.249 OA
BRANCH  11  13
ATOM     13  O   LIG    1       25.953 -31.624   6.325  0.00  0.00    -0.426 OA
BRANCH  13  14
ATOM     14  C   LIG    1       25.514 -31.012   5.116  0.00  0.00    +0.472 C 
BRANCH  14  15
ATOM     15  O   LIG    1       25.726 -29.605   5.047  0.00  0.00    -0.427 OA
BRANCH  15  16
ATOM     16  C   LIG    1       24.774 -28.839   5.637  0.00  0.00    +0.315 C 
ATOM     17  O   LIG    1       23.649 -29.226   5.927  0.00  0.00    -0.250 OA
BRANCH  16  19
ATOM     18  C   LIG    1       24.151 -26.451   5.845  0.00  0.00    +0.022 C 
ATOM     19  C   LIG    1       25.315 -27.443   5.947  0.00  0.00    +0.059 C 
ATOM     20  C   LIG    1       25.936 -27.394   7.354  0.00  0.00    +0.022 C 
ATOM     21  C   LIG    1       26.400 -27.096   4.917  0.00  0.00    +0.022 C 
ENDBRANCH  16  19
ENDBRANCH  15  16
ENDBRANCH  14  15
ENDBRANCH  13  14
ENDBRANCH  11  13
ENDBRANCH   1  11
BRANCH   7  22
ATOM     22  N   LIG    1       23.600 -30.224  11.198  0.00  0.00    -0.261 NA
ATOM     23  C   LIG    1       23.762 -29.010  11.602  0.00  0.00    +0.179 C 
BRANCH  23  24
ATOM     24  N   LIG    1       23.935 -28.559  12.887  0.00  0.00    -0.321 N 
ATOM     25  C   LIG    1       22.831 -28.006  13.659  0.00  0.00    +0.106 C 
ATOM     26  C   LIG    1       22.849 -26.475  13.661  0.00  0.00    +0.019 C 
ATOM     27  C   LIG    1       24.019 -25.882  14.450  0.00  0.00    +0.002 C 
ATOM     28  C   LIG    1       25.334 -25.764  13.679  0.00  0.00    +0.002 C 
ATOM     29  C   LIG    1       25.800 -26.979  12.877  0.00  0.00    +0.019 C 
ATOM     30  C   LIG    1       25.287 -28.322  13.387  0.00  0.00    +0.106 C 
ENDBRANCH  23  24
ENDBRANCH   7  22
TORSDOF 8
ENDMDL
MODEL 3
REMARK VINA RESULT:      -6.2      5.536      8.822
REMARK  Name = *****
REMARK                            x       y       z     vdW  Elec       q    Type
REMARK                         _______ _______ _______ _____ _____    ______ ____
ROOT
ATOM      1  C   LIG    1       24.382 -22.967   6.231  0.00  0.00    +0.201 C 
ATOM      2  C   LIG    1       23.902 -21.562   5.793  0.00  0.00    +0.042 C 
ATOM      3  C   LIG    1       24.912 -20.943   4.813  0.00  0.00    +0.025 C 
ATOM      4  C   LIG    1       22.508 -21.490   5.156  0.00  0.00    +0.025 C 
ATOM      5  S   LIG    1       23.876 -20.493   7.309  0.00  0.00    -0.127 S 
ATOM      6  C   LIG    1       24.780 -21.686   8.357  0.00  0.00    +0.169 C 
ATOM      7  C   LIG    1       26.291 -21.494   8.627  0.00  0.00    +0.223 C 
ATOM      8  C   LIG    1       26.464 -22.521   7.468  0.00  0.00    +0.244 C 
ATOM      9  O   LIG    1       27.349 -22.897   6.724  0.00  0.00    -0.273 OA
ATOM     10  N   LIG    1       25.136 -22.797   7.463  0.00  0.00    -0.270 N 
ENDROOT
BRANCH   1  11
ATOM     11  C   LIG    1       23.278 -23.995   6.483  0.00  0.00    +0.332 C 
ATOM     12  O   LIG    1       22.174 -23.710   6.931  0.00  0.00    -0.249 OA
BRANCH  11  13
ATOM     13  O   LIG    1       23.700 -25.256   6.202  0.00  0.00    -0.426 OA
BRANCH  13  14
ATOM     14  C   LIG    1       24.770 -25.379   5.269  0.00  0.00    +0.472 C 
BRANCH  14  15
ATOM     15  O   LIG    1       24.850 -26.642   4.616  0.00  0.00    -0.427 OA
BRANCH  15  16
ATOM     16  C   LIG    1       25.828 -27.471   5.060  0.00  0.00    +0.315 C 
ATOM     17  O   LIG    1       27.028 -27.263   4.934  0.00  0.00    -0.250 OA
BRANCH  16  19
ATOM     18  C   LIG    1       23.738 -28.737   5.459  0.00  0.00    +0.022 C 
ATOM     19  C   LIG    1       25.232 -28.672   5.793  0.00  0.00    +0.059 C 
ATOM     20  C   LIG    1       25.930 -29.976   5.371  0.00  0.00    +0.022 C 
ATOM     21  C   LIG    1       25.429 -28.474   7.303  0.00  0.00    +0.022 C 
ENDBRANCH  16  19
ENDBRANCH  15  16
ENDBRANCH  14  15
ENDBRANCH  13  14
ENDBRANCH  11  13
ENDBRANCH   1  11
BRANCH   7  22
ATOM     22  N   LIG    1       26.826 -20.148   8.354  0.00  0.00    -0.261 NA
ATOM     23  C   LIG    1       28.095 -20.182   8.126  0.00  0.00    +0.179 C 
BRANCH  23  24
ATOM     24  N   LIG    1       28.934 -19.135   7.833  0.00  0.00    -0.321 N 
ATOM     25  C   LIG    1       29.722 -19.106   6.609  0.00  0.00    +0.106 C 
ATOM     26  C   LIG    1       31.172 -19.532   6.856  0.00  0.00    +0.019 C 
ATOM     27  C   LIG    1       31.970 -18.522   7.683  0.00  0.00    +0.002 C 
ATOM     28  C   LIG    1       31.814 -18.651   9.199  0.00  0.00    +0.002 C 
ATOM     29  C   LIG    1       30.398 -18.791   9.759  0.00  0.00    +0.019 C 
ATOM     30  C   LIG    1       29.299 -18.193   8.887  0.00  0.00    +0.106 C 
ENDBRANCH  23  24
ENDBRANCH   7  22
TORSDOF 8
ENDMDL
MODEL 4
REMARK VINA RESULT:      -5.9      4.460      7.912
REMARK  Name = *****
REMARK                            x       y       z     vdW  Elec       q    Type
REMARK                         _______ _______ _______ _____ _____    ______ ____
ROOT
ATOM      1  C   LIG    1       25.338 -22.701   5.904  0.00  0.00    +0.201 C 
ATOM      2  C   LIG    1       24.426 -22.695   7.155  0.00  0.00    +0.042 C 
ATOM      3  C   LIG    1       25.191 -23.252   8.367  0.00  0.00    +0.025 C 
ATOM      4  C   LIG    1       23.826 -21.338   7.549  0.00  0.00    +0.025 C 
ATOM      5  S   LIG    1       23.015 -23.849   6.813  0.00  0.00    -0.127 S 
ATOM      6  C   LIG    1       23.762 -24.567   5.307  0.00  0.00    +0.169 C 
ATOM      7  C   LIG    1       24.466 -25.943   5.369  0.00  0.00    +0.223 C 
ATOM      8  C   LIG    1       25.765 -25.092   5.497  0.00  0.00    +0.244 C 
ATOM      9  O   LIG    1       26.919 -25.259   5.838  0.00  0.00    -0.273 OA
ATOM     10  N   LIG    1       25.092 -23.952   5.203  0.00  0.00    -0.270 N 
ENDROOT
BRANCH   1  11
ATOM     11  C   LIG    1       25.121 -21.550   4.921  0.00  0.00    +0.332 C 
ATOM     12  O   LIG    1       24.145 -21.459   4.186  0.00  0.00    -0.249 OA
BRANCH  11  13
ATOM     13  O   LIG    1       26.169 -20.685   4.933  0.00  0.00    -0.426 OA
BRANCH  13  14
ATOM     14  C   LIG    1       26.699 -20.337   6.208  0.00  0.00    +0.472 C 
BRANCH  14  15
ATOM     15  O   LIG    1       28.121 -20.313   6.278  0.00  0.00    -0.427 OA
BRANCH  15  16
ATOM     16  C   LIG    1       28.652 -20.555   7.503  0.00  0.00    +0.315 C 
ATOM     17  O   LIG    1       28.199 -21.353   8.314  0.00  0.00    -0.250 OA
BRANCH  16  19
ATOM     18  C   LIG    1       30.401 -19.240   6.345  0.00  0.00    +0.022 C 
ATOM     19  C   LIG    1       29.927 -19.739   7.714  0.00  0.00    +0.059 C 
ATOM     20  C   LIG    1       29.670 -18.550   8.656  0.00  0.00    +0.022 C 
ATOM     21  C   LIG    1       30.993 -20.647   8.346  0.00  0.00    +0.022 C 
ENDBRANCH  16  19
ENDBRANCH  15  16
ENDBRANCH  14  15
ENDBRANCH  13  14
ENDBRANCH  11  13
ENDBRANCH   1  11
BRANCH   7  22
ATOM     22  N   LIG    1       24.146 -26.776   6.543  0.00  0.00    -0.261 NA
ATOM     23  C   LIG    1       24.568 -27.985   6.392  0.00  0.00    +0.179 C 
BRANCH  23  24
ATOM     24  N   LIG    1       24.459 -29.038   7.266  0.00  0.00    -0.321 N 
ATOM     25  C   LIG    1       24.975 -28.960   8.626  0.00  0.00    +0.106 C 
ATOM     26  C   LIG    1       26.334 -29.653   8.758  0.00  0.00    +0.019 C 
ATOM     27  C   LIG    1       26.258 -31.174   8.614  0.00  0.00    +0.002 C 
ATOM     28  C   LIG    1       26.281 -31.696   7.177  0.00  0.00    +0.002 C 
ATOM     29  C   LIG    1       25.360 -31.023   6.160  0.00  0.00    +0.019 C 
ATOM     30  C   LIG    1       24.120 -30.362   6.754  0.00  0.00    +0.106 C 
ENDBRANCH  23  24
ENDBRANCH   7  22
TORSDOF 8
ENDMDL
MODEL 5
REMARK VINA RESULT:      -5.7      2.353      3.179
REMARK  Name = *****
REMARK                            x       y       z     vdW  Elec       q    Type
REMARK                         _______ _______ _______ _____ _____    ______ ____
ROOT
ATOM      1  C   LIG    1       25.018 -31.089   9.482  0.00  0.00    +0.201 C 
ATOM      2  C   LIG    1       23.578 -31.611   9.707  0.00  0.00    +0.042 C 
ATOM      3  C   LIG    1       22.618 -30.430   9.926  0.00  0.00    +0.025 C 
ATOM      4  C   LIG    1       22.999 -32.500   8.597  0.00  0.00    +0.025 C 
ATOM      5  S   LIG    1       23.593 -32.611  11.269  0.00  0.00    -0.127 S 
ATOM      6  C   LIG    1       25.262 -32.073  11.783  0.00  0.00    +0.169 C 
ATOM      7  C   LIG    1       25.427 -30.969  12.855  0.00  0.00    +0.223 C 
ATOM      8  C   LIG    1       25.602 -30.027  11.626  0.00  0.00    +0.244 C 
ATOM      9  O   LIG    1       25.569 -28.834  11.396  0.00  0.00    -0.273 OA
ATOM     10  N   LIG    1       25.677 -31.083  10.779  0.00  0.00    -0.270 N 
ENDROOT
BRANCH   1  11
ATOM     11  C   LIG    1       25.874 -31.905   8.513  0.00  0.00    +0.332 C 
ATOM     12  O   LIG    1       26.129 -33.093   8.665  0.00  0.00    -0.249 OA
BRANCH  11  13
ATOM     13  O   LIG    1       26.355 -31.131   7.504  0.00  0.00    -0.426 OA
BRANCH  13  14
ATOM     14  C   LIG    1       25.708 -31.251   6.241  0.00  0.00    +0.472 C 
BRANCH  14  15
ATOM     15  O   LIG    1       25.580 -30.031   5.516  0.00  0.00    -0.427 OA
BRANCH  15  16
ATOM     16  C   LIG    1       24.703 -29.133   6.031  0.00  0.00    +0.315 C 
ATOM     17  O   LIG    1       23.586 -29.410   6.450  0.00  0.00    -0.250 OA
BRANCH  16  19
ATOM     18  C   LIG    1       25.970 -27.546   7.449  0.00  0.00    +0.022 C 
ATOM     19  C   LIG    1       25.320 -27.735   6.074  0.00  0.00    +0.059 C 
ATOM     20  C   LIG    1       26.367 -27.562   4.961  0.00  0.00    +0.022 C 
ATOM     21  C   LIG    1       24.205 -26.699   5.867  0.00  0.00    +0.022 C 
ENDBRANCH  16  19
ENDBRANCH  15  16
ENDBRANCH  14  15
ENDBRANCH  13  14
ENDBRANCH  11  13
ENDBRANCH   1  11
BRANCH   7  22
ATOM     22  N   LIG    1       24.240 -30.699  13.687  0.00  0.00    -0.261 NA
ATOM     23  C   LIG    1       23.992 -29.435  13.759  0.00  0.00    +0.179 C 
BRANCH  23  24
ATOM     24  N   LIG    1       22.976 -28.807  14.433  0.00  0.00    -0.321 N 
ATOM     25  C   LIG    1       21.751 -29.506  14.796  0.00  0.00    +0.106 C 
ATOM     26  C   LIG    1       20.610 -29.197  13.823  0.00  0.00    +0.019 C 
ATOM     27  C   LIG    1       20.104 -27.756  13.917  0.00  0.00    +0.002 C 
ATOM     28  C   LIG    1       20.897 -26.731  13.104  0.00  0.00    +0.002 C 
ATOM     29  C   LIG    1       22.421 -26.763  13.212  0.00  0.00    +0.019 C 
ATOM     30  C   LIG    1       22.962 -27.349  14.513  0.00  0.00    +0.106 C 
ENDBRANCH  23  24
ENDBRANCH   7  22
TORSDOF 8
ENDMDL
MODEL 6
REMARK VINA RESULT:      -5.7      3.227      4.406
REMARK  Name = *****
REMARK                            x       y       z     vdW  Elec       q    Type
REMARK                         _______ _______ _______ _____ _____    ______ ____
ROOT
ATOM      1  C   LIG    1       24.572 -32.420   9.032  0.00  0.00    +0.201 C 
ATOM      2  C   LIG    1       25.556 -31.728  10.006  0.00  0.00    +0.042 C 
ATOM      3  C   LIG    1       25.520 -32.425  11.376  0.00  0.00    +0.025 C 
ATOM      4  C   LIG    1       27.019 -31.647   9.547  0.00  0.00    +0.025 C 
ATOM      5  S   LIG    1       24.954 -29.991  10.253  0.00  0.00    -0.127 S 
ATOM      6  C   LIG    1       23.339 -30.269   9.445  0.00  0.00    +0.169 C 
ATOM      7  C   LIG    1       22.071 -30.500  10.302  0.00  0.00    +0.223 C 
ATOM      8  C   LIG    1       22.361 -32.007  10.034  0.00  0.00    +0.244 C 
ATOM      9  O   LIG    1       22.027 -33.083  10.493  0.00  0.00    -0.273 OA
ATOM     10  N   LIG    1       23.311 -31.701   9.116  0.00  0.00    -0.270 N 
ENDROOT
BRANCH   1  11
ATOM     11  C   LIG    1       25.007 -32.457   7.567  0.00  0.00    +0.332 C 
ATOM     12  O   LIG    1       25.155 -33.490   6.927  0.00  0.00    -0.249 OA
BRANCH  11  13
ATOM     13  O   LIG    1       25.258 -31.207   7.093  0.00  0.00    -0.426 OA
BRANCH  13  14
ATOM     14  C   LIG    1       25.402 -31.074   5.682  0.00  0.00    +0.472 C 
BRANCH  14  15
ATOM     15  O   LIG    1       25.588 -29.738   5.224  0.00  0.00    -0.427 OA
BRANCH  15  16
ATOM     16  C   LIG    1       24.650 -28.844   5.628  0.00  0.00    +0.315 C 
ATOM     17  O   LIG    1       23.459 -29.096   5.763  0.00  0.00    -0.250 OA
BRANCH  16  19
ATOM     18  C   LIG    1       25.891 -27.577   7.355  0.00  0.00    +0.022 C 
ATOM     19  C   LIG    1       25.290 -27.493   5.949  0.00  0.00    +0.059 C 
ATOM     20  C   LIG    1       26.380 -27.143   4.922  0.00  0.00    +0.022 C 
ATOM     21  C   LIG    1       24.201 -26.411   5.901  0.00  0.00    +0.022 C 
ENDBRANCH  16  19
ENDBRANCH  15  16
ENDBRANCH  14  15
ENDBRANCH  13  14
ENDBRANCH  11  13
ENDBRANCH   1  11
BRANCH   7  22
ATOM     22  N   LIG    1       22.165 -30.086  11.714  0.00  0.00    -0.261 NA
ATOM     23  C   LIG    1       21.037 -29.638  12.150  0.00  0.00    +0.179 C 
BRANCH  23  24
ATOM     24  N   LIG    1       20.738 -29.168  13.404  0.00  0.00    -0.321 N 
ATOM     25  C   LIG    1       19.695 -29.774  14.220  0.00  0.00    +0.106 C 
ATOM     26  C   LIG    1       18.392 -28.972  14.164  0.00  0.00    +0.019 C 
ATOM     27  C   LIG    1       18.485 -27.612  14.860  0.00  0.00    +0.002 C 
ATOM     28  C   LIG    1       19.063 -26.480  14.008  0.00  0.00    +0.002 C 
ATOM     29  C   LIG    1       20.345 -26.763  13.226  0.00  0.00    +0.019 C 
ATOM     30  C   LIG    1       21.231 -27.856  13.814  0.00  0.00    +0.106 C 
ENDBRANCH  23  24
ENDBRANCH   7  22
TORSDOF 8
ENDMDL
MODEL 7
REMARK VINA RESULT:      -5.6      4.958      8.490
REMARK  Name = *****
REMARK                            x       y       z     vdW  Elec       q    Type
REMARK                         _______ _______ _______ _____ _____    ______ ____
ROOT
ATOM      1  C   LIG    1       24.868 -21.468   6.315  0.00  0.00    +0.201 C 
ATOM      2  C   LIG    1       23.424 -22.006   6.173  0.00  0.00    +0.042 C 
ATOM      3  C   LIG    1       22.834 -22.301   7.562  0.00  0.00    +0.025 C 
ATOM      4  C   LIG    1       22.438 -21.109   5.414  0.00  0.00    +0.025 C 
ATOM      5  S   LIG    1       23.525 -23.618   5.261  0.00  0.00    -0.127 S 
ATOM      6  C   LIG    1       25.343 -23.756   5.389  0.00  0.00    +0.169 C 
ATOM      7  C   LIG    1       25.979 -24.677   6.457  0.00  0.00    +0.223 C 
ATOM      8  C   LIG    1       26.113 -23.361   7.280  0.00  0.00    +0.244 C 
ATOM      9  O   LIG    1       26.313 -23.038   8.434  0.00  0.00    -0.273 OA
ATOM     10  N   LIG    1       25.763 -22.609   6.206  0.00  0.00    -0.270 N 
ENDROOT
BRANCH   1  11
ATOM     11  C   LIG    1       25.291 -20.427   5.277  0.00  0.00    +0.332 C 
ATOM     12  O   LIG    1       24.528 -19.601   4.792  0.00  0.00    -0.249 OA
BRANCH  11  13
ATOM     13  O   LIG    1       26.597 -20.577   4.928  0.00  0.00    -0.426 OA
BRANCH  13  14
ATOM     14  C   LIG    1       27.529 -19.694   5.544  0.00  0.00    +0.472 C 
BRANCH  14  15
ATOM     15  O   LIG    1       28.581 -20.338   6.256  0.00  0.00    -0.427 OA
BRANCH  15  16
ATOM     16  C   LIG    1       28.668 -20.032   7.576  0.00  0.00    +0.315 C 
ATOM     17  O   LIG    1       27.737 -20.096   8.369  0.00  0.00    -0.250 OA
BRANCH  16  19
ATOM     18  C   LIG    1       30.039 -18.445   8.893  0.00  0.00    +0.022 C 
ATOM     19  C   LIG    1       30.100 -19.653   7.952  0.00  0.00    +0.059 C 
ATOM     20  C   LIG    1       30.817 -20.828   8.639  0.00  0.00    +0.022 C 
ATOM     21  C   LIG    1       30.866 -19.290   6.671  0.00  0.00    +0.022 C 
ENDBRANCH  16  19
ENDBRANCH  15  16
ENDBRANCH  14  15
ENDBRANCH  13  14
ENDBRANCH  11  13
ENDBRANCH   1  11
BRANCH   7  22
ATOM     22  N   LIG    1       25.085 -25.693   7.043  0.00  0.00    -0.261 NA
ATOM     23  C   LIG    1       25.349 -26.871   6.590  0.00  0.00    +0.179 C 
BRANCH  23  24
ATOM     24  N   LIG    1       24.736 -28.059   6.903  0.00  0.00    -0.321 N 
ATOM     25  C   LIG    1       24.931 -28.702   8.195  0.00  0.00    +0.106 C 
ATOM     26  C   LIG    1       25.955 -29.838   8.116  0.00  0.00    +0.019 C 
ATOM     27  C   LIG    1       25.462 -31.045   7.314  0.00  0.00    +0.002 C 
ATOM     28  C   LIG    1       25.652 -30.946   5.800  0.00  0.00    +0.002 C 
ATOM     29  C   LIG    1       25.229 -29.648   5.113  0.00  0.00    +0.019 C 
ATOM     30  C   LIG    1       24.142 -28.861   5.838  0.00  0.00    +0.106 C 
ENDBRANCH  23  24
ENDBRANCH   7  22
TORSDOF 8
ENDMDL
MODEL 8
REMARK VINA RESULT:      -5.5      2.558      3.147
REMARK  Name = *****
REMARK                            x       y       z     vdW  Elec       q    Type
REMARK                         _______ _______ _______ _____ _____    ______ ____
ROOT
ATOM      1  C   LIG    1       24.574 -30.556   7.122  0.00  0.00    +0.201 C 
ATOM      2  C   LIG    1       24.001 -31.993   7.182  0.00  0.00    +0.042 C 
ATOM      3  C   LIG    1       22.935 -32.089   8.286  0.00  0.00    +0.025 C 
ATOM      4  C   LIG    1       23.395 -32.536   5.881  0.00  0.00    +0.025 C 
ATOM      5  S   LIG    1       25.394 -33.121   7.659  0.00  0.00    -0.127 S 
ATOM      6  C   LIG    1       26.540 -31.771   8.110  0.00  0.00    +0.169 C 
ATOM      7  C   LIG    1       26.750 -31.393   9.595  0.00  0.00    +0.223 C 
ATOM      8  C   LIG    1       25.703 -30.280   9.293  0.00  0.00    +0.244 C 
ATOM      9  O   LIG    1       24.981 -29.529   9.920  0.00  0.00    -0.273 OA
ATOM     10  N   LIG    1       25.761 -30.534   7.962  0.00  0.00    -0.270 N 
ENDROOT
BRANCH   1  11
ATOM     11  C   LIG    1       24.962 -30.056   5.730  0.00  0.00    +0.332 C 
ATOM     12  O   LIG    1       25.797 -30.602   5.020  0.00  0.00    -0.249 OA
BRANCH  11  13
ATOM     13  O   LIG    1       24.306 -28.908   5.415  0.00  0.00    -0.426 OA
BRANCH  13  14
ATOM     14  C   LIG    1       24.468 -27.812   6.310  0.00  0.00    +0.472 C 
BRANCH  14  15
ATOM     15  O   LIG    1       23.909 -26.583   5.857  0.00  0.00    -0.427 OA
BRANCH  15  16
ATOM     16  C   LIG    1       24.797 -25.681   5.367  0.00  0.00    +0.315 C 
ATOM     17  O   LIG    1       25.566 -25.893   4.439  0.00  0.00    -0.250 OA
BRANCH  16  19
ATOM     18  C   LIG    1       24.843 -23.224   5.059  0.00  0.00    +0.022 C 
ATOM     19  C   LIG    1       24.666 -24.341   6.092  0.00  0.00    +0.059 C 
ATOM     20  C   LIG    1       23.296 -24.219   6.780  0.00  0.00    +0.022 C 
ATOM     21  C   LIG    1       25.765 -24.253   7.162  0.00  0.00    +0.022 C 
ENDBRANCH  16  19
ENDBRANCH  15  16
ENDBRANCH  14  15
ENDBRANCH  13  14
ENDBRANCH  11  13
ENDBRANCH   1  11
BRANCH   7  22
ATOM     22  N   LIG    1       26.322 -32.403  10.581  0.00  0.00    -0.261 NA
ATOM     23  C   LIG    1       25.311 -31.992  11.270  0.00  0.00    +0.179 C 
BRANCH  23  24
ATOM     24  N   LIG    1       24.640 -32.650  12.269  0.00  0.00    -0.321 N 
ATOM     25  C   LIG    1       23.360 -33.303  12.029  0.00  0.00    +0.106 C 
ATOM     26  C   LIG    1       22.186 -32.443  12.505  0.00  0.00    +0.019 C 
ATOM     27  C   LIG    1       22.109 -32.308  14.027  0.00  0.00    +0.002 C 
ATOM     28  C   LIG    1       22.985 -31.209  14.631  0.00  0.00    +0.002 C 
ATOM     29  C   LIG    1       24.439 -31.123  14.166  0.00  0.00    +0.019 C 
ATOM     30  C   LIG    1       25.031 -32.434  13.659  0.00  0.00    +0.106 C 
ENDBRANCH  23  24
ENDBRANCH   7  22
TORSDOF 8
ENDMDL
MODEL 9
REMARK VINA RESULT:      -5.5      4.383      5.506
REMARK  Name = *****
REMARK                            x       y       z     vdW  Elec       q    Type
REMARK                         _______ _______ _______ _____ _____    ______ ____
ROOT
ATOM      1  C   LIG    1       23.732 -31.323  10.847  0.00  0.00    +0.201 C 
ATOM      2  C   LIG    1       23.812 -32.020  12.227  0.00  0.00    +0.042 C 
ATOM      3  C   LIG    1       22.623 -32.979  12.402  0.00  0.00    +0.025 C 
ATOM      4  C   LIG    1       25.102 -32.796  12.520  0.00  0.00    +0.025 C 
ATOM      5  S   LIG    1       23.652 -30.698  13.519  0.00  0.00    -0.127 S 
ATOM      6  C   LIG    1       23.143 -29.393  12.345  0.00  0.00    +0.169 C 
ATOM      7  C   LIG    1       21.651 -29.007  12.211  0.00  0.00    +0.223 C 
ATOM      8  C   LIG    1       21.680 -29.969  10.986  0.00  0.00    +0.244 C 
ATOM      9  O   LIG    1       20.879 -30.554  10.283  0.00  0.00    -0.273 OA
ATOM     10  N   LIG    1       23.031 -30.064  11.043  0.00  0.00    -0.270 N 
ENDROOT
BRANCH   1  11
ATOM     11  C   LIG    1       25.074 -31.026  10.177  0.00  0.00    +0.332 C 
ATOM     12  O   LIG    1       25.990 -30.426  10.727  0.00  0.00    -0.249 OA
BRANCH  11  13
ATOM     13  O   LIG    1       25.092 -31.460   8.889  0.00  0.00    -0.426 OA
BRANCH  13  14
ATOM     14  C   LIG    1       24.316 -30.719   7.952  0.00  0.00    +0.472 C 
BRANCH  14  15
ATOM     15  O   LIG    1       24.754 -29.380   7.739  0.00  0.00    -0.427 OA
BRANCH  15  16
ATOM     16  C   LIG    1       24.418 -28.838   6.542  0.00  0.00    +0.315 C 
ATOM     17  O   LIG    1       23.574 -29.294   5.782  0.00  0.00    -0.250 OA
BRANCH  16  19
ATOM     18  C   LIG    1       24.182 -26.401   6.166  0.00  0.00    +0.022 C 
ATOM     19  C   LIG    1       25.195 -27.544   6.294  0.00  0.00    +0.059 C 
ATOM     20  C   LIG    1       26.174 -27.262   7.446  0.00  0.00    +0.022 C 
ATOM     21  C   LIG    1       25.995 -27.693   4.991  0.00  0.00    +0.022 C 
ENDBRANCH  16  19
ENDBRANCH  15  16
ENDBRANCH  14  15
ENDBRANCH  13  14
ENDBRANCH  11  13
ENDBRANCH   1  11
BRANCH   7  22
ATOM     22  N   LIG    1       20.776 -29.431  13.319  0.00  0.00    -0.261 NA
ATOM     23  C   LIG    1       19.855 -28.558  13.553  0.00  0.00    +0.179 C 
BRANCH  23  24
ATOM     24  N   LIG    1       18.862 -28.605  14.499  0.00  0.00    -0.321 N 
ATOM     25  C   LIG    1       17.943 -29.731  14.589  0.00  0.00    +0.106 C 
ATOM     26  C   LIG    1       16.598 -29.422  13.927  0.00  0.00    +0.019 C 
ATOM     27  C   LIG    1       15.775 -28.376  14.683  0.00  0.00    +0.002 C 
ATOM     28  C   LIG    1       16.116 -26.920  14.364  0.00  0.00    +0.002 C 
ATOM     29  C   LIG    1       17.592 -26.522  14.350  0.00  0.00    +0.019 C 
ATOM     30  C   LIG    1       18.500 -27.387  15.219  0.00  0.00    +0.106 C 
ENDBRANCH  23  24
ENDBRANCH   7  22
TORSDOF 8
ENDMDL
