MODEL 1
REMARK VINA RESULT:      -9.9      0.000      0.000
REMARK  Name = *****
REMARK                            x       y       z     vdW  Elec       q    Type
REMARK                         _______ _______ _______ _____ _____    ______ ____
ROOT
ATOM      1  C   LIG    1       25.603 -23.022   6.974  0.00  0.00    +0.197 C 
ATOM      2  O   LIG    1       25.881 -22.866   8.170  0.00  0.00    -0.286 OA
ENDROOT
BRANCH   1   4
ATOM      3  C   LIG    1       25.152 -20.978   4.980  0.00  0.00    +0.117 A 
ATOM      4  C   LIG    1       25.788 -21.640   6.076  0.00  0.00    +0.071 A 
ATOM      5  C   LIG    1       27.035 -20.708   6.246  0.00  0.00    +0.033 A 
ATOM      6  C   LIG    1       27.015 -19.702   5.283  0.00  0.00    +0.136 A 
ATOM      7  C   LIG    1       28.017 -18.694   5.141  0.00  0.00    +0.049 A 
ATOM      8  C   LIG    1       29.237 -18.900   5.840  0.00  0.00    +0.028 A 
ATOM      9  C   LIG    1       29.372 -19.983   6.709  0.00  0.00    +0.049 A 
ATOM     10  C   LIG    1       28.179 -20.650   7.097  0.00  0.00    +0.036 A 
ATOM     11  O   LIG    1       25.884 -19.861   4.556  0.00  0.00    -0.459 OA
BRANCH   9  12
ATOM     12  N   LIG    1       30.620 -20.363   7.357  0.00  0.00    -0.221 N 
ATOM     13  H   LIG    1       31.286 -20.771   6.709  0.00  0.00    +0.173 HD
BRANCH  12  14
ATOM     14  S   LIG    1       31.518 -19.421   8.478  0.00  0.00    +0.040 S 
ATOM     15  O   LIG    1       32.195 -18.402   7.691  0.00  0.00    -0.155 OA
ATOM     16  O   LIG    1       32.275 -20.278   9.361  0.00  0.00    -0.155 OA
ATOM     17  C   LIG    1       30.341 -18.508   9.491  0.00  0.00    +0.218 C 
ENDBRANCH  12  14
ENDBRANCH   9  12
BRANCH   3  18
ATOM     18  C   LIG    1       23.944 -21.072   4.078  0.00  0.00    +0.075 C 
BRANCH  18  19
ATOM     19  C   LIG    1       22.595 -20.743   4.650  0.00  0.00    +0.007 C 
BRANCH  19  21
ATOM     20  C   LIG    1       21.971 -18.257   4.375  0.00  0.00    +0.004 C 
ATOM     21  C   LIG    1       22.519 -19.324   5.261  0.00  0.00    -0.003 C 
ENDBRANCH  19  21
ENDBRANCH  18  19
ENDBRANCH   3  18
ENDBRANCH   1   4
BRANCH   1  22
ATOM     22  C   LIG    1       25.224 -24.609   6.757  0.00  0.00    +0.023 A 
ATOM     23  C   LIG    1       26.008 -25.791   7.293  0.00  0.00    +0.015 A 
ATOM     24  C   LIG    1       25.869 -27.281   6.999  0.00  0.00    +0.046 A 
ATOM     25  C   LIG    1       24.673 -27.773   6.236  0.00  0.00    +0.120 A 
ATOM     26  C   LIG    1       23.952 -26.365   5.652  0.00  0.00    +0.046 A 
ATOM     27  C   LIG    1       24.282 -25.014   5.866  0.00  0.00    +0.015 A 
BRANCH  25  28
ATOM     28  O   LIG    1       24.896 -28.949   4.645  0.00  0.00    -0.492 OA
BRANCH  28  29
ATOM     29  C   LIG    1       25.485 -30.700   5.455  0.00  0.00    +0.230 C 
BRANCH  29  30
ATOM     30  C   LIG    1       24.807 -31.588   6.628  0.00  0.00    +0.056 C 
BRANCH  30  31
ATOM     31  C   LIG    1       25.645 -31.421   7.823  0.00  0.00    +0.088 C 
BRANCH  31  32
ATOM     32  N   LIG    1       25.016 -31.199   9.094  0.00  0.00    -0.302 NA
BRANCH  32  33
ATOM     33  C   LIG    1       25.952 -30.940  10.184  0.00  0.00    +0.084 C 
BRANCH  33  34
ATOM     34  C   LIG    1       26.966 -29.773  10.033  0.00  0.00    +0.015 C 
BRANCH  34  35
ATOM     35  C   LIG    1       26.679 -28.270  10.330  0.00  0.00    -0.002 C 
ATOM     36  C   LIG    1       27.061 -27.627  11.675  0.00  0.00    +0.004 C 
ENDBRANCH  34  35
ENDBRANCH  33  34
ENDBRANCH  32  33
BRANCH  32  37
ATOM     37  C   LIG    1       23.976 -30.212   9.071  0.00  0.00    +0.084 C 
BRANCH  37  38
ATOM     38  C   LIG    1       22.776 -30.473  10.002  0.00  0.00    +0.015 C 
BRANCH  38  39
ATOM     39  C   LIG    1       21.919 -29.714  11.813  0.00  0.00    -0.002 C 
ATOM     40  C   LIG    1       23.652 -28.856  12.499  0.00  0.00    +0.004 C 
ENDBRANCH  38  39
ENDBRANCH  37  38
ENDBRANCH  32  37
ENDBRANCH  31  32
ENDBRANCH  30  31
ENDBRANCH  29  30
ENDBRANCH  28  29
ENDBRANCH  25  28
ENDBRANCH   1  22
TORSDOF 18
ENDMDL
MODEL 2
REMARK VINA RESULT:      -9.9      0.989      2.111
REMARK  Name = *****
REMARK                            x       y       z     vdW  Elec       q    Type
REMARK                         _______ _______ _______ _____ _____    ______ ____
ROOT
ATOM      1  C   LIG    1       25.025 -21.943   6.666  0.00  0.00    +0.197 C 
ATOM      2  O   LIG    1       24.509 -21.547   7.719  0.00  0.00    -0.286 OA
ENDROOT
BRANCH   1   4
ATOM      3  C   LIG    1       25.325 -20.019   4.528  0.00  0.00    +0.117 A 
ATOM      4  C   LIG    1       25.640 -20.713   5.738  0.00  0.00    +0.071 A 
ATOM      5  C   LIG    1       27.033 -20.066   6.046  0.00  0.00    +0.033 A 
ATOM      6  C   LIG    1       27.373 -19.162   5.043  0.00  0.00    +0.136 A 
ATOM      7  C   LIG    1       28.588 -18.413   5.002  0.00  0.00    +0.049 A 
ATOM      8  C   LIG    1       29.624 -18.824   5.885  0.00  0.00    +0.028 A 
ATOM      9  C   LIG    1       29.390 -19.836   6.815  0.00  0.00    +0.049 A 
ATOM     10  C   LIG    1       28.035 -20.192   7.054  0.00  0.00    +0.036 A 
ATOM     11  O   LIG    1       26.343 -19.128   4.164  0.00  0.00    -0.459 OA
BRANCH   9  12
ATOM     12  N   LIG    1       30.420 -20.427   7.661  0.00  0.00    -0.221 N 
ATOM     13  H   LIG    1       30.933 -21.165   7.189  0.00  0.00    +0.173 HD
BRANCH  12  14
ATOM     14  S   LIG    1       31.543 -19.581   8.647  0.00  0.00    +0.040 S 
ATOM     15  O   LIG    1       32.194 -18.617   7.774  0.00  0.00    -0.155 OA
ATOM     16  O   LIG    1       32.334 -20.511   9.419  0.00  0.00    -0.155 OA
ATOM     17  C   LIG    1       30.600 -18.579   9.811  0.00  0.00    +0.218 C 
ENDBRANCH  12  14
ENDBRANCH   9  12
BRANCH   3  18
ATOM     18  C   LIG    1       24.259 -19.919   3.463  0.00  0.00    +0.075 C 
BRANCH  18  19
ATOM     19  C   LIG    1       23.000 -19.163   3.777  0.00  0.00    +0.007 C 
BRANCH  19  21
ATOM     20  C   LIG    1       21.890 -21.097   5.071  0.00  0.00    +0.004 C 
ATOM     21  C   LIG    1       22.291 -19.661   5.058  0.00  0.00    -0.003 C 
ENDBRANCH  19  21
ENDBRANCH  18  19
ENDBRANCH   3  18
ENDBRANCH   1   4
BRANCH   1  22
ATOM     22  C   LIG    1       24.946 -23.587   6.663  0.00  0.00    +0.023 A 
ATOM     23  C   LIG    1       26.117 -24.533   6.844  0.00  0.00    +0.015 A 
ATOM     24  C   LIG    1       26.198 -26.045   6.668  0.00  0.00    +0.046 A 
ATOM     25  C   LIG    1       24.935 -26.836   6.491  0.00  0.00    +0.120 A 
ATOM     26  C   LIG    1       23.751 -25.663   6.234  0.00  0.00    +0.046 A 
ATOM     27  C   LIG    1       23.837 -24.259   6.260  0.00  0.00    +0.015 A 
BRANCH  25  28
ATOM     28  O   LIG    1       24.741 -28.118   4.979  0.00  0.00    -0.492 OA
BRANCH  28  29
ATOM     29  C   LIG    1       24.876 -29.914   5.888  0.00  0.00    +0.230 C 
BRANCH  29  30
ATOM     30  C   LIG    1       25.553 -31.294   5.377  0.00  0.00    +0.056 C 
BRANCH  30  31
ATOM     31  C   LIG    1       25.314 -32.296   6.425  0.00  0.00    +0.088 C 
BRANCH  31  32
ATOM     32  N   LIG    1       25.320 -31.884   7.801  0.00  0.00    -0.302 NA
BRANCH  32  33
ATOM     33  C   LIG    1       24.394 -32.629   8.647  0.00  0.00    +0.084 C 
BRANCH  33  34
ATOM     34  C   LIG    1       23.267 -31.852   9.382  0.00  0.00    +0.015 C 
BRANCH  34  35
ATOM     35  C   LIG    1       23.277 -30.329   9.716  0.00  0.00    -0.002 C 
ATOM     36  C   LIG    1       23.157 -29.821  11.163  0.00  0.00    +0.004 C 
ENDBRANCH  34  35
ENDBRANCH  33  34
ENDBRANCH  32  33
BRANCH  32  37
ATOM     37  C   LIG    1       26.625 -31.835   8.394  0.00  0.00    +0.084 C 
BRANCH  37  38
ATOM     38  C   LIG    1       26.896 -30.643   9.331  0.00  0.00    +0.015 C 
BRANCH  38  39
ATOM     39  C   LIG    1       26.549 -28.531   9.428  0.00  0.00    -0.002 C 
ATOM     40  C   LIG    1       27.132 -28.332  11.385  0.00  0.00    +0.004 C 
ENDBRANCH  38  39
ENDBRANCH  37  38
ENDBRANCH  32  37
ENDBRANCH  31  32
ENDBRANCH  30  31
ENDBRANCH  29  30
ENDBRANCH  28  29
ENDBRANCH  25  28
ENDBRANCH   1  22
TORSDOF 18
ENDMDL
MODEL 3
REMARK VINA RESULT:      -9.3      1.833      2.969
REMARK  Name = *****
REMARK                            x       y       z     vdW  Elec       q    Type
REMARK                         _______ _______ _______ _____ _____    ______ ____
ROOT
ATOM      1  C   LIG    1       24.753 -22.914   6.243  0.00  0.00    +0.197 C 
ATOM      2  O   LIG    1       23.709 -22.701   6.872  0.00  0.00    -0.286 OA
ENDROOT
BRANCH   1   4
ATOM      3  C   LIG    1       25.317 -20.518   4.726  0.00  0.00    +0.117 A 
ATOM      4  C   LIG    1       25.497 -21.525   5.725  0.00  0.00    +0.071 A 
ATOM      5  C   LIG    1       26.885 -21.072   6.294  0.00  0.00    +0.033 A 
ATOM      6  C   LIG    1       27.348 -19.959   5.597  0.00  0.00    +0.136 A 
ATOM      7  C   LIG    1       28.593 -19.305   5.845  0.00  0.00    +0.049 A 
ATOM      8  C   LIG    1       29.531 -20.000   6.657  0.00  0.00    +0.028 A 
ATOM      9  C   LIG    1       29.174 -21.204   7.263  0.00  0.00    +0.049 A 
ATOM     10  C   LIG    1       27.790 -21.522   7.300  0.00  0.00    +0.036 A 
ATOM     11  O   LIG    1       26.400 -19.629   4.688  0.00  0.00    -0.459 OA
BRANCH   9  12
ATOM     12  N   LIG    1       30.102 -22.061   7.991  0.00  0.00    -0.221 N 
ATOM     13  H   LIG    1       30.593 -22.707   7.381  0.00  0.00    +0.173 HD
BRANCH  12  14
ATOM     14  S   LIG    1       31.213 -21.567   9.204  0.00  0.00    +0.040 S 
ATOM     15  O   LIG    1       32.523 -22.001   8.746  0.00  0.00    -0.155 OA
ATOM     16  O   LIG    1       30.735 -21.957  10.511  0.00  0.00    -0.155 OA
ATOM     17  C   LIG    1       31.291 -19.768   9.173  0.00  0.00    +0.218 C 
ENDBRANCH  12  14
ENDBRANCH   9  12
BRANCH   3  18
ATOM     18  C   LIG    1       24.352 -20.073   3.653  0.00  0.00    +0.075 C 
BRANCH  18  19
ATOM     19  C   LIG    1       23.511 -18.854   3.905  0.00  0.00    +0.007 C 
BRANCH  19  21
ATOM     20  C   LIG    1       21.876 -20.597   4.872  0.00  0.00    +0.004 C 
ATOM     21  C   LIG    1       22.220 -19.156   4.700  0.00  0.00    -0.003 C 
ENDBRANCH  19  21
ENDBRANCH  18  19
ENDBRANCH   3  18
ENDBRANCH   1   4
BRANCH   1  22
ATOM     22  C   LIG    1       25.011 -24.539   6.247  0.00  0.00    +0.023 A 
ATOM     23  C   LIG    1       24.111 -25.583   5.616  0.00  0.00    +0.015 A 
ATOM     24  C   LIG    1       24.142 -27.104   5.722  0.00  0.00    +0.046 A 
ATOM     25  C   LIG    1       25.325 -27.776   6.355  0.00  0.00    +0.120 A 
ATOM     26  C   LIG    1       26.182 -26.509   7.065  0.00  0.00    +0.046 A 
ATOM     27  C   LIG    1       25.954 -25.121   7.032  0.00  0.00    +0.015 A 
BRANCH  25  28
ATOM     28  O   LIG    1       25.077 -29.120   7.804  0.00  0.00    -0.492 OA
BRANCH  28  29
ATOM     29  C   LIG    1       26.384 -28.512   9.214  0.00  0.00    +0.230 C 
BRANCH  29  30
ATOM     30  C   LIG    1       27.346 -29.378  10.188  0.00  0.00    +0.056 C 
BRANCH  30  31
ATOM     31  C   LIG    1       27.472 -28.622  11.441  0.00  0.00    +0.088 C 
BRANCH  31  32
ATOM     32  N   LIG    1       26.301 -28.387  12.238  0.00  0.00    -0.302 NA
BRANCH  32  33
ATOM     33  C   LIG    1       25.849 -29.554  12.988  0.00  0.00    +0.084 C 
BRANCH  33  34
ATOM     34  C   LIG    1       24.375 -30.019  12.826  0.00  0.00    +0.015 C 
BRANCH  34  35
ATOM     35  C   LIG    1       23.473 -29.773  11.579  0.00  0.00    -0.002 C 
ATOM     36  C   LIG    1       21.938 -29.825  11.671  0.00  0.00    +0.004 C 
ENDBRANCH  34  35
ENDBRANCH  33  34
ENDBRANCH  32  33
BRANCH  32  37
ATOM     37  C   LIG    1       26.390 -27.236  13.090  0.00  0.00    +0.084 C 
BRANCH  37  38
ATOM     38  C   LIG    1       25.083 -26.450  13.302  0.00  0.00    +0.015 C 
BRANCH  38  39
ATOM     39  C   LIG    1       23.448 -26.343  14.683  0.00  0.00    -0.002 C 
ATOM     40  C   LIG    1       21.982 -26.474  13.253  0.00  0.00    +0.004 C 
ENDBRANCH  38  39
ENDBRANCH  37  38
ENDBRANCH  32  37
ENDBRANCH  31  32
ENDBRANCH  30  31
ENDBRANCH  29  30
ENDBRANCH  28  29
ENDBRANCH  25  28
ENDBRANCH   1  22
TORSDOF 18
ENDMDL
MODEL 4
REMARK VINA RESULT:      -9.2      1.680      2.814
REMARK  Name = *****
REMARK                            x       y       z     vdW  Elec       q    Type
REMARK                         _______ _______ _______ _____ _____    ______ ____
ROOT
ATOM      1  C   LIG    1       25.072 -21.980   6.651  0.00  0.00    +0.197 C 
ATOM      2  O   LIG    1       24.593 -21.606   7.730  0.00  0.00    -0.286 OA
ENDROOT
BRANCH   1   4
ATOM      3  C   LIG    1       25.327 -20.027   4.534  0.00  0.00    +0.117 A 
ATOM      4  C   LIG    1       25.662 -20.731   5.732  0.00  0.00    +0.071 A 
ATOM      5  C   LIG    1       27.050 -20.070   6.034  0.00  0.00    +0.033 A 
ATOM      6  C   LIG    1       27.368 -19.150   5.039  0.00  0.00    +0.136 A 
ATOM      7  C   LIG    1       28.573 -18.385   4.996  0.00  0.00    +0.049 A 
ATOM      8  C   LIG    1       29.623 -18.792   5.863  0.00  0.00    +0.028 A 
ATOM      9  C   LIG    1       29.411 -19.818   6.784  0.00  0.00    +0.049 A 
ATOM     10  C   LIG    1       28.063 -20.194   7.031  0.00  0.00    +0.036 A 
ATOM     11  O   LIG    1       26.329 -19.119   4.171  0.00  0.00    -0.459 OA
BRANCH   9  12
ATOM     12  N   LIG    1       30.457 -20.405   7.612  0.00  0.00    -0.221 N 
ATOM     13  H   LIG    1       30.997 -21.106   7.116  0.00  0.00    +0.173 HD
BRANCH  12  14
ATOM     14  S   LIG    1       31.544 -19.559   8.637  0.00  0.00    +0.040 S 
ATOM     15  O   LIG    1       32.209 -18.579   7.793  0.00  0.00    -0.155 OA
ATOM     16  O   LIG    1       32.324 -20.491   9.420  0.00  0.00    -0.155 OA
ATOM     17  C   LIG    1       30.561 -18.580   9.787  0.00  0.00    +0.218 C 
ENDBRANCH  12  14
ENDBRANCH   9  12
BRANCH   3  18
ATOM     18  C   LIG    1       24.249 -19.929   3.480  0.00  0.00    +0.075 C 
BRANCH  18  19
ATOM     19  C   LIG    1       23.039 -19.087   3.769  0.00  0.00    +0.007 C 
BRANCH  19  21
ATOM     20  C   LIG    1       21.949 -20.998   5.114  0.00  0.00    +0.004 C 
ATOM     21  C   LIG    1       22.262 -19.542   5.026  0.00  0.00    -0.003 C 
ENDBRANCH  19  21
ENDBRANCH  18  19
ENDBRANCH   3  18
ENDBRANCH   1   4
BRANCH   1  22
ATOM     22  C   LIG    1       24.986 -23.623   6.614  0.00  0.00    +0.023 A 
ATOM     23  C   LIG    1       26.167 -24.574   6.625  0.00  0.00    +0.015 A 
ATOM     24  C   LIG    1       26.219 -26.082   6.400  0.00  0.00    +0.046 A 
ATOM     25  C   LIG    1       24.940 -26.866   6.356  0.00  0.00    +0.120 A 
ATOM     26  C   LIG    1       23.739 -25.685   6.277  0.00  0.00    +0.046 A 
ATOM     27  C   LIG    1       23.833 -24.282   6.331  0.00  0.00    +0.015 A 
BRANCH  25  28
ATOM     28  O   LIG    1       24.558 -28.106   4.845  0.00  0.00    -0.492 OA
BRANCH  28  29
ATOM     29  C   LIG    1       25.300 -29.863   5.502  0.00  0.00    +0.230 C 
BRANCH  29  30
ATOM     30  C   LIG    1       25.055 -30.641   6.902  0.00  0.00    +0.056 C 
BRANCH  30  31
ATOM     31  C   LIG    1       24.789 -32.046   6.564  0.00  0.00    +0.088 C 
BRANCH  31  32
ATOM     32  N   LIG    1       25.483 -33.081   7.278  0.00  0.00    -0.302 NA
BRANCH  32  33
ATOM     33  C   LIG    1       26.812 -33.376   6.752  0.00  0.00    +0.084 C 
BRANCH  33  34
ATOM     34  C   LIG    1       27.115 -33.045   5.265  0.00  0.00    +0.015 C 
BRANCH  34  35
ATOM     35  C   LIG    1       26.450 -33.718   4.026  0.00  0.00    -0.002 C 
ATOM     36  C   LIG    1       25.645 -32.902   3.000  0.00  0.00    +0.004 C 
ENDBRANCH  34  35
ENDBRANCH  33  34
ENDBRANCH  32  33
BRANCH  32  37
ATOM     37  C   LIG    1       25.530 -32.886   8.698  0.00  0.00    +0.084 C 
BRANCH  37  38
ATOM     38  C   LIG    1       24.204 -33.101   9.453  0.00  0.00    +0.015 C 
BRANCH  38  39
ATOM     39  C   LIG    1       22.269 -32.202   9.643  0.00  0.00    -0.002 C 
ATOM     40  C   LIG    1       22.974 -30.321  10.062  0.00  0.00    +0.004 C 
ENDBRANCH  38  39
ENDBRANCH  37  38
ENDBRANCH  32  37
ENDBRANCH  31  32
ENDBRANCH  30  31
ENDBRANCH  29  30
ENDBRANCH  28  29
ENDBRANCH  25  28
ENDBRANCH   1  22
TORSDOF 18
ENDMDL
MODEL 5
REMARK VINA RESULT:      -8.8      2.195      3.532
REMARK  Name = *****
REMARK                            x       y       z     vdW  Elec       q    Type
REMARK                         _______ _______ _______ _____ _____    ______ ____
ROOT
ATOM      1  C   LIG    1       24.985 -24.161   5.531  0.00  0.00    +0.197 C 
ATOM      2  O   LIG    1       24.799 -24.142   4.307  0.00  0.00    -0.286 OA
ENDROOT
BRANCH   1   4
ATOM      3  C   LIG    1       24.034 -21.523   6.238  0.00  0.00    +0.117 A 
ATOM      4  C   LIG    1       24.906 -22.656   6.224  0.00  0.00    +0.071 A 
ATOM      5  C   LIG    1       26.100 -22.066   7.051  0.00  0.00    +0.033 A 
ATOM      6  C   LIG    1       25.833 -20.745   7.401  0.00  0.00    +0.136 A 
ATOM      7  C   LIG    1       26.722 -19.905   8.138  0.00  0.00    +0.049 A 
ATOM      8  C   LIG    1       28.063 -20.356   8.277  0.00  0.00    +0.028 A 
ATOM      9  C   LIG    1       28.429 -21.617   7.808  0.00  0.00    +0.049 A 
ATOM     10  C   LIG    1       27.376 -22.520   7.497  0.00  0.00    +0.036 A 
ATOM     11  O   LIG    1       24.598 -20.445   6.932  0.00  0.00    -0.459 OA
BRANCH   9  12
ATOM     12  N   LIG    1       29.799 -22.112   7.771  0.00  0.00    -0.221 N 
ATOM     13  H   LIG    1       30.219 -22.025   6.851  0.00  0.00    +0.173 HD
BRANCH  12  14
ATOM     14  S   LIG    1       31.033 -21.792   8.922  0.00  0.00    +0.040 S 
ATOM     15  O   LIG    1       32.218 -22.482   8.440  0.00  0.00    -0.155 OA
ATOM     16  O   LIG    1       30.546 -22.036  10.261  0.00  0.00    -0.155 OA
ATOM     17  C   LIG    1       31.444 -20.042   8.809  0.00  0.00    +0.218 C 
ENDBRANCH  12  14
ENDBRANCH   9  12
BRANCH   3  18
ATOM     18  C   LIG    1       22.687 -21.060   5.737  0.00  0.00    +0.075 C 
BRANCH  18  19
ATOM     19  C   LIG    1       22.583 -19.696   5.117  0.00  0.00    +0.007 C 
BRANCH  19  21
ATOM     20  C   LIG    1       24.695 -19.141   3.747  0.00  0.00    +0.004 C 
ATOM     21  C   LIG    1       23.275 -19.596   3.737  0.00  0.00    -0.003 C 
ENDBRANCH  19  21
ENDBRANCH  18  19
ENDBRANCH   3  18
ENDBRANCH   1   4
BRANCH   1  22
ATOM     22  C   LIG    1       25.166 -25.733   5.981  0.00  0.00    +0.023 A 
ATOM     23  C   LIG    1       24.374 -26.908   5.440  0.00  0.00    +0.015 A 
ATOM     24  C   LIG    1       24.316 -28.357   5.912  0.00  0.00    +0.046 A 
ATOM     25  C   LIG    1       25.310 -28.843   6.928  0.00  0.00    +0.120 A 
ATOM     26  C   LIG    1       26.052 -27.433   7.480  0.00  0.00    +0.046 A 
ATOM     27  C   LIG    1       25.896 -26.097   7.067  0.00  0.00    +0.015 A 
BRANCH  25  28
ATOM     28  O   LIG    1       24.703 -29.795   8.568  0.00  0.00    -0.492 OA
BRANCH  28  29
ATOM     29  C   LIG    1       26.425 -30.506   9.342  0.00  0.00    +0.230 C 
BRANCH  29  30
ATOM     30  C   LIG    1       27.311 -29.965  10.586  0.00  0.00    +0.056 C 
BRANCH  30  31
ATOM     31  C   LIG    1       26.379 -29.715  11.693  0.00  0.00    +0.088 C 
BRANCH  31  32
ATOM     32  N   LIG    1       25.815 -28.404  11.850  0.00  0.00    -0.302 NA
BRANCH  32  33
ATOM     33  C   LIG    1       24.912 -28.278  12.990  0.00  0.00    +0.084 C 
BRANCH  33  34
ATOM     34  C   LIG    1       23.387 -28.149  12.721  0.00  0.00    +0.015 C 
BRANCH  34  35
ATOM     35  C   LIG    1       22.367 -27.369  13.606  0.00  0.00    -0.002 C 
ATOM     36  C   LIG    1       21.050 -26.823  13.028  0.00  0.00    +0.004 C 
ENDBRANCH  34  35
ENDBRANCH  33  34
ENDBRANCH  32  33
BRANCH  32  37
ATOM     37  C   LIG    1       26.781 -27.343  11.847  0.00  0.00    +0.084 C 
BRANCH  37  38
ATOM     38  C   LIG    1       26.660 -26.316  12.988  0.00  0.00    +0.015 C 
BRANCH  38  39
ATOM     39  C   LIG    1       25.369 -24.730  13.627  0.00  0.00    -0.002 C 
ATOM     40  C   LIG    1       25.033 -25.500  15.499  0.00  0.00    +0.004 C 
ENDBRANCH  38  39
ENDBRANCH  37  38
ENDBRANCH  32  37
ENDBRANCH  31  32
ENDBRANCH  30  31
ENDBRANCH  29  30
ENDBRANCH  28  29
ENDBRANCH  25  28
ENDBRANCH   1  22
TORSDOF 18
ENDMDL
MODEL 6
REMARK VINA RESULT:      -8.7      1.918      2.919
REMARK  Name = *****
REMARK                            x       y       z     vdW  Elec       q    Type
REMARK                         _______ _______ _______ _____ _____    ______ ____
ROOT
ATOM      1  C   LIG    1       24.751 -23.006   6.342  0.00  0.00    +0.197 C 
ATOM      2  O   LIG    1       23.776 -22.808   7.080  0.00  0.00    -0.286 OA
ENDROOT
BRANCH   1   4
ATOM      3  C   LIG    1       25.182 -20.643   4.733  0.00  0.00    +0.117 A 
ATOM      4  C   LIG    1       25.424 -21.605   5.762  0.00  0.00    +0.071 A 
ATOM      5  C   LIG    1       26.801 -21.073   6.287  0.00  0.00    +0.033 A 
ATOM      6  C   LIG    1       27.202 -19.967   5.543  0.00  0.00    +0.136 A 
ATOM      7  C   LIG    1       28.422 -19.252   5.744  0.00  0.00    +0.049 A 
ATOM      8  C   LIG    1       29.404 -19.876   6.560  0.00  0.00    +0.028 A 
ATOM      9  C   LIG    1       29.112 -21.073   7.215  0.00  0.00    +0.049 A 
ATOM     10  C   LIG    1       27.744 -21.449   7.290  0.00  0.00    +0.036 A 
ATOM     11  O   LIG    1       26.223 -19.710   4.643  0.00  0.00    -0.459 OA
BRANCH   9  12
ATOM     12  N   LIG    1       30.089 -21.863   7.953  0.00  0.00    -0.221 N 
ATOM     13  H   LIG    1       30.634 -22.469   7.348  0.00  0.00    +0.173 HD
BRANCH  12  14
ATOM     14  S   LIG    1       31.145 -21.295   9.182  0.00  0.00    +0.040 S 
ATOM     15  O   LIG    1       32.492 -21.465   8.663  0.00  0.00    -0.155 OA
ATOM     16  O   LIG    1       30.781 -21.866  10.459  0.00  0.00    -0.155 OA
ATOM     17  C   LIG    1       30.926 -19.511   9.308  0.00  0.00    +0.218 C 
ENDBRANCH  12  14
ENDBRANCH   9  12
BRANCH   3  18
ATOM     18  C   LIG    1       24.179 -20.278   3.665  0.00  0.00    +0.075 C 
BRANCH  18  19
ATOM     19  C   LIG    1       23.666 -18.867   3.615  0.00  0.00    +0.007 C 
BRANCH  19  21
ATOM     20  C   LIG    1       22.048 -17.213   4.753  0.00  0.00    +0.004 C 
ATOM     21  C   LIG    1       22.423 -18.635   4.505  0.00  0.00    -0.003 C 
ENDBRANCH  19  21
ENDBRANCH  18  19
ENDBRANCH   3  18
ENDBRANCH   1   4
BRANCH   1  22
ATOM     22  C   LIG    1       25.023 -24.628   6.305  0.00  0.00    +0.023 A 
ATOM     23  C   LIG    1       23.963 -25.704   6.171  0.00  0.00    +0.015 A 
ATOM     24  C   LIG    1       24.071 -27.218   6.319  0.00  0.00    +0.046 A 
ATOM     25  C   LIG    1       25.428 -27.855   6.407  0.00  0.00    +0.120 A 
ATOM     26  C   LIG    1       26.478 -26.553   6.620  0.00  0.00    +0.046 A 
ATOM     27  C   LIG    1       26.226 -25.169   6.629  0.00  0.00    +0.015 A 
BRANCH  25  28
ATOM     28  O   LIG    1       25.860 -29.127   7.877  0.00  0.00    -0.492 OA
BRANCH  28  29
ATOM     29  C   LIG    1       24.040 -29.716   8.517  0.00  0.00    +0.230 C 
BRANCH  29  30
ATOM     30  C   LIG    1       23.630 -30.689   9.744  0.00  0.00    +0.056 C 
BRANCH  30  31
ATOM     31  C   LIG    1       22.399 -30.140  10.328  0.00  0.00    +0.088 C 
BRANCH  31  32
ATOM     32  N   LIG    1       22.002 -30.554  11.644  0.00  0.00    -0.302 NA
BRANCH  32  33
ATOM     33  C   LIG    1       21.773 -29.450  12.571  0.00  0.00    +0.084 C 
BRANCH  33  34
ATOM     34  C   LIG    1       22.789 -28.274  12.595  0.00  0.00    +0.015 C 
BRANCH  34  35
ATOM     35  C   LIG    1       22.583 -26.905  13.311  0.00  0.00    -0.002 C 
ATOM     36  C   LIG    1       23.774 -26.016  13.709  0.00  0.00    +0.004 C 
ENDBRANCH  34  35
ENDBRANCH  33  34
ENDBRANCH  32  33
BRANCH  32  37
ATOM     37  C   LIG    1       20.901 -31.473  11.665  0.00  0.00    +0.084 C 
BRANCH  37  38
ATOM     38  C   LIG    1       20.033 -31.516  10.394  0.00  0.00    +0.015 C 
BRANCH  38  39
ATOM     39  C   LIG    1       17.987 -31.276   9.806  0.00  0.00    -0.002 C 
ATOM     40  C   LIG    1       17.216 -31.523  11.691  0.00  0.00    +0.004 C 
ENDBRANCH  38  39
ENDBRANCH  37  38
ENDBRANCH  32  37
ENDBRANCH  31  32
ENDBRANCH  30  31
ENDBRANCH  29  30
ENDBRANCH  28  29
ENDBRANCH  25  28
ENDBRANCH   1  22
TORSDOF 18
ENDMDL
MODEL 7
REMARK VINA RESULT:      -8.7      3.144     10.158
REMARK  Name = *****
REMARK                            x       y       z     vdW  Elec       q    Type
REMARK                         _______ _______ _______ _____ _____    ______ ____
ROOT
ATOM      1  C   LIG    1       25.085 -28.383   6.232  0.00  0.00    +0.197 C 
ATOM      2  O   LIG    1       25.225 -28.738   5.054  0.00  0.00    -0.286 OA
ENDROOT
BRANCH   1   4
ATOM      3  C   LIG    1       24.544 -30.956   7.434  0.00  0.00    +0.117 A 
ATOM      4  C   LIG    1       25.110 -29.650   7.302  0.00  0.00    +0.071 A 
ATOM      5  C   LIG    1       25.812 -29.536   8.699  0.00  0.00    +0.033 A 
ATOM      6  C   LIG    1       25.568 -30.681   9.451  0.00  0.00    +0.136 A 
ATOM      7  C   LIG    1       26.043 -30.895  10.781  0.00  0.00    +0.049 A 
ATOM      8  C   LIG    1       26.552 -29.761  11.470  0.00  0.00    +0.028 A 
ATOM      9  C   LIG    1       26.679 -28.540  10.809  0.00  0.00    +0.049 A 
ATOM     10  C   LIG    1       26.590 -28.562   9.391  0.00  0.00    +0.036 A 
ATOM     11  O   LIG    1       24.836 -31.522   8.682  0.00  0.00    -0.459 OA
BRANCH   9  12
ATOM     12  N   LIG    1       27.050 -27.290  11.461  0.00  0.00    -0.221 N 
ATOM     13  H   LIG    1       26.892 -26.481  10.868  0.00  0.00    +0.173 HD
BRANCH  12  14
ATOM     14  S   LIG    1       26.668 -26.821  13.068  0.00  0.00    +0.040 S 
ATOM     15  O   LIG    1       26.833 -25.377  13.113  0.00  0.00    -0.155 OA
ATOM     16  O   LIG    1       27.366 -27.662  14.015  0.00  0.00    -0.155 OA
ATOM     17  C   LIG    1       24.903 -27.088  13.309  0.00  0.00    +0.218 C 
ENDBRANCH  12  14
ENDBRANCH   9  12
BRANCH   3  18
ATOM     18  C   LIG    1       23.701 -31.963   6.688  0.00  0.00    +0.075 C 
BRANCH  18  19
ATOM     19  C   LIG    1       24.323 -32.714   5.546  0.00  0.00    +0.007 C 
BRANCH  19  21
ATOM     20  C   LIG    1       26.875 -33.007   5.327  0.00  0.00    +0.004 C 
ATOM     21  C   LIG    1       25.604 -33.483   5.945  0.00  0.00    -0.003 C 
ENDBRANCH  19  21
ENDBRANCH  18  19
ENDBRANCH   3  18
ENDBRANCH   1   4
BRANCH   1  22
ATOM     22  C   LIG    1       25.003 -26.739   6.248  0.00  0.00    +0.023 A 
ATOM     23  C   LIG    1       26.121 -25.799   6.654  0.00  0.00    +0.015 A 
ATOM     24  C   LIG    1       26.102 -24.292   6.894  0.00  0.00    +0.046 A 
ATOM     25  C   LIG    1       24.893 -23.497   6.494  0.00  0.00    +0.120 A 
ATOM     26  C   LIG    1       23.732 -24.668   6.142  0.00  0.00    +0.046 A 
ATOM     27  C   LIG    1       23.829 -26.071   6.116  0.00  0.00    +0.015 A 
BRANCH  25  28
ATOM     28  O   LIG    1       24.019 -22.259   7.785  0.00  0.00    -0.492 OA
BRANCH  28  29
ATOM     29  C   LIG    1       25.582 -21.464   8.781  0.00  0.00    +0.230 C 
BRANCH  29  30
ATOM     30  C   LIG    1       26.623 -20.306   8.335  0.00  0.00    +0.056 C 
BRANCH  30  31
ATOM     31  C   LIG    1       27.298 -20.787   7.121  0.00  0.00    +0.088 C 
BRANCH  31  32
ATOM     32  N   LIG    1       27.265 -19.978   5.935  0.00  0.00    -0.302 NA
BRANCH  32  33
ATOM     33  C   LIG    1       28.584 -19.601   5.437  0.00  0.00    +0.084 C 
BRANCH  33  34
ATOM     34  C   LIG    1       29.341 -18.438   6.137  0.00  0.00    +0.015 C 
BRANCH  34  35
ATOM     35  C   LIG    1       30.131 -18.539   7.477  0.00  0.00    -0.002 C 
ATOM     36  C   LIG    1       30.983 -19.774   7.818  0.00  0.00    +0.004 C 
ENDBRANCH  34  35
ENDBRANCH  33  34
ENDBRANCH  32  33
BRANCH  32  37
ATOM     37  C   LIG    1       26.457 -20.514   4.879  0.00  0.00    +0.084 C 
BRANCH  37  38
ATOM     38  C   LIG    1       25.051 -19.903   4.727  0.00  0.00    +0.015 C 
BRANCH  38  39
ATOM     39  C   LIG    1       23.092 -20.083   5.575  0.00  0.00    -0.002 C 
ATOM     40  C   LIG    1       22.272 -18.548   4.487  0.00  0.00    +0.004 C 
ENDBRANCH  38  39
ENDBRANCH  37  38
ENDBRANCH  32  37
ENDBRANCH  31  32
ENDBRANCH  30  31
ENDBRANCH  29  30
ENDBRANCH  28  29
ENDBRANCH  25  28
ENDBRANCH   1  22
TORSDOF 18
ENDMDL
MODEL 8
REMARK VINA RESULT:      -8.7      3.149     10.412
REMARK  Name = *****
REMARK                            x       y       z     vdW  Elec       q    Type
REMARK                         _______ _______ _______ _____ _____    ______ ____
ROOT
ATOM      1  C   LIG    1       24.714 -28.213   6.024  0.00  0.00    +0.197 C 
ATOM      2  O   LIG    1       24.496 -28.477   4.834  0.00  0.00    -0.286 OA
ENDROOT
BRANCH   1   4
ATOM      3  C   LIG    1       24.467 -30.926   6.993  0.00  0.00    +0.117 A 
ATOM      4  C   LIG    1       24.902 -29.564   6.967  0.00  0.00    +0.071 A 
ATOM      5  C   LIG    1       25.646 -29.510   8.345  0.00  0.00    +0.033 A 
ATOM      6  C   LIG    1       25.543 -30.738   8.993  0.00  0.00    +0.136 A 
ATOM      7  C   LIG    1       26.089 -31.025  10.281  0.00  0.00    +0.049 A 
ATOM      8  C   LIG    1       26.518 -29.915  11.058  0.00  0.00    +0.028 A 
ATOM      9  C   LIG    1       26.502 -28.631  10.512  0.00  0.00    +0.049 A 
ATOM     10  C   LIG    1       26.358 -28.532   9.102  0.00  0.00    +0.036 A 
ATOM     11  O   LIG    1       24.862 -31.572   8.172  0.00  0.00    -0.459 OA
BRANCH   9  12
ATOM     12  N   LIG    1       26.781 -27.416  11.267  0.00  0.00    -0.221 N 
ATOM     13  H   LIG    1       26.527 -26.576  10.757  0.00  0.00    +0.173 HD
BRANCH  12  14
ATOM     14  S   LIG    1       26.418 -27.134  12.921  0.00  0.00    +0.040 S 
ATOM     15  O   LIG    1       27.469 -27.793  13.679  0.00  0.00    -0.155 OA
ATOM     16  O   LIG    1       25.031 -27.436  13.189  0.00  0.00    -0.155 OA
ATOM     17  C   LIG    1       26.658 -25.377  13.240  0.00  0.00    +0.218 C 
ENDBRANCH  12  14
ENDBRANCH   9  12
BRANCH   3  18
ATOM     18  C   LIG    1       23.692 -31.937   6.182  0.00  0.00    +0.075 C 
BRANCH  18  19
ATOM     19  C   LIG    1       24.437 -33.090   5.573  0.00  0.00    +0.007 C 
BRANCH  19  21
ATOM     20  C   LIG    1       27.008 -32.918   5.513  0.00  0.00    +0.004 C 
ATOM     21  C   LIG    1       25.715 -32.662   4.815  0.00  0.00    -0.003 C 
ENDBRANCH  19  21
ENDBRANCH  18  19
ENDBRANCH   3  18
ENDBRANCH   1   4
BRANCH   1  22
ATOM     22  C   LIG    1       24.802 -26.575   6.160  0.00  0.00    +0.023 A 
ATOM     23  C   LIG    1       26.018 -25.785   6.602  0.00  0.00    +0.015 A 
ATOM     24  C   LIG    1       26.159 -24.307   6.949  0.00  0.00    +0.046 A 
ATOM     25  C   LIG    1       25.031 -23.365   6.641  0.00  0.00    +0.120 A 
ATOM     26  C   LIG    1       23.748 -24.384   6.238  0.00  0.00    +0.046 A 
ATOM     27  C   LIG    1       23.700 -25.784   6.108  0.00  0.00    +0.015 A 
BRANCH  25  28
ATOM     28  O   LIG    1       24.314 -22.145   8.042  0.00  0.00    -0.492 OA
BRANCH  28  29
ATOM     29  C   LIG    1       25.983 -21.352   8.849  0.00  0.00    +0.230 C 
BRANCH  29  30
ATOM     30  C   LIG    1       26.991 -20.226   8.265  0.00  0.00    +0.056 C 
BRANCH  30  31
ATOM     31  C   LIG    1       28.118 -20.944   7.653  0.00  0.00    +0.088 C 
BRANCH  31  32
ATOM     32  N   LIG    1       28.666 -20.461   6.417  0.00  0.00    -0.302 NA
BRANCH  32  33
ATOM     33  C   LIG    1       27.747 -19.635   5.641  0.00  0.00    +0.084 C 
BRANCH  33  34
ATOM     34  C   LIG    1       26.347 -20.208   5.288  0.00  0.00    +0.015 C 
BRANCH  34  35
ATOM     35  C   LIG    1       25.463 -19.777   4.078  0.00  0.00    -0.002 C 
ATOM     36  C   LIG    1       23.927 -19.838   4.139  0.00  0.00    +0.004 C 
ENDBRANCH  34  35
ENDBRANCH  33  34
ENDBRANCH  32  33
BRANCH  32  37
ATOM     37  C   LIG    1       29.941 -19.817   6.551  0.00  0.00    +0.084 C 
BRANCH  37  38
ATOM     38  C   LIG    1       29.957 -18.517   7.376  0.00  0.00    +0.015 C 
BRANCH  38  39
ATOM     39  C   LIG    1       30.086 -17.880   9.418  0.00  0.00    -0.002 C 
ATOM     40  C   LIG    1       31.877 -16.903   9.200  0.00  0.00    +0.004 C 
ENDBRANCH  38  39
ENDBRANCH  37  38
ENDBRANCH  32  37
ENDBRANCH  31  32
ENDBRANCH  30  31
ENDBRANCH  29  30
ENDBRANCH  28  29
ENDBRANCH  25  28
ENDBRANCH   1  22
TORSDOF 18
ENDMDL
MODEL 9
REMARK VINA RESULT:      -8.5      2.216      3.158
REMARK  Name = *****
REMARK                            x       y       z     vdW  Elec       q    Type
REMARK                         _______ _______ _______ _____ _____    ______ ____
ROOT
ATOM      1  C   LIG    1       25.115 -24.544   5.751  0.00  0.00    +0.197 C 
ATOM      2  O   LIG    1       25.190 -24.476   4.517  0.00  0.00    -0.286 OA
ENDROOT
BRANCH   1   4
ATOM      3  C   LIG    1       23.853 -22.073   6.564  0.00  0.00    +0.117 A 
ATOM      4  C   LIG    1       24.874 -23.070   6.472  0.00  0.00    +0.071 A 
ATOM      5  C   LIG    1       26.027 -22.321   7.223  0.00  0.00    +0.033 A 
ATOM      6  C   LIG    1       25.602 -21.054   7.610  0.00  0.00    +0.136 A 
ATOM      7  C   LIG    1       26.413 -20.100   8.297  0.00  0.00    +0.049 A 
ATOM      8  C   LIG    1       27.810 -20.356   8.336  0.00  0.00    +0.028 A 
ATOM      9  C   LIG    1       28.317 -21.550   7.822  0.00  0.00    +0.049 A 
ATOM     10  C   LIG    1       27.384 -22.591   7.572  0.00  0.00    +0.036 A 
ATOM     11  O   LIG    1       24.307 -20.930   7.234  0.00  0.00    -0.459 OA
BRANCH   9  12
ATOM     12  N   LIG    1       29.738 -21.844   7.683  0.00  0.00    -0.221 N 
ATOM     13  H   LIG    1       30.117 -21.518   6.799  0.00  0.00    +0.173 HD
BRANCH  12  14
ATOM     14  S   LIG    1       30.953 -21.606   8.873  0.00  0.00    +0.040 S 
ATOM     15  O   LIG    1       32.171 -22.176   8.319  0.00  0.00    -0.155 OA
ATOM     16  O   LIG    1       30.477 -22.032  10.169  0.00  0.00    -0.155 OA
ATOM     17  C   LIG    1       31.279 -19.837   8.973  0.00  0.00    +0.218 C 
ENDBRANCH  12  14
ENDBRANCH   9  12
BRANCH   3  18
ATOM     18  C   LIG    1       22.421 -21.803   6.166  0.00  0.00    +0.075 C 
BRANCH  18  19
ATOM     19  C   LIG    1       22.162 -20.929   4.972  0.00  0.00    +0.007 C 
BRANCH  19  21
ATOM     20  C   LIG    1       22.083 -18.431   4.343  0.00  0.00    +0.004 C 
ATOM     21  C   LIG    1       22.768 -19.513   5.108  0.00  0.00    -0.003 C 
ENDBRANCH  19  21
ENDBRANCH  18  19
ENDBRANCH   3  18
ENDBRANCH   1   4
BRANCH   1  22
ATOM     22  C   LIG    1       25.217 -26.134   6.167  0.00  0.00    +0.023 A 
ATOM     23  C   LIG    1       24.388 -27.259   5.580  0.00  0.00    +0.015 A 
ATOM     24  C   LIG    1       24.256 -28.715   6.015  0.00  0.00    +0.046 A 
ATOM     25  C   LIG    1       25.204 -29.268   7.040  0.00  0.00    +0.120 A 
ATOM     26  C   LIG    1       25.994 -27.905   7.642  0.00  0.00    +0.046 A 
ATOM     27  C   LIG    1       25.906 -26.555   7.258  0.00  0.00    +0.015 A 
BRANCH  25  28
ATOM     28  O   LIG    1       24.520 -30.231   8.643  0.00  0.00    -0.492 OA
BRANCH  28  29
ATOM     29  C   LIG    1       26.209 -30.823   9.571  0.00  0.00    +0.230 C 
BRANCH  29  30
ATOM     30  C   LIG    1       26.927 -30.242  10.902  0.00  0.00    +0.056 C 
BRANCH  30  31
ATOM     31  C   LIG    1       25.912 -30.243  11.965  0.00  0.00    +0.088 C 
BRANCH  31  32
ATOM     32  N   LIG    1       25.810 -29.106  12.836  0.00  0.00    -0.302 NA
BRANCH  32  33
ATOM     33  C   LIG    1       25.867 -27.822  12.145  0.00  0.00    +0.084 C 
BRANCH  33  34
ATOM     34  C   LIG    1       26.963 -26.801  12.560  0.00  0.00    +0.015 C 
BRANCH  34  35
ATOM     35  C   LIG    1       26.748 -25.550  13.466  0.00  0.00    -0.002 C 
ATOM     36  C   LIG    1       25.891 -25.616  14.742  0.00  0.00    +0.004 C 
ENDBRANCH  34  35
ENDBRANCH  33  34
ENDBRANCH  32  33
BRANCH  32  37
ATOM     37  C   LIG    1       24.693 -29.152  13.734  0.00  0.00    +0.084 C 
BRANCH  37  38
ATOM     38  C   LIG    1       23.437 -28.378  13.290  0.00  0.00    +0.015 C 
BRANCH  38  39
ATOM     39  C   LIG    1       22.626 -26.397  13.371  0.00  0.00    -0.002 C 
ATOM     40  C   LIG    1       20.688 -26.969  13.011  0.00  0.00    +0.004 C 
ENDBRANCH  38  39
ENDBRANCH  37  38
ENDBRANCH  32  37
ENDBRANCH  31  32
ENDBRANCH  30  31
ENDBRANCH  29  30
ENDBRANCH  28  29
ENDBRANCH  25  28
ENDBRANCH   1  22
TORSDOF 18
ENDMDL
