MODEL 1
REMARK VINA RESULT:      -8.3      0.000      0.000
REMARK  Name = *****
REMARK                            x       y       z     vdW  Elec       q    Type
REMARK                         _______ _______ _______ _____ _____    ______ ____
ROOT
ATOM      1  C   LIG    1       24.777 -23.759   6.401  0.00  0.00    +0.170 C 
ENDROOT
BRANCH   1   7
ATOM      2 CL   LIG    1       22.695 -18.657   3.911  0.00  0.00    -0.084 Cl
ATOM      3  C   LIG    1       23.298 -20.091   4.642  0.00  0.00    +0.042 A 
ATOM      4  C   LIG    1       22.808 -20.495   5.879  0.00  0.00    +0.040 A 
ATOM      5  C   LIG    1       23.290 -21.666   6.471  0.00  0.00    +0.048 A 
ATOM      6 CL   LIG    1       22.628 -22.099   8.006  0.00  0.00    -0.083 Cl
ATOM      7  C   LIG    1       24.261 -22.450   5.822  0.00  0.00    +0.001 A 
ATOM      8  C   LIG    1       24.748 -22.013   4.574  0.00  0.00    +0.009 A 
ATOM      9  C   LIG    1       24.270 -20.842   3.988  0.00  0.00    +0.020 A 
ENDBRANCH   1   7
BRANCH   1  10
ATOM     10  C   LIG    1       26.205 -23.614   6.970  0.00  0.00    +0.159 C 
BRANCH  10  11
ATOM     11  N   LIG    1       26.492 -22.322   7.558  0.00  0.00    -0.334 N 
ATOM     12  C   LIG    1       25.976 -21.838   8.724  0.00  0.00    +0.199 A 
ATOM     13  N   LIG    1       26.434 -20.630   8.982  0.00  0.00    -0.244 NA
ATOM     14  C   LIG    1       27.288 -20.337   7.953  0.00  0.00    +0.130 A 
ATOM     15  C   LIG    1       27.342 -21.377   7.052  0.00  0.00    +0.107 A 
ENDBRANCH  10  11
ENDBRANCH   1  10
BRANCH   1  16
ATOM     16  O   LIG    1       24.830 -24.764   5.369  0.00  0.00    -0.365 OA
BRANCH  16  17
ATOM     17  C   LIG    1       25.886 -25.719   5.540  0.00  0.00    +0.197 C 
BRANCH  17  18
ATOM     18  C   LIG    1       25.328 -27.071   5.884  0.00  0.00    -0.007 A 
ATOM     19  C   LIG    1       25.604 -27.808   7.108  0.00  0.00    -0.004 A 
ATOM     20  C   LIG    1       26.421 -27.472   8.221  0.00  0.00    +0.009 A 
ATOM     21  C   LIG    1       26.528 -28.322   9.327  0.00  0.00    +0.002 A 
ATOM     22  C   LIG    1       25.833 -29.520   9.350  0.00  0.00    +0.021 A 
ATOM     23  C   LIG    1       25.029 -29.890   8.269  0.00  0.00    +0.055 A 
ATOM     24 CL   LIG    1       24.186 -31.395   8.348  0.00  0.00    -0.082 Cl
ATOM     25  C   LIG    1       24.920 -29.032   7.151  0.00  0.00    +0.038 A 
ATOM     26  S   LIG    1       24.001 -29.270   5.710  0.00  0.00    -0.095 S 
ATOM     27  C   LIG    1       24.482 -27.778   5.056  0.00  0.00    +0.052 A 
ENDBRANCH  17  18
ENDBRANCH  16  17
ENDBRANCH   1  16
TORSDOF 6
ENDMDL
MODEL 2
REMARK VINA RESULT:      -8.2      3.830      6.862
REMARK  Name = *****
REMARK                            x       y       z     vdW  Elec       q    Type
REMARK                         _______ _______ _______ _____ _____    ______ ____
ROOT
ATOM      1  C   LIG    1       25.348 -22.402   5.805  0.00  0.00    +0.170 C 
ENDROOT
BRANCH   1   7
ATOM      2 CL   LIG    1       21.749 -17.926   3.911  0.00  0.00    -0.084 Cl
ATOM      3  C   LIG    1       22.782 -19.181   4.472  0.00  0.00    +0.042 A 
ATOM      4  C   LIG    1       22.563 -19.748   5.723  0.00  0.00    +0.040 A 
ATOM      5  C   LIG    1       23.396 -20.775   6.177  0.00  0.00    +0.048 A 
ATOM      6 CL   LIG    1       23.056 -21.426   7.740  0.00  0.00    -0.083 Cl
ATOM      7  C   LIG    1       24.449 -21.251   5.377  0.00  0.00    +0.001 A 
ATOM      8  C   LIG    1       24.655 -20.653   4.118  0.00  0.00    +0.009 A 
ATOM      9  C   LIG    1       23.827 -19.625   3.669  0.00  0.00    +0.020 A 
ENDBRANCH   1   7
BRANCH   1  10
ATOM     10  C   LIG    1       24.538 -23.670   6.149  0.00  0.00    +0.159 C 
BRANCH  10  11
ATOM     11  N   LIG    1       25.193 -24.915   5.808  0.00  0.00    -0.334 N 
ATOM     12  C   LIG    1       25.196 -25.511   4.581  0.00  0.00    +0.199 A 
ATOM     13  N   LIG    1       25.881 -26.636   4.598  0.00  0.00    -0.244 NA
ATOM     14  C   LIG    1       26.347 -26.756   5.879  0.00  0.00    +0.130 A 
ATOM     15  C   LIG    1       25.933 -25.696   6.653  0.00  0.00    +0.107 A 
ENDBRANCH  10  11
ENDBRANCH   1  10
BRANCH   1  16
ATOM     16  O   LIG    1       26.086 -22.033   6.988  0.00  0.00    -0.365 OA
BRANCH  16  17
ATOM     17  C   LIG    1       27.472 -22.396   6.946  0.00  0.00    +0.197 C 
BRANCH  17  18
ATOM     18  C   LIG    1       28.343 -21.172   6.982  0.00  0.00    -0.007 A 
ATOM     19  C   LIG    1       29.513 -20.996   7.827  0.00  0.00    -0.004 A 
ATOM     20  C   LIG    1       30.100 -21.871   8.781  0.00  0.00    +0.009 A 
ATOM     21  C   LIG    1       31.261 -21.516   9.476  0.00  0.00    +0.002 A 
ATOM     22  C   LIG    1       31.858 -20.287   9.245  0.00  0.00    +0.021 A 
ATOM     23  C   LIG    1       31.304 -19.395   8.323  0.00  0.00    +0.055 A 
ATOM     24 CL   LIG    1       32.087 -17.877   8.074  0.00  0.00    -0.082 Cl
ATOM     25  C   LIG    1       30.131 -19.754   7.620  0.00  0.00    +0.038 A 
ATOM     26  S   LIG    1       29.267 -18.830   6.446  0.00  0.00    -0.095 S 
ATOM     27  C   LIG    1       28.115 -20.054   6.206  0.00  0.00    +0.052 A 
ENDBRANCH  17  18
ENDBRANCH  16  17
ENDBRANCH   1  16
TORSDOF 6
ENDMDL
MODEL 3
REMARK VINA RESULT:      -7.5      4.190      7.512
REMARK  Name = *****
REMARK                            x       y       z     vdW  Elec       q    Type
REMARK                         _______ _______ _______ _____ _____    ______ ____
ROOT
ATOM      1  C   LIG    1       24.482 -21.499   5.904  0.00  0.00    +0.170 C 
ENDROOT
BRANCH   1   7
ATOM      2 CL   LIG    1       26.194 -27.295   6.107  0.00  0.00    -0.084 Cl
ATOM      3  C   LIG    1       25.687 -25.653   6.070  0.00  0.00    +0.042 A 
ATOM      4  C   LIG    1       25.871 -24.849   7.190  0.00  0.00    +0.040 A 
ATOM      5  C   LIG    1       25.468 -23.511   7.160  0.00  0.00    +0.048 A 
ATOM      6 CL   LIG    1       25.733 -22.579   8.591  0.00  0.00    -0.083 Cl
ATOM      7  C   LIG    1       24.888 -22.962   6.003  0.00  0.00    +0.001 A 
ATOM      8  C   LIG    1       24.704 -23.801   4.886  0.00  0.00    +0.009 A 
ATOM      9  C   LIG    1       25.102 -25.137   4.919  0.00  0.00    +0.020 A 
ENDBRANCH   1   7
BRANCH   1  10
ATOM     10  C   LIG    1       23.989 -21.131   4.488  0.00  0.00    +0.159 C 
BRANCH  10  11
ATOM     11  N   LIG    1       23.411 -19.808   4.375  0.00  0.00    -0.334 N 
ATOM     12  C   LIG    1       23.961 -18.746   3.719  0.00  0.00    +0.199 A 
ATOM     13  N   LIG    1       23.188 -17.683   3.802  0.00  0.00    -0.244 NA
ATOM     14  C   LIG    1       22.096 -18.084   4.522  0.00  0.00    +0.130 A 
ATOM     15  C   LIG    1       22.211 -19.405   4.890  0.00  0.00    +0.107 A 
ENDBRANCH  10  11
ENDBRANCH   1  10
BRANCH   1  16
ATOM     16  O   LIG    1       25.616 -20.656   6.193  0.00  0.00    -0.365 OA
BRANCH  16  17
ATOM     17  C   LIG    1       26.680 -20.764   5.238  0.00  0.00    +0.197 C 
BRANCH  17  18
ATOM     18  C   LIG    1       27.870 -19.959   5.677  0.00  0.00    -0.007 A 
ATOM     19  C   LIG    1       28.797 -20.335   6.733  0.00  0.00    -0.004 A 
ATOM     20  C   LIG    1       28.817 -21.480   7.576  0.00  0.00    +0.009 A 
ATOM     21  C   LIG    1       29.829 -21.666   8.523  0.00  0.00    +0.002 A 
ATOM     22  C   LIG    1       30.835 -20.724   8.658  0.00  0.00    +0.021 A 
ATOM     23  C   LIG    1       30.842 -19.580   7.855  0.00  0.00    +0.055 A 
ATOM     24 CL   LIG    1       32.119 -18.437   8.065  0.00  0.00    -0.082 Cl
ATOM     25  C   LIG    1       29.821 -19.390   6.897  0.00  0.00    +0.038 A 
ATOM     26  S   LIG    1       29.616 -18.071   5.803  0.00  0.00    -0.095 S 
ATOM     27  C   LIG    1       28.216 -18.746   5.118  0.00  0.00    +0.052 A 
ENDBRANCH  17  18
ENDBRANCH  16  17
ENDBRANCH   1  16
TORSDOF 6
ENDMDL
MODEL 4
REMARK VINA RESULT:      -7.5      2.255      3.604
REMARK  Name = *****
REMARK                            x       y       z     vdW  Elec       q    Type
REMARK                         _______ _______ _______ _____ _____    ______ ____
ROOT
ATOM      1  C   LIG    1       24.823 -22.945   6.388  0.00  0.00    +0.170 C 
ENDROOT
BRANCH   1   7
ATOM      2 CL   LIG    1       29.424 -19.299   7.839  0.00  0.00    -0.084 Cl
ATOM      3  C   LIG    1       28.098 -20.312   7.426  0.00  0.00    +0.042 A 
ATOM      4  C   LIG    1       27.441 -20.131   6.214  0.00  0.00    +0.040 A 
ATOM      5  C   LIG    1       26.368 -20.959   5.873  0.00  0.00    +0.048 A 
ATOM      6 CL   LIG    1       25.608 -20.670   4.349  0.00  0.00    -0.083 Cl
ATOM      7  C   LIG    1       25.950 -21.985   6.739  0.00  0.00    +0.001 A 
ATOM      8  C   LIG    1       26.626 -22.141   7.965  0.00  0.00    +0.009 A 
ATOM      9  C   LIG    1       27.693 -21.310   8.307  0.00  0.00    +0.020 A 
ENDBRANCH   1   7
BRANCH   1  10
ATOM     10  C   LIG    1       23.454 -22.435   6.888  0.00  0.00    +0.159 C 
BRANCH  10  11
ATOM     11  N   LIG    1       22.896 -21.347   6.112  0.00  0.00    -0.334 N 
ATOM     12  C   LIG    1       23.027 -20.017   6.383  0.00  0.00    +0.199 A 
ATOM     13  N   LIG    1       22.400 -19.283   5.487  0.00  0.00    -0.244 NA
ATOM     14  C   LIG    1       21.863 -20.175   4.599  0.00  0.00    +0.130 A 
ATOM     15  C   LIG    1       22.158 -21.469   4.966  0.00  0.00    +0.107 A 
ENDBRANCH  10  11
ENDBRANCH   1  10
BRANCH   1  16
ATOM     16  O   LIG    1       25.055 -24.224   7.014  0.00  0.00    -0.365 OA
BRANCH  16  17
ATOM     17  C   LIG    1       25.943 -25.077   6.280  0.00  0.00    +0.197 C 
BRANCH  17  18
ATOM     18  C   LIG    1       25.411 -26.482   6.234  0.00  0.00    -0.007 A 
ATOM     19  C   LIG    1       25.674 -27.514   7.224  0.00  0.00    -0.004 A 
ATOM     20  C   LIG    1       26.454 -27.474   8.411  0.00  0.00    +0.009 A 
ATOM     21  C   LIG    1       26.555 -28.588   9.252  0.00  0.00    +0.002 A 
ATOM     22  C   LIG    1       25.890 -29.760   8.933  0.00  0.00    +0.021 A 
ATOM     23  C   LIG    1       25.123 -29.841   7.768  0.00  0.00    +0.055 A 
ATOM     24 CL   LIG    1       24.317 -31.326   7.416  0.00  0.00    -0.082 Cl
ATOM     25  C   LIG    1       25.020 -28.717   6.917  0.00  0.00    +0.038 A 
ATOM     26  S   LIG    1       24.144 -28.576   5.437  0.00  0.00    -0.095 S 
ATOM     27  C   LIG    1       24.604 -26.956   5.220  0.00  0.00    +0.052 A 
ENDBRANCH  17  18
ENDBRANCH  16  17
ENDBRANCH   1  16
TORSDOF 6
ENDMDL
MODEL 5
REMARK VINA RESULT:      -7.3      1.706      2.182
REMARK  Name = *****
REMARK                            x       y       z     vdW  Elec       q    Type
REMARK                         _______ _______ _______ _____ _____    ______ ____
ROOT
ATOM      1  C   LIG    1       26.131 -21.385   6.319  0.00  0.00    +0.170 C 
ENDROOT
BRANCH   1   7
ATOM      2 CL   LIG    1       21.399 -18.534   3.860  0.00  0.00    -0.084 Cl
ATOM      3  C   LIG    1       22.741 -19.328   4.583  0.00  0.00    +0.042 A 
ATOM      4  C   LIG    1       22.555 -20.091   5.731  0.00  0.00    +0.040 A 
ATOM      5  C   LIG    1       23.643 -20.745   6.316  0.00  0.00    +0.048 A 
ATOM      6 CL   LIG    1       23.329 -21.673   7.739  0.00  0.00    -0.083 Cl
ATOM      7  C   LIG    1       24.927 -20.650   5.749  0.00  0.00    +0.001 A 
ATOM      8  C   LIG    1       25.089 -19.862   4.592  0.00  0.00    +0.009 A 
ATOM      9  C   LIG    1       24.004 -19.207   4.013  0.00  0.00    +0.020 A 
ENDBRANCH   1   7
BRANCH   1  10
ATOM     10  C   LIG    1       27.462 -20.731   5.891  0.00  0.00    +0.159 C 
BRANCH  10  11
ATOM     11  N   LIG    1       28.448 -20.624   6.946  0.00  0.00    -0.334 N 
ATOM     12  C   LIG    1       28.741 -21.583   7.871  0.00  0.00    +0.199 A 
ATOM     13  N   LIG    1       29.685 -21.177   8.695  0.00  0.00    -0.244 NA
ATOM     14  C   LIG    1       30.021 -19.920   8.272  0.00  0.00    +0.130 A 
ATOM     15  C   LIG    1       29.264 -19.553   7.182  0.00  0.00    +0.107 A 
ENDBRANCH  10  11
ENDBRANCH   1  10
BRANCH   1  16
ATOM     16  O   LIG    1       26.149 -22.744   5.836  0.00  0.00    -0.365 OA
BRANCH  16  17
ATOM     17  C   LIG    1       26.080 -23.731   6.873  0.00  0.00    +0.197 C 
BRANCH  17  18
ATOM     18  C   LIG    1       25.514 -25.018   6.344  0.00  0.00    -0.007 A 
ATOM     19  C   LIG    1       25.657 -26.322   6.972  0.00  0.00    -0.004 A 
ATOM     20  C   LIG    1       26.328 -26.700   8.167  0.00  0.00    +0.009 A 
ATOM     21  C   LIG    1       26.321 -28.024   8.616  0.00  0.00    +0.002 A 
ATOM     22  C   LIG    1       25.654 -28.999   7.892  0.00  0.00    +0.021 A 
ATOM     23  C   LIG    1       24.992 -28.668   6.707  0.00  0.00    +0.055 A 
ATOM     24 CL   LIG    1       24.178 -29.921   5.842  0.00  0.00    -0.082 Cl
ATOM     25  C   LIG    1       24.999 -27.330   6.251  0.00  0.00    +0.038 A 
ATOM     26  S   LIG    1       24.263 -26.684   4.831  0.00  0.00    -0.095 S 
ATOM     27  C   LIG    1       24.787 -25.105   5.174  0.00  0.00    +0.052 A 
ENDBRANCH  17  18
ENDBRANCH  16  17
ENDBRANCH   1  16
TORSDOF 6
ENDMDL
MODEL 6
REMARK VINA RESULT:      -7.2      4.637      8.977
REMARK  Name = *****
REMARK                            x       y       z     vdW  Elec       q    Type
REMARK                         _______ _______ _______ _____ _____    ______ ____
ROOT
ATOM      1  C   LIG    1       25.667 -20.768   5.577  0.00  0.00    +0.170 C 
ENDROOT
BRANCH   1   7
ATOM      2 CL   LIG    1       30.698 -18.679   8.201  0.00  0.00    -0.084 Cl
ATOM      3  C   LIG    1       29.274 -19.300   7.464  0.00  0.00    +0.042 A 
ATOM      4  C   LIG    1       28.282 -19.871   8.253  0.00  0.00    +0.040 A 
ATOM      5  C   LIG    1       27.119 -20.369   7.657  0.00  0.00    +0.048 A 
ATOM      6 CL   LIG    1       25.934 -21.059   8.707  0.00  0.00    -0.083 Cl
ATOM      7  C   LIG    1       26.936 -20.289   6.265  0.00  0.00    +0.001 A 
ATOM      8  C   LIG    1       27.962 -19.715   5.488  0.00  0.00    +0.009 A 
ATOM      9  C   LIG    1       29.123 -19.224   6.084  0.00  0.00    +0.020 A 
ENDBRANCH   1   7
BRANCH   1  10
ATOM     10  C   LIG    1       25.568 -22.309   5.557  0.00  0.00    +0.159 C 
BRANCH  10  11
ATOM     11  N   LIG    1       24.323 -22.841   6.071  0.00  0.00    -0.334 N 
ATOM     12  C   LIG    1       24.070 -24.148   6.364  0.00  0.00    +0.199 A 
ATOM     13  N   LIG    1       22.841 -24.307   6.812  0.00  0.00    -0.244 NA
ATOM     14  C   LIG    1       22.294 -23.052   6.822  0.00  0.00    +0.130 A 
ATOM     15  C   LIG    1       23.198 -22.121   6.365  0.00  0.00    +0.107 A 
ENDBRANCH  10  11
ENDBRANCH   1  10
BRANCH   1  16
ATOM     16  O   LIG    1       25.654 -20.322   4.206  0.00  0.00    -0.365 OA
BRANCH  16  17
ATOM     17  C   LIG    1       24.338 -20.125   3.670  0.00  0.00    +0.197 C 
BRANCH  17  18
ATOM     18  C   LIG    1       23.865 -18.723   3.929  0.00  0.00    -0.007 A 
ATOM     19  C   LIG    1       24.668 -17.521   3.768  0.00  0.00    -0.004 A 
ATOM     20  C   LIG    1       26.020 -17.364   3.359  0.00  0.00    +0.009 A 
ATOM     21  C   LIG    1       26.601 -16.097   3.241  0.00  0.00    +0.002 A 
ATOM     22  C   LIG    1       25.859 -14.964   3.529  0.00  0.00    +0.021 A 
ATOM     23  C   LIG    1       24.530 -15.079   3.946  0.00  0.00    +0.055 A 
ATOM     24 CL   LIG    1       23.650 -13.635   4.294  0.00  0.00    -0.082 Cl
ATOM     25  C   LIG    1       23.941 -16.358   4.066  0.00  0.00    +0.038 A 
ATOM     26  S   LIG    1       22.335 -16.751   4.559  0.00  0.00    -0.095 S 
ATOM     27  C   LIG    1       22.592 -18.418   4.364  0.00  0.00    +0.052 A 
ENDBRANCH  17  18
ENDBRANCH  16  17
ENDBRANCH   1  16
TORSDOF 6
ENDMDL
MODEL 7
REMARK VINA RESULT:      -7.1      5.462      7.971
REMARK  Name = *****
REMARK                            x       y       z     vdW  Elec       q    Type
REMARK                         _______ _______ _______ _____ _____    ______ ____
ROOT
ATOM      1  C   LIG    1       24.534 -30.450   8.227  0.00  0.00    +0.170 C 
ENDROOT
BRANCH   1   7
ATOM      2 CL   LIG    1       25.389 -25.464   4.915  0.00  0.00    -0.084 Cl
ATOM      3  C   LIG    1       25.174 -26.889   5.852  0.00  0.00    +0.042 A 
ATOM      4  C   LIG    1       25.886 -27.050   7.035  0.00  0.00    +0.040 A 
ATOM      5  C   LIG    1       25.707 -28.204   7.804  0.00  0.00    +0.048 A 
ATOM      6 CL   LIG    1       26.626 -28.328   9.261  0.00  0.00    -0.083 Cl
ATOM      7  C   LIG    1       24.803 -29.203   7.398  0.00  0.00    +0.001 A 
ATOM      8  C   LIG    1       24.102 -29.018   6.190  0.00  0.00    +0.009 A 
ATOM      9  C   LIG    1       24.286 -27.869   5.422  0.00  0.00    +0.020 A 
ENDBRANCH   1   7
BRANCH   1  10
ATOM     10  C   LIG    1       24.359 -31.703   7.342  0.00  0.00    +0.159 C 
BRANCH  10  11
ATOM     11  N   LIG    1       25.586 -32.212   6.766  0.00  0.00    -0.334 N 
ATOM     12  C   LIG    1       26.775 -32.364   7.416  0.00  0.00    +0.199 A 
ATOM     13  N   LIG    1       27.699 -32.850   6.612  0.00  0.00    -0.244 NA
ATOM     14  C   LIG    1       27.074 -33.031   5.409  0.00  0.00    +0.130 A 
ATOM     15  C   LIG    1       25.755 -32.642   5.479  0.00  0.00    +0.107 A 
ENDBRANCH  10  11
ENDBRANCH   1  10
BRANCH   1  16
ATOM     16  O   LIG    1       23.315 -30.286   8.980  0.00  0.00    -0.365 OA
BRANCH  16  17
ATOM     17  C   LIG    1       23.348 -30.891  10.279  0.00  0.00    +0.197 C 
BRANCH  17  18
ATOM     18  C   LIG    1       22.709 -29.991  11.299  0.00  0.00    -0.007 A 
ATOM     19  C   LIG    1       23.409 -29.002  12.104  0.00  0.00    -0.004 A 
ATOM     20  C   LIG    1       24.785 -28.651  12.141  0.00  0.00    +0.009 A 
ATOM     21  C   LIG    1       25.254 -27.635  12.980  0.00  0.00    +0.002 A 
ATOM     22  C   LIG    1       24.372 -26.950  13.800  0.00  0.00    +0.021 A 
ATOM     23  C   LIG    1       23.012 -27.274  13.799  0.00  0.00    +0.055 A 
ATOM     24 CL   LIG    1       21.956 -26.391  14.840  0.00  0.00    -0.082 Cl
ATOM     25  C   LIG    1       22.537 -28.301  12.952  0.00  0.00    +0.038 A 
ATOM     26  S   LIG    1       20.920 -28.878  12.778  0.00  0.00    -0.095 S 
ATOM     27  C   LIG    1       21.362 -30.013  11.595  0.00  0.00    +0.052 A 
ENDBRANCH  17  18
ENDBRANCH  16  17
ENDBRANCH   1  16
TORSDOF 6
ENDMDL
MODEL 8
REMARK VINA RESULT:      -7.0      2.438      3.767
REMARK  Name = *****
REMARK                            x       y       z     vdW  Elec       q    Type
REMARK                         _______ _______ _______ _____ _____    ______ ____
ROOT
ATOM      1  C   LIG    1       25.191 -22.200   6.131  0.00  0.00    +0.170 C 
ENDROOT
BRANCH   1   7
ATOM      2 CL   LIG    1       29.828 -18.694   7.797  0.00  0.00    -0.084 Cl
ATOM      3  C   LIG    1       28.523 -19.714   7.336  0.00  0.00    +0.042 A 
ATOM      4  C   LIG    1       27.731 -20.307   8.314  0.00  0.00    +0.040 A 
ATOM      5  C   LIG    1       26.664 -21.129   7.942  0.00  0.00    +0.048 A 
ATOM      6 CL   LIG    1       25.729 -21.825   9.217  0.00  0.00    -0.083 Cl
ATOM      7  C   LIG    1       26.373 -21.356   6.585  0.00  0.00    +0.001 A 
ATOM      8  C   LIG    1       27.196 -20.751   5.615  0.00  0.00    +0.009 A 
ATOM      9  C   LIG    1       28.264 -19.936   5.988  0.00  0.00    +0.020 A 
ENDBRANCH   1   7
BRANCH   1  10
ATOM     10  C   LIG    1       23.846 -21.473   6.349  0.00  0.00    +0.159 C 
BRANCH  10  11
ATOM     11  N   LIG    1       23.531 -20.474   5.349  0.00  0.00    -0.334 N 
ATOM     12  C   LIG    1       24.126 -20.345   4.128  0.00  0.00    +0.199 A 
ATOM     13  N   LIG    1       23.615 -19.336   3.453  0.00  0.00    -0.244 NA
ATOM     14  C   LIG    1       22.646 -18.810   4.265  0.00  0.00    +0.130 A 
ATOM     15  C   LIG    1       22.574 -19.503   5.452  0.00  0.00    +0.107 A 
ENDBRANCH  10  11
ENDBRANCH   1  10
BRANCH   1  16
ATOM     16  O   LIG    1       25.142 -23.424   6.891  0.00  0.00    -0.365 OA
BRANCH  16  17
ATOM     17  C   LIG    1       26.186 -24.352   6.568  0.00  0.00    +0.197 C 
BRANCH  17  18
ATOM     18  C   LIG    1       25.610 -25.688   6.190  0.00  0.00    -0.007 A 
ATOM     19  C   LIG    1       25.721 -26.905   6.978  0.00  0.00    -0.004 A 
ATOM     20  C   LIG    1       26.363 -27.140   8.224  0.00  0.00    +0.009 A 
ATOM     21  C   LIG    1       26.326 -28.398   8.835  0.00  0.00    +0.002 A 
ATOM     22  C   LIG    1       25.658 -29.446   8.224  0.00  0.00    +0.021 A 
ATOM     23  C   LIG    1       25.025 -29.256   6.992  0.00  0.00    +0.055 A 
ATOM     24 CL   LIG    1       24.208 -30.596   6.273  0.00  0.00    -0.082 Cl
ATOM     25  C   LIG    1       25.061 -27.986   6.374  0.00  0.00    +0.038 A 
ATOM     26  S   LIG    1       24.363 -27.512   4.869  0.00  0.00    -0.095 S 
ATOM     27  C   LIG    1       24.905 -25.910   5.025  0.00  0.00    +0.052 A 
ENDBRANCH  17  18
ENDBRANCH  16  17
ENDBRANCH   1  16
TORSDOF 6
ENDMDL
MODEL 9
REMARK VINA RESULT:      -6.9      3.060      4.731
REMARK  Name = *****
REMARK                            x       y       z     vdW  Elec       q    Type
REMARK                         _______ _______ _______ _____ _____    ______ ____
ROOT
ATOM      1  C   LIG    1       26.986 -21.588   6.590  0.00  0.00    +0.170 C 
ENDROOT
BRANCH   1   7
ATOM      2 CL   LIG    1       32.002 -18.493   7.942  0.00  0.00    -0.084 Cl
ATOM      3  C   LIG    1       30.560 -19.349   7.565  0.00  0.00    +0.042 A 
ATOM      4  C   LIG    1       29.746 -18.907   6.527  0.00  0.00    +0.040 A 
ATOM      5  C   LIG    1       28.577 -19.607   6.213  0.00  0.00    +0.048 A 
ATOM      6 CL   LIG    1       27.623 -18.995   4.910  0.00  0.00    -0.083 Cl
ATOM      7  C   LIG    1       28.219 -20.763   6.929  0.00  0.00    +0.001 A 
ATOM      8  C   LIG    1       29.056 -21.183   7.982  0.00  0.00    +0.009 A 
ATOM      9  C   LIG    1       30.218 -20.481   8.298  0.00  0.00    +0.020 A 
ENDBRANCH   1   7
BRANCH   1  10
ATOM     10  C   LIG    1       25.705 -20.993   7.214  0.00  0.00    +0.159 C 
BRANCH  10  11
ATOM     11  N   LIG    1       24.611 -20.809   6.283  0.00  0.00    -0.334 N 
ATOM     12  C   LIG    1       24.706 -20.801   4.923  0.00  0.00    +0.199 A 
ATOM     13  N   LIG    1       23.529 -20.609   4.363  0.00  0.00    -0.244 NA
ATOM     14  C   LIG    1       22.646 -20.507   5.403  0.00  0.00    +0.130 A 
ATOM     15  C   LIG    1       23.295 -20.629   6.611  0.00  0.00    +0.107 A 
ENDBRANCH  10  11
ENDBRANCH   1  10
BRANCH   1  16
ATOM     16  O   LIG    1       27.132 -22.925   7.111  0.00  0.00    -0.365 OA
BRANCH  16  17
ATOM     17  C   LIG    1       25.895 -23.534   7.504  0.00  0.00    +0.197 C 
BRANCH  17  18
ATOM     18  C   LIG    1       25.558 -24.683   6.597  0.00  0.00    -0.007 A 
ATOM     19  C   LIG    1       25.664 -26.091   6.947  0.00  0.00    -0.004 A 
ATOM     20  C   LIG    1       26.090 -26.710   8.153  0.00  0.00    +0.009 A 
ATOM     21  C   LIG    1       26.090 -28.102   8.295  0.00  0.00    +0.002 A 
ATOM     22  C   LIG    1       25.671 -28.906   7.247  0.00  0.00    +0.021 A 
ATOM     23  C   LIG    1       25.256 -28.333   6.041  0.00  0.00    +0.055 A 
ATOM     24 CL   LIG    1       24.746 -29.380   4.767  0.00  0.00    -0.082 Cl
ATOM     25  C   LIG    1       25.256 -26.927   5.897  0.00  0.00    +0.038 A 
ATOM     26  S   LIG    1       24.794 -25.997   4.519  0.00  0.00    -0.095 S 
ATOM     27  C   LIG    1       25.108 -24.523   5.303  0.00  0.00    +0.052 A 
ENDBRANCH  17  18
ENDBRANCH  16  17
ENDBRANCH   1  16
TORSDOF 6
ENDMDL
