MODEL 1
REMARK VINA RESULT:      -1.4      0.000      0.000
REMARK  Name = *****
REMARK                            x       y       z     vdW  Elec       q    Type
REMARK                         _______ _______ _______ _____ _____    ______ ____
ROOT
ATOM      1  C   LIG    1       23.917 -18.965   3.702  0.00  0.00    +0.148 C 
ATOM      2  C   LIG    1       24.711 -17.701   3.327  0.00  0.00    +0.242 C 
ATOM      3  O   LIG    1       25.681 -17.754   2.562  0.00  0.00    -0.274 OA
ATOM      4  N   LIG    1       24.335 -16.517   3.950  0.00  0.00    -0.228 N 
ATOM      5  C   LIG    1       25.152 -15.330   3.751  0.00  0.00    +0.143 C 
ATOM      6  C   LIG    1       23.176 -16.349   4.681  0.00  0.00    +0.315 C 
ATOM      7  O   LIG    1       22.824 -15.279   5.169  0.00  0.00    -0.252 OA
ATOM      8  N   LIG    1       22.349 -17.426   4.779  0.00  0.00    -0.239 N 
ATOM      9  H   LIG    1       21.421 -17.212   5.115  0.00  0.00    +0.159 HD
ATOM     10  C   LIG    1       22.482 -18.577   4.061  0.00  0.00    +0.240 C 
ATOM     11  O   LIG    1       21.490 -19.263   3.815  0.00  0.00    -0.274 OA
ENDROOT
BRANCH   1  12
ATOM     12  C   LIG    1       24.579 -19.699   4.904  0.00  0.00    -0.024 A 
ATOM     13  C   LIG    1       25.972 -19.881   4.982  0.00  0.00    +0.005 A 
ATOM     14  C   LIG    1       26.553 -20.566   6.054  0.00  0.00    +0.000 A 
ATOM     15  C   LIG    1       25.756 -21.097   7.062  0.00  0.00    +0.000 A 
ATOM     16  C   LIG    1       24.374 -20.956   6.993  0.00  0.00    +0.000 A 
ATOM     17  C   LIG    1       23.792 -20.273   5.922  0.00  0.00    +0.005 A 
ENDBRANCH   1  12
BRANCH   1  19
ATOM     18  C   LIG    1       23.857 -21.442   2.905  0.00  0.00    +0.005 C 
ATOM     19  C   LIG    1       23.921 -19.967   2.510  0.00  0.00    +0.027 C 
ENDBRANCH   1  19
TORSDOF 2
ENDMDL
MODEL 2
REMARK VINA RESULT:       0.1      3.939      6.107
REMARK  Name = *****
REMARK                            x       y       z     vdW  Elec       q    Type
REMARK                         _______ _______ _______ _____ _____    ______ ____
ROOT
ATOM      1  C   LIG    1       27.053 -13.947   4.266  0.00  0.00    +0.148 C 
ATOM      2  C   LIG    1       25.779 -13.306   4.844  0.00  0.00    +0.242 C 
ATOM      3  O   LIG    1       25.541 -13.328   6.057  0.00  0.00    -0.274 OA
ATOM      4  N   LIG    1       24.876 -12.775   3.931  0.00  0.00    -0.228 N 
ATOM      5  C   LIG    1       23.588 -12.302   4.414  0.00  0.00    +0.143 C 
ATOM      6  C   LIG    1       25.143 -12.570   2.592  0.00  0.00    +0.315 C 
ATOM      7  O   LIG    1       24.359 -12.037   1.812  0.00  0.00    -0.252 OA
ATOM      8  N   LIG    1       26.386 -12.908   2.154  0.00  0.00    -0.239 N 
ATOM      9  H   LIG    1       26.624 -12.540   1.244  0.00  0.00    +0.159 HD
ATOM     10  C   LIG    1       27.431 -13.243   2.963  0.00  0.00    +0.240 C 
ATOM     11  O   LIG    1       28.586 -13.046   2.585  0.00  0.00    -0.274 OA
ENDROOT
BRANCH   1  12
ATOM     12  C   LIG    1       26.837 -15.465   4.001  0.00  0.00    -0.024 A 
ATOM     13  C   LIG    1       25.642 -15.957   3.443  0.00  0.00    +0.005 A 
ATOM     14  C   LIG    1       25.450 -17.326   3.235  0.00  0.00    +0.000 A 
ATOM     15  C   LIG    1       26.439 -18.235   3.592  0.00  0.00    +0.000 A 
ATOM     16  C   LIG    1       27.618 -17.778   4.171  0.00  0.00    +0.000 A 
ATOM     17  C   LIG    1       27.811 -16.411   4.382  0.00  0.00    +0.005 A 
ENDBRANCH   1  12
BRANCH   1  19
ATOM     18  C   LIG    1       28.693 -12.411   5.580  0.00  0.00    +0.005 C 
ATOM     19  C   LIG    1       28.217 -13.835   5.296  0.00  0.00    +0.027 C 
ENDBRANCH   1  19
TORSDOF 2
ENDMDL
