MODEL 1
REMARK VINA RESULT:      -7.9      0.000      0.000
REMARK  Name = *****
REMARK                            x       y       z     vdW  Elec       q    Type
REMARK                         _______ _______ _______ _____ _____    ______ ____
ROOT
ATOM      1  N   LIG    1       26.222 -25.020   5.755  0.00  0.00    -0.297 NA
ATOM      2  C   LIG    1       26.688 -26.321   6.295  0.00  0.00    +0.100 C 
ATOM      3  C   LIG    1       25.594 -27.151   7.018  0.00  0.00    +0.100 C 
ATOM      4  N   LIG    1       24.371 -27.418   6.225  0.00  0.00    -0.292 NA
ATOM      5  C   LIG    1       23.911 -26.114   5.666  0.00  0.00    +0.100 C 
ATOM      6  C   LIG    1       25.008 -25.279   4.949  0.00  0.00    +0.100 C 
ENDROOT
BRANCH   1   7
ATOM      7  C   LIG    1       26.001 -24.033   6.843  0.00  0.00    +0.119 C 
BRANCH   7   8
ATOM      8  C   LIG    1       25.207 -22.751   6.462  0.00  0.00    +0.166 C 
BRANCH   8   9
ATOM      9  O   LIG    1       23.987 -22.663   7.210  0.00  0.00    -0.387 OA
ATOM     10  H   LIG    1       24.124 -23.224   7.993  0.00  0.00    +0.210 HD
ENDBRANCH   8   9
BRANCH   8  11
ATOM     11  C   LIG    1       26.014 -21.490   6.812  0.00  0.00    +0.261 C 
BRANCH  11  12
ATOM     12  O   LIG    1       27.362 -21.875   7.144  0.00  0.00    -0.486 OA
BRANCH  12  14
ATOM     13  C   LIG    1       29.451 -20.850   7.751  0.00  0.00    +0.162 A 
ATOM     14  C   LIG    1       28.334 -20.933   6.900  0.00  0.00    +0.162 A 
ATOM     15  C   LIG    1       28.185 -19.968   5.892  0.00  0.00    +0.049 A 
ATOM     16  C   LIG    1       29.110 -18.932   5.737  0.00  0.00    +0.004 A 
ATOM     17  C   LIG    1       30.203 -18.845   6.588  0.00  0.00    +0.004 A 
ATOM     18  C   LIG    1       30.370 -19.800   7.588  0.00  0.00    +0.049 A 
BRANCH  13  20
ATOM     19  C   LIG    1       31.145 -21.844   9.089  0.00  0.00    +0.277 C 
ATOM     20  O   LIG    1       29.765 -21.666   8.807  0.00  0.00    -0.491 OA
ENDBRANCH  13  20
ENDBRANCH  12  14
ENDBRANCH  11  12
ENDBRANCH   8  11
ENDBRANCH   7   8
ENDBRANCH   1   7
BRANCH   4  21
ATOM     21  C   LIG    1       24.617 -28.395   5.129  0.00  0.00    +0.180 C 
BRANCH  21  22
ATOM     22  C   LIG    1       24.996 -29.791   5.668  0.00  0.00    +0.231 C 
ATOM     23  N   LIG    1       24.204 -30.214   6.722  0.00  0.00    -0.284 N 
ATOM     24  H   LIG    1       23.772 -29.435   7.222  0.00  0.00    +0.155 HD
ATOM     25  O   LIG    1       25.970 -30.404   5.194  0.00  0.00    -0.274 OA
BRANCH  23  26
ATOM     26  C   LIG    1       24.439 -31.405   7.469  0.00  0.00    +0.039 A 
ATOM     27  C   LIG    1       24.988 -31.318   8.771  0.00  0.00    -0.029 A 
ATOM     28  C   LIG    1       25.356 -30.015   9.427  0.00  0.00    +0.045 C 
ATOM     29  C   LIG    1       25.177 -32.489   9.532  0.00  0.00    +0.005 A 
ATOM     30  C   LIG    1       24.833 -33.735   9.027  0.00  0.00    +0.001 A 
ATOM     31  C   LIG    1       24.265 -33.825   7.764  0.00  0.00    +0.005 A 
ATOM     32  C   LIG    1       24.036 -32.672   6.984  0.00  0.00    -0.029 A 
ATOM     33  C   LIG    1       23.198 -32.852   5.747  0.00  0.00    +0.045 C 
ENDBRANCH  23  26
ENDBRANCH  21  22
ENDBRANCH   4  21
TORSDOF 10
ENDMDL
MODEL 2
REMARK VINA RESULT:      -7.8      2.173      3.665
REMARK  Name = *****
REMARK                            x       y       z     vdW  Elec       q    Type
REMARK                         _______ _______ _______ _____ _____    ______ ____
ROOT
ATOM      1  N   LIG    1       24.592 -25.139   5.464  0.00  0.00    -0.297 NA
ATOM      2  C   LIG    1       25.155 -25.892   4.316  0.00  0.00    +0.100 C 
ATOM      3  C   LIG    1       26.260 -26.914   4.693  0.00  0.00    +0.100 C 
ATOM      4  N   LIG    1       25.881 -27.907   5.727  0.00  0.00    -0.292 NA
ATOM      5  C   LIG    1       25.298 -27.153   6.873  0.00  0.00    +0.100 C 
ATOM      6  C   LIG    1       24.197 -26.124   6.495  0.00  0.00    +0.100 C 
ENDROOT
BRANCH   1   7
ATOM      7  C   LIG    1       25.551 -24.121   5.964  0.00  0.00    +0.119 C 
BRANCH   7   8
ATOM      8  C   LIG    1       25.185 -23.427   7.308  0.00  0.00    +0.166 C 
BRANCH   8   9
ATOM      9  O   LIG    1       26.208 -22.505   7.703  0.00  0.00    -0.387 OA
ATOM     10  H   LIG    1       26.057 -21.707   7.167  0.00  0.00    +0.210 HD
ENDBRANCH   8   9
BRANCH   8  11
ATOM     11  C   LIG    1       23.898 -22.599   7.156  0.00  0.00    +0.261 C 
BRANCH  11  12
ATOM     12  O   LIG    1       24.242 -21.200   7.138  0.00  0.00    -0.486 OA
BRANCH  12  14
ATOM     13  C   LIG    1       25.041 -20.335   5.041  0.00  0.00    +0.162 A 
ATOM     14  C   LIG    1       23.994 -20.534   5.960  0.00  0.00    +0.162 A 
ATOM     15  C   LIG    1       22.749 -19.941   5.699  0.00  0.00    +0.049 A 
ATOM     16  C   LIG    1       22.545 -19.153   4.564  0.00  0.00    +0.004 A 
ATOM     17  C   LIG    1       23.584 -18.945   3.667  0.00  0.00    +0.004 A 
ATOM     18  C   LIG    1       24.823 -19.535   3.906  0.00  0.00    +0.049 A 
BRANCH  13  20
ATOM     19  C   LIG    1       27.281 -19.933   5.726  0.00  0.00    +0.277 C 
ATOM     20  O   LIG    1       26.329 -20.796   5.121  0.00  0.00    -0.491 OA
ENDBRANCH  13  20
ENDBRANCH  12  14
ENDBRANCH  11  12
ENDBRANCH   8  11
ENDBRANCH   7   8
ENDBRANCH   1   7
BRANCH   4  21
ATOM     21  C   LIG    1       24.905 -28.906   5.211  0.00  0.00    +0.180 C 
BRANCH  21  22
ATOM     22  C   LIG    1       24.693 -30.074   6.198  0.00  0.00    +0.231 C 
ATOM     23  N   LIG    1       25.822 -30.399   6.928  0.00  0.00    -0.284 N 
ATOM     24  H   LIG    1       26.684 -30.108   6.462  0.00  0.00    +0.155 HD
ATOM     25  O   LIG    1       23.598 -30.666   6.242  0.00  0.00    -0.274 OA
BRANCH  23  26
ATOM     26  C   LIG    1       25.913 -31.520   7.804  0.00  0.00    +0.039 A 
ATOM     27  C   LIG    1       26.562 -32.699   7.367  0.00  0.00    -0.029 A 
ATOM     28  C   LIG    1       27.171 -32.849   5.999  0.00  0.00    +0.045 C 
ATOM     29  C   LIG    1       26.696 -33.793   8.246  0.00  0.00    +0.005 A 
ATOM     30  C   LIG    1       26.200 -33.736   9.541  0.00  0.00    +0.001 A 
ATOM     31  C   LIG    1       25.589 -32.572   9.986  0.00  0.00    +0.005 A 
ATOM     32  C   LIG    1       25.461 -31.448   9.144  0.00  0.00    -0.029 A 
ATOM     33  C   LIG    1       25.012 -30.167   9.793  0.00  0.00    +0.045 C 
ENDBRANCH  23  26
ENDBRANCH  21  22
ENDBRANCH   4  21
TORSDOF 10
ENDMDL
MODEL 3
REMARK VINA RESULT:      -7.7      1.155      1.550
REMARK  Name = *****
REMARK                            x       y       z     vdW  Elec       q    Type
REMARK                         _______ _______ _______ _____ _____    ______ ____
ROOT
ATOM      1  N   LIG    1       24.786 -23.780   6.867  0.00  0.00    -0.297 NA
ATOM      2  C   LIG    1       23.601 -24.571   6.452  0.00  0.00    +0.100 C 
ATOM      3  C   LIG    1       23.886 -25.640   5.364  0.00  0.00    +0.100 C 
ATOM      4  N   LIG    1       24.967 -26.603   5.685  0.00  0.00    -0.292 NA
ATOM      5  C   LIG    1       26.152 -25.810   6.119  0.00  0.00    +0.100 C 
ATOM      6  C   LIG    1       25.866 -24.734   7.204  0.00  0.00    +0.100 C 
ENDROOT
BRANCH   1   7
ATOM      7  C   LIG    1       25.175 -22.803   5.818  0.00  0.00    +0.119 C 
BRANCH   7   8
ATOM      8  C   LIG    1       25.035 -21.298   6.189  0.00  0.00    +0.166 C 
BRANCH   8   9
ATOM      9  O   LIG    1       23.724 -21.016   6.695  0.00  0.00    -0.387 OA
ATOM     10  H   LIG    1       23.855 -20.777   7.629  0.00  0.00    +0.210 HD
ENDBRANCH   8   9
BRANCH   8  11
ATOM     11  C   LIG    1       26.016 -20.924   7.312  0.00  0.00    +0.261 C 
BRANCH  11  12
ATOM     12  O   LIG    1       27.284 -21.559   7.055  0.00  0.00    -0.486 OA
BRANCH  12  14
ATOM     13  C   LIG    1       29.463 -20.763   7.689  0.00  0.00    +0.162 A 
ATOM     14  C   LIG    1       28.347 -20.713   6.834  0.00  0.00    +0.162 A 
ATOM     15  C   LIG    1       28.298 -19.715   5.849  0.00  0.00    +0.049 A 
ATOM     16  C   LIG    1       29.323 -18.774   5.721  0.00  0.00    +0.004 A 
ATOM     17  C   LIG    1       30.416 -18.816   6.575  0.00  0.00    +0.004 A 
ATOM     18  C   LIG    1       30.483 -19.806   7.551  0.00  0.00    +0.049 A 
BRANCH  13  20
ATOM     19  C   LIG    1       31.044 -21.841   9.098  0.00  0.00    +0.277 C 
ATOM     20  O   LIG    1       29.690 -21.631   8.725  0.00  0.00    -0.491 OA
ENDBRANCH  13  20
ENDBRANCH  12  14
ENDBRANCH  11  12
ENDBRANCH   8  11
ENDBRANCH   7   8
ENDBRANCH   1   7
BRANCH   4  21
ATOM     21  C   LIG    1       24.564 -27.560   6.751  0.00  0.00    +0.180 C 
BRANCH  21  22
ATOM     22  C   LIG    1       25.114 -28.980   6.496  0.00  0.00    +0.231 C 
ATOM     23  N   LIG    1       24.936 -29.846   7.561  0.00  0.00    -0.284 N 
ATOM     24  H   LIG    1       24.834 -29.353   8.451  0.00  0.00    +0.155 HD
ATOM     25  O   LIG    1       25.705 -29.242   5.432  0.00  0.00    -0.274 OA
BRANCH  23  26
ATOM     26  C   LIG    1       25.473 -31.166   7.616  0.00  0.00    +0.039 A 
ATOM     27  C   LIG    1       26.498 -31.466   8.544  0.00  0.00    -0.029 A 
ATOM     28  C   LIG    1       27.077 -30.453   9.493  0.00  0.00    +0.045 C 
ATOM     29  C   LIG    1       26.997 -32.781   8.635  0.00  0.00    +0.005 A 
ATOM     30  C   LIG    1       26.500 -33.794   7.827  0.00  0.00    +0.001 A 
ATOM     31  C   LIG    1       25.473 -33.513   6.937  0.00  0.00    +0.005 A 
ATOM     32  C   LIG    1       24.929 -32.216   6.837  0.00  0.00    -0.029 A 
ATOM     33  C   LIG    1       23.668 -32.074   6.030  0.00  0.00    +0.045 C 
ENDBRANCH  23  26
ENDBRANCH  21  22
ENDBRANCH   4  21
TORSDOF 10
ENDMDL
MODEL 4
REMARK VINA RESULT:      -7.7      2.198      3.460
REMARK  Name = *****
REMARK                            x       y       z     vdW  Elec       q    Type
REMARK                         _______ _______ _______ _____ _____    ______ ____
ROOT
ATOM      1  N   LIG    1       24.621 -25.231   5.171  0.00  0.00    -0.297 NA
ATOM      2  C   LIG    1       25.377 -26.102   4.237  0.00  0.00    +0.100 C 
ATOM      3  C   LIG    1       26.361 -27.085   4.924  0.00  0.00    +0.100 C 
ATOM      4  N   LIG    1       25.763 -27.965   5.958  0.00  0.00    -0.292 NA
ATOM      5  C   LIG    1       24.988 -27.093   6.887  0.00  0.00    +0.100 C 
ATOM      6  C   LIG    1       24.008 -26.101   6.199  0.00  0.00    +0.100 C 
ENDROOT
BRANCH   1   7
ATOM      7  C   LIG    1       25.491 -24.172   5.745  0.00  0.00    +0.119 C 
BRANCH   7   8
ATOM      8  C   LIG    1       25.047 -23.579   7.113  0.00  0.00    +0.166 C 
BRANCH   8   9
ATOM      9  O   LIG    1       26.043 -22.689   7.633  0.00  0.00    -0.387 OA
ATOM     10  H   LIG    1       25.547 -21.972   8.065  0.00  0.00    +0.210 HD
ENDBRANCH   8   9
BRANCH   8  11
ATOM     11  C   LIG    1       23.767 -22.742   6.951  0.00  0.00    +0.261 C 
BRANCH  11  12
ATOM     12  O   LIG    1       24.108 -21.345   7.046  0.00  0.00    -0.486 OA
BRANCH  12  14
ATOM     13  C   LIG    1       24.994 -20.355   5.041  0.00  0.00    +0.162 A 
ATOM     14  C   LIG    1       23.912 -20.600   5.906  0.00  0.00    +0.162 A 
ATOM     15  C   LIG    1       22.684 -19.973   5.641  0.00  0.00    +0.049 A 
ATOM     16  C   LIG    1       22.532 -19.108   4.555  0.00  0.00    +0.004 A 
ATOM     17  C   LIG    1       23.606 -18.857   3.712  0.00  0.00    +0.004 A 
ATOM     18  C   LIG    1       24.828 -19.478   3.956  0.00  0.00    +0.049 A 
BRANCH  13  20
ATOM     19  C   LIG    1       27.236 -19.987   5.739  0.00  0.00    +0.277 C 
ATOM     20  O   LIG    1       26.273 -20.839   5.138  0.00  0.00    -0.491 OA
ENDBRANCH  13  20
ENDBRANCH  12  14
ENDBRANCH  11  12
ENDBRANCH   8  11
ENDBRANCH   7   8
ENDBRANCH   1   7
BRANCH   4  21
ATOM     21  C   LIG    1       24.880 -29.005   5.364  0.00  0.00    +0.180 C 
BRANCH  21  22
ATOM     22  C   LIG    1       24.698 -30.218   6.303  0.00  0.00    +0.231 C 
ATOM     23  N   LIG    1       25.728 -30.379   7.212  0.00  0.00    -0.284 N 
ATOM     24  H   LIG    1       26.598 -29.944   6.895  0.00  0.00    +0.155 HD
ATOM     25  O   LIG    1       23.719 -30.976   6.165  0.00  0.00    -0.274 OA
BRANCH  23  26
ATOM     26  C   LIG    1       25.851 -31.494   8.092  0.00  0.00    +0.039 A 
ATOM     27  C   LIG    1       25.080 -31.538   9.278  0.00  0.00    -0.029 A 
ATOM     28  C   LIG    1       24.122 -30.450   9.682  0.00  0.00    +0.045 C 
ATOM     29  C   LIG    1       25.163 -32.660  10.126  0.00  0.00    +0.005 A 
ATOM     30  C   LIG    1       25.992 -33.731   9.820  0.00  0.00    +0.001 A 
ATOM     31  C   LIG    1       26.726 -33.708   8.643  0.00  0.00    +0.005 A 
ATOM     32  C   LIG    1       26.649 -32.614   7.756  0.00  0.00    -0.029 A 
ATOM     33  C   LIG    1       27.286 -32.795   6.405  0.00  0.00    +0.045 C 
ENDBRANCH  23  26
ENDBRANCH  21  22
ENDBRANCH   4  21
TORSDOF 10
ENDMDL
MODEL 5
REMARK VINA RESULT:      -7.7      2.379      3.952
REMARK  Name = *****
REMARK                            x       y       z     vdW  Elec       q    Type
REMARK                         _______ _______ _______ _____ _____    ______ ____
ROOT
ATOM      1  N   LIG    1       25.284 -24.190   7.235  0.00  0.00    -0.297 NA
ATOM      2  C   LIG    1       24.280 -24.306   6.148  0.00  0.00    +0.100 C 
ATOM      3  C   LIG    1       24.809 -24.969   4.849  0.00  0.00    +0.100 C 
ATOM      4  N   LIG    1       25.426 -26.306   5.022  0.00  0.00    -0.292 NA
ATOM      5  C   LIG    1       26.422 -26.195   6.127  0.00  0.00    +0.100 C 
ATOM      6  C   LIG    1       25.895 -25.524   7.426  0.00  0.00    +0.100 C 
ENDROOT
BRANCH   1   7
ATOM      7  C   LIG    1       26.279 -23.128   6.938  0.00  0.00    +0.119 C 
BRANCH   7   8
ATOM      8  C   LIG    1       26.286 -21.900   7.895  0.00  0.00    +0.166 C 
BRANCH   8   9
ATOM      9  O   LIG    1       27.544 -21.785   8.572  0.00  0.00    -0.387 OA
ATOM     10  H   LIG    1       27.899 -20.919   8.307  0.00  0.00    +0.210 HD
ENDBRANCH   8   9
BRANCH   8  11
ATOM     11  C   LIG    1       26.105 -20.595   7.102  0.00  0.00    +0.261 C 
BRANCH  11  12
ATOM     12  O   LIG    1       25.818 -20.919   5.728  0.00  0.00    -0.486 OA
BRANCH  12  14
ATOM     13  C   LIG    1       24.706 -19.426   4.206  0.00  0.00    +0.162 A 
ATOM     14  C   LIG    1       24.650 -20.400   5.219  0.00  0.00    +0.162 A 
ATOM     15  C   LIG    1       23.400 -20.729   5.767  0.00  0.00    +0.049 A 
ATOM     16  C   LIG    1       22.232 -20.097   5.336  0.00  0.00    +0.004 A 
ATOM     17  C   LIG    1       22.292 -19.125   4.347  0.00  0.00    +0.004 A 
ATOM     18  C   LIG    1       23.523 -18.794   3.787  0.00  0.00    +0.049 A 
BRANCH  13  20
ATOM     19  C   LIG    1       25.828 -17.556   3.262  0.00  0.00    +0.277 C 
ATOM     20  O   LIG    1       25.817 -18.942   3.565  0.00  0.00    -0.491 OA
ENDBRANCH  13  20
ENDBRANCH  12  14
ENDBRANCH  11  12
ENDBRANCH   8  11
ENDBRANCH   7   8
ENDBRANCH   1   7
BRANCH   4  21
ATOM     21  C   LIG    1       24.415 -27.351   5.338  0.00  0.00    +0.180 C 
BRANCH  21  22
ATOM     22  C   LIG    1       25.068 -28.676   5.788  0.00  0.00    +0.231 C 
ATOM     23  N   LIG    1       24.693 -29.078   7.058  0.00  0.00    -0.284 N 
ATOM     24  H   LIG    1       24.373 -28.297   7.635  0.00  0.00    +0.155 HD
ATOM     25  O   LIG    1       25.893 -29.250   5.053  0.00  0.00    -0.274 OA
BRANCH  23  26
ATOM     26  C   LIG    1       25.259 -30.193   7.743  0.00  0.00    +0.039 A 
ATOM     27  C   LIG    1       26.133 -29.974   8.834  0.00  0.00    -0.029 A 
ATOM     28  C   LIG    1       26.519 -28.604   9.322  0.00  0.00    +0.045 C 
ATOM     29  C   LIG    1       26.656 -31.073   9.544  0.00  0.00    +0.005 A 
ATOM     30  C   LIG    1       26.329 -32.376   9.192  0.00  0.00    +0.001 A 
ATOM     31  C   LIG    1       25.448 -32.596   8.144  0.00  0.00    +0.005 A 
ATOM     32  C   LIG    1       24.882 -31.521   7.427  0.00  0.00    -0.029 A 
ATOM     33  C   LIG    1       23.761 -31.856   6.482  0.00  0.00    +0.045 C 
ENDBRANCH  23  26
ENDBRANCH  21  22
ENDBRANCH   4  21
TORSDOF 10
ENDMDL
MODEL 6
REMARK VINA RESULT:      -7.7      1.285      2.472
REMARK  Name = *****
REMARK                            x       y       z     vdW  Elec       q    Type
REMARK                         _______ _______ _______ _____ _____    ______ ____
ROOT
ATOM      1  N   LIG    1       24.803 -23.393   7.004  0.00  0.00    -0.297 NA
ATOM      2  C   LIG    1       23.947 -23.747   5.844  0.00  0.00    +0.100 C 
ATOM      3  C   LIG    1       24.672 -24.538   4.724  0.00  0.00    +0.100 C 
ATOM      4  N   LIG    1       25.354 -25.780   5.161  0.00  0.00    -0.292 NA
ATOM      5  C   LIG    1       26.200 -25.430   6.338  0.00  0.00    +0.100 C 
ATOM      6  C   LIG    1       25.476 -24.630   7.457  0.00  0.00    +0.100 C 
ENDROOT
BRANCH   1   7
ATOM      7  C   LIG    1       25.751 -22.303   6.661  0.00  0.00    +0.119 C 
BRANCH   7   8
ATOM      8  C   LIG    1       25.424 -20.895   7.239  0.00  0.00    +0.166 C 
BRANCH   8   9
ATOM      9  O   LIG    1       24.158 -20.900   7.912  0.00  0.00    -0.387 OA
ATOM     10  H   LIG    1       23.610 -20.254   7.434  0.00  0.00    +0.210 HD
ENDBRANCH   8   9
BRANCH   8  11
ATOM     11  C   LIG    1       26.467 -20.486   8.291  0.00  0.00    +0.261 C 
BRANCH  11  12
ATOM     12  O   LIG    1       27.667 -21.256   8.083  0.00  0.00    -0.486 OA
BRANCH  12  14
ATOM     13  C   LIG    1       29.991 -20.647   8.191  0.00  0.00    +0.162 A 
ATOM     14  C   LIG    1       28.738 -20.571   7.557  0.00  0.00    +0.162 A 
ATOM     15  C   LIG    1       28.588 -19.699   6.468  0.00  0.00    +0.049 A 
ATOM     16  C   LIG    1       29.648 -18.904   6.025  0.00  0.00    +0.004 A 
ATOM     17  C   LIG    1       30.879 -18.970   6.662  0.00  0.00    +0.004 A 
ATOM     18  C   LIG    1       31.047 -19.838   7.738  0.00  0.00    +0.049 A 
BRANCH  13  20
ATOM     19  C   LIG    1       31.483 -22.234   9.143  0.00  0.00    +0.277 C 
ATOM     20  O   LIG    1       30.338 -21.406   9.279  0.00  0.00    -0.491 OA
ENDBRANCH  13  20
ENDBRANCH  12  14
ENDBRANCH  11  12
ENDBRANCH   8  11
ENDBRANCH   7   8
ENDBRANCH   1   7
BRANCH   4  21
ATOM     21  C   LIG    1       24.386 -26.853   5.518  0.00  0.00    +0.180 C 
BRANCH  21  22
ATOM     22  C   LIG    1       25.094 -28.154   5.956  0.00  0.00    +0.231 C 
ATOM     23  N   LIG    1       24.590 -28.696   7.124  0.00  0.00    -0.284 N 
ATOM     24  H   LIG    1       24.123 -27.998   7.708  0.00  0.00    +0.155 HD
ATOM     25  O   LIG    1       26.062 -28.590   5.305  0.00  0.00    -0.274 OA
BRANCH  23  26
ATOM     26  C   LIG    1       25.160 -29.817   7.797  0.00  0.00    +0.039 A 
ATOM     27  C   LIG    1       24.909 -31.124   7.315  0.00  0.00    -0.029 A 
ATOM     28  C   LIG    1       24.050 -31.412   6.114  0.00  0.00    +0.045 C 
ATOM     29  C   LIG    1       25.510 -32.231   7.947  0.00  0.00    +0.005 A 
ATOM     30  C   LIG    1       26.349 -32.064   9.041  0.00  0.00    +0.001 A 
ATOM     31  C   LIG    1       26.624 -30.783   9.498  0.00  0.00    +0.005 A 
ATOM     32  C   LIG    1       26.063 -29.649   8.874  0.00  0.00    -0.029 A 
ATOM     33  C   LIG    1       26.614 -28.311   9.286  0.00  0.00    +0.045 C 
ENDBRANCH  23  26
ENDBRANCH  21  22
ENDBRANCH   4  21
TORSDOF 10
ENDMDL
MODEL 7
REMARK VINA RESULT:      -7.6      2.963      9.747
REMARK  Name = *****
REMARK                            x       y       z     vdW  Elec       q    Type
REMARK                         _______ _______ _______ _____ _____    ______ ____
ROOT
ATOM      1  N   LIG    1       25.732 -27.888   6.047  0.00  0.00    -0.297 NA
ATOM      2  C   LIG    1       26.425 -27.046   5.040  0.00  0.00    +0.100 C 
ATOM      3  C   LIG    1       25.503 -26.049   4.288  0.00  0.00    +0.100 C 
ATOM      4  N   LIG    1       24.710 -25.140   5.151  0.00  0.00    -0.292 NA
ATOM      5  C   LIG    1       24.028 -25.984   6.174  0.00  0.00    +0.100 C 
ATOM      6  C   LIG    1       24.949 -26.988   6.922  0.00  0.00    +0.100 C 
ENDROOT
BRANCH   1   7
ATOM      7  C   LIG    1       24.905 -28.936   5.395  0.00  0.00    +0.119 C 
BRANCH   7   8
ATOM      8  C   LIG    1       24.083 -29.856   6.343  0.00  0.00    +0.166 C 
BRANCH   8   9
ATOM      9  O   LIG    1       23.373 -30.854   5.598  0.00  0.00    -0.387 OA
ATOM     10  H   LIG    1       22.526 -30.441   5.357  0.00  0.00    +0.210 HD
ENDBRANCH   8   9
BRANCH   8  11
ATOM     11  C   LIG    1       25.014 -30.618   7.300  0.00  0.00    +0.261 C 
BRANCH  11  12
ATOM     12  O   LIG    1       24.412 -30.653   8.608  0.00  0.00    -0.486 OA
BRANCH  12  14
ATOM     13  C   LIG    1       24.477 -29.801  10.857  0.00  0.00    +0.162 A 
ATOM     14  C   LIG    1       25.080 -29.968   9.596  0.00  0.00    +0.162 A 
ATOM     15  C   LIG    1       26.301 -29.323   9.345  0.00  0.00    +0.049 A 
ATOM     16  C   LIG    1       26.907 -28.517  10.312  0.00  0.00    +0.004 A 
ATOM     17  C   LIG    1       26.302 -28.343  11.549  0.00  0.00    +0.004 A 
ATOM     18  C   LIG    1       25.095 -28.983  11.817  0.00  0.00    +0.049 A 
BRANCH  13  20
ATOM     19  C   LIG    1       22.414 -29.423  11.973  0.00  0.00    +0.277 C 
ATOM     20  O   LIG    1       23.282 -30.314  11.291  0.00  0.00    -0.491 OA
ENDBRANCH  13  20
ENDBRANCH  12  14
ENDBRANCH  11  12
ENDBRANCH   8  11
ENDBRANCH   7   8
ENDBRANCH   1   7
BRANCH   4  21
ATOM     21  C   LIG    1       25.560 -24.111   5.809  0.00  0.00    +0.180 C 
BRANCH  21  22
ATOM     22  C   LIG    1       24.850 -22.743   5.903  0.00  0.00    +0.231 C 
ATOM     23  N   LIG    1       24.441 -22.244   4.679  0.00  0.00    -0.284 N 
ATOM     24  H   LIG    1       24.981 -22.629   3.901  0.00  0.00    +0.155 HD
ATOM     25  O   LIG    1       24.738 -22.169   7.002  0.00  0.00    -0.274 OA
BRANCH  23  26
ATOM     26  C   LIG    1       23.882 -20.945   4.492  0.00  0.00    +0.039 A 
ATOM     27  C   LIG    1       22.503 -20.735   4.733  0.00  0.00    -0.029 A 
ATOM     28  C   LIG    1       21.566 -21.825   5.177  0.00  0.00    +0.045 C 
ATOM     29  C   LIG    1       21.957 -19.443   4.596  0.00  0.00    +0.005 A 
ATOM     30  C   LIG    1       22.749 -18.365   4.227  0.00  0.00    +0.001 A 
ATOM     31  C   LIG    1       24.108 -18.558   4.020  0.00  0.00    +0.005 A 
ATOM     32  C   LIG    1       24.695 -19.831   4.174  0.00  0.00    -0.029 A 
ATOM     33  C   LIG    1       26.199 -19.885   4.169  0.00  0.00    +0.045 C 
ENDBRANCH  23  26
ENDBRANCH  21  22
ENDBRANCH   4  21
TORSDOF 10
ENDMDL
MODEL 8
REMARK VINA RESULT:      -7.5      2.149      9.985
REMARK  Name = *****
REMARK                            x       y       z     vdW  Elec       q    Type
REMARK                         _______ _______ _______ _____ _____    ______ ____
ROOT
ATOM      1  N   LIG    1       24.259 -25.724   6.595  0.00  0.00    -0.297 NA
ATOM      2  C   LIG    1       25.618 -25.613   7.181  0.00  0.00    +0.100 C 
ATOM      3  C   LIG    1       26.508 -24.511   6.547  0.00  0.00    +0.100 C 
ATOM      4  N   LIG    1       25.922 -23.149   6.537  0.00  0.00    -0.292 NA
ATOM      5  C   LIG    1       24.549 -23.262   5.964  0.00  0.00    +0.100 C 
ATOM      6  C   LIG    1       23.661 -24.371   6.594  0.00  0.00    +0.100 C 
ENDROOT
BRANCH   1   7
ATOM      7  C   LIG    1       24.304 -26.346   5.247  0.00  0.00    +0.119 C 
BRANCH   7   8
ATOM      8  C   LIG    1       24.683 -27.854   5.194  0.00  0.00    +0.166 C 
BRANCH   8   9
ATOM      9  O   LIG    1       26.105 -28.027   5.262  0.00  0.00    -0.387 OA
ATOM     10  H   LIG    1       26.258 -28.969   5.071  0.00  0.00    +0.210 HD
ENDBRANCH   8   9
BRANCH   8  11
ATOM     11  C   LIG    1       24.103 -28.601   6.405  0.00  0.00    +0.261 C 
BRANCH  11  12
ATOM     12  O   LIG    1       25.099 -29.508   6.916  0.00  0.00    -0.486 OA
BRANCH  12  14
ATOM     13  C   LIG    1       24.320 -30.160   9.096  0.00  0.00    +0.162 A 
ATOM     14  C   LIG    1       25.266 -29.511   8.282  0.00  0.00    +0.162 A 
ATOM     15  C   LIG    1       26.293 -28.779   8.898  0.00  0.00    +0.049 A 
ATOM     16  C   LIG    1       26.376 -28.676  10.288  0.00  0.00    +0.004 A 
ATOM     17  C   LIG    1       25.432 -29.305  11.089  0.00  0.00    +0.004 A 
ATOM     18  C   LIG    1       24.412 -30.042  10.493  0.00  0.00    +0.049 A 
BRANCH  13  20
ATOM     19  C   LIG    1       22.644 -31.743   9.673  0.00  0.00    +0.277 C 
ATOM     20  O   LIG    1       23.232 -30.894   8.699  0.00  0.00    -0.491 OA
ENDBRANCH  13  20
ENDBRANCH  12  14
ENDBRANCH  11  12
ENDBRANCH   8  11
ENDBRANCH   7   8
ENDBRANCH   1   7
BRANCH   4  21
ATOM     21  C   LIG    1       25.869 -22.552   7.899  0.00  0.00    +0.180 C 
BRANCH  21  22
ATOM     22  C   LIG    1       26.833 -21.354   8.047  0.00  0.00    +0.231 C 
ATOM     23  N   LIG    1       28.004 -21.490   7.322  0.00  0.00    -0.284 N 
ATOM     24  H   LIG    1       28.229 -22.467   7.124  0.00  0.00    +0.155 HD
ATOM     25  O   LIG    1       26.549 -20.411   8.809  0.00  0.00    -0.274 OA
BRANCH  23  26
ATOM     26  C   LIG    1       29.100 -20.581   7.399  0.00  0.00    +0.039 A 
ATOM     27  C   LIG    1       30.186 -20.866   8.260  0.00  0.00    -0.029 A 
ATOM     28  C   LIG    1       30.254 -22.094   9.128  0.00  0.00    +0.045 C 
ATOM     29  C   LIG    1       31.294 -19.996   8.303  0.00  0.00    +0.005 A 
ATOM     30  C   LIG    1       31.341 -18.856   7.512  0.00  0.00    +0.001 A 
ATOM     31  C   LIG    1       30.294 -18.588   6.642  0.00  0.00    +0.005 A 
ATOM     32  C   LIG    1       29.181 -19.450   6.551  0.00  0.00    -0.029 A 
ATOM     33  C   LIG    1       28.228 -19.204   5.413  0.00  0.00    +0.045 C 
ENDBRANCH  23  26
ENDBRANCH  21  22
ENDBRANCH   4  21
TORSDOF 10
ENDMDL
MODEL 9
REMARK VINA RESULT:      -7.4      2.853      9.734
REMARK  Name = *****
REMARK                            x       y       z     vdW  Elec       q    Type
REMARK                         _______ _______ _______ _____ _____    ______ ____
ROOT
ATOM      1  N   LIG    1       25.735 -27.998   5.942  0.00  0.00    -0.297 NA
ATOM      2  C   LIG    1       26.434 -27.089   5.000  0.00  0.00    +0.100 C 
ATOM      3  C   LIG    1       25.516 -26.049   4.305  0.00  0.00    +0.100 C 
ATOM      4  N   LIG    1       24.710 -25.201   5.217  0.00  0.00    -0.292 NA
ATOM      5  C   LIG    1       24.022 -26.113   6.175  0.00  0.00    +0.100 C 
ATOM      6  C   LIG    1       24.939 -27.160   6.866  0.00  0.00    +0.100 C 
ENDROOT
BRANCH   1   7
ATOM      7  C   LIG    1       24.919 -29.004   5.215  0.00  0.00    +0.119 C 
BRANCH   7   8
ATOM      8  C   LIG    1       25.027 -30.473   5.715  0.00  0.00    +0.166 C 
BRANCH   8   9
ATOM      9  O   LIG    1       26.395 -30.841   5.933  0.00  0.00    -0.387 OA
ATOM     10  H   LIG    1       26.584 -31.530   5.273  0.00  0.00    +0.210 HD
ENDBRANCH   8   9
BRANCH   8  11
ATOM     11  C   LIG    1       24.319 -30.638   7.070  0.00  0.00    +0.261 C 
BRANCH  11  12
ATOM     12  O   LIG    1       25.306 -30.617   8.119  0.00  0.00    -0.486 OA
BRANCH  12  14
ATOM     13  C   LIG    1       25.823 -29.569  10.221  0.00  0.00    +0.162 A 
ATOM     14  C   LIG    1       24.884 -30.125   9.332  0.00  0.00    +0.162 A 
ATOM     15  C   LIG    1       23.556 -30.270   9.762  0.00  0.00    +0.049 A 
ATOM     16  C   LIG    1       23.166 -29.891  11.048  0.00  0.00    +0.004 A 
ATOM     17  C   LIG    1       24.097 -29.357  11.928  0.00  0.00    +0.004 A 
ATOM     18  C   LIG    1       25.417 -29.197  11.514  0.00  0.00    +0.049 A 
BRANCH  13  20
ATOM     19  C   LIG    1       28.000 -29.391  11.158  0.00  0.00    +0.277 C 
ATOM     20  O   LIG    1       27.163 -29.370  10.011  0.00  0.00    -0.491 OA
ENDBRANCH  13  20
ENDBRANCH  12  14
ENDBRANCH  11  12
ENDBRANCH   8  11
ENDBRANCH   7   8
ENDBRANCH   1   7
BRANCH   4  21
ATOM     21  C   LIG    1       25.549 -24.214   5.949  0.00  0.00    +0.180 C 
BRANCH  21  22
ATOM     22  C   LIG    1       24.886 -22.821   6.011  0.00  0.00    +0.231 C 
ATOM     23  N   LIG    1       24.459 -22.352   4.782  0.00  0.00    -0.284 N 
ATOM     24  H   LIG    1       24.964 -22.782   4.004  0.00  0.00    +0.155 HD
ATOM     25  O   LIG    1       24.825 -22.203   7.091  0.00  0.00    -0.274 OA
BRANCH  23  26
ATOM     26  C   LIG    1       23.938 -21.043   4.562  0.00  0.00    +0.039 A 
ATOM     27  C   LIG    1       22.560 -20.795   4.770  0.00  0.00    -0.029 A 
ATOM     28  C   LIG    1       21.586 -21.854   5.211  0.00  0.00    +0.045 C 
ATOM     29  C   LIG    1       22.049 -19.492   4.602  0.00  0.00    +0.005 A 
ATOM     30  C   LIG    1       22.877 -18.440   4.232  0.00  0.00    +0.001 A 
ATOM     31  C   LIG    1       24.234 -18.671   4.058  0.00  0.00    +0.005 A 
ATOM     32  C   LIG    1       24.786 -19.955   4.244  0.00  0.00    -0.029 A 
ATOM     33  C   LIG    1       26.287 -20.046   4.272  0.00  0.00    +0.045 C 
ENDBRANCH  23  26
ENDBRANCH  21  22
ENDBRANCH   4  21
TORSDOF 10
ENDMDL
