MODEL 1
REMARK VINA RESULT:      -8.2      0.000      0.000
REMARK  Name = *****
REMARK                            x       y       z     vdW  Elec       q    Type
REMARK                         _______ _______ _______ _____ _____    ______ ____
ROOT
ATOM      1  C   LIG    1       22.304 -28.784  12.499  0.00  0.00    +0.014 C 
ATOM      2  C   LIG    1       22.813 -30.140  11.970  0.00  0.00    -0.003 C 
ATOM      3  C   LIG    1       22.673 -31.213  13.102  0.00  0.00    +0.121 C 
ATOM      4  C   LIG    1       24.085 -31.421  13.637  0.00  0.00    +0.032 C 
ATOM      5  C   LIG    1       24.940 -31.291  12.385  0.00  0.00    +0.007 C 
ATOM      6  C   LIG    1       24.355 -30.044  11.713  0.00  0.00    +0.001 C 
ATOM      7  C   LIG    1       24.797 -29.733  10.252  0.00  0.00    +0.003 C 
ATOM      8  C   LIG    1       23.931 -30.393   9.137  0.00  0.00    +0.023 C 
ATOM      9  C   LIG    1       24.676 -31.108   8.031  0.00  0.00    -0.041 A 
ATOM     10  C   LIG    1       25.995 -31.523   8.195  0.00  0.00    -0.040 A 
ATOM     11  C   LIG    1       26.706 -31.251   9.494  0.00  0.00    +0.039 C 
ATOM     12  C   LIG    1       26.648 -32.201   7.153  0.00  0.00    +0.049 A 
ATOM     13  C   LIG    1       25.984 -32.415   5.942  0.00  0.00    +0.117 A 
ATOM     14  C   LIG    1       24.685 -31.987   5.758  0.00  0.00    +0.045 A 
ATOM     15  C   LIG    1       24.021 -31.343   6.801  0.00  0.00    +0.008 A 
ATOM     16  C   LIG    1       22.811 -31.280   9.696  0.00  0.00    +0.009 C 
ATOM     17  C   LIG    1       26.344 -29.859  10.060  0.00  0.00    -0.003 C 
ATOM     18  C   LIG    1       21.998 -30.494  10.712  0.00  0.00    +0.010 C 
ENDROOT
BRANCH   3  19
ATOM     19  O   LIG    1       22.205 -32.461  12.598  0.00  0.00    -0.391 OA
ATOM     20  H   LIG    1       21.788 -32.293  11.736  0.00  0.00    +0.210 HD
ENDBRANCH   3  19
BRANCH  13  21
ATOM     21  O   LIG    1       26.674 -33.049   4.949  0.00  0.00    -0.507 OA
ATOM     22  H   LIG    1       26.518 -32.563   4.119  0.00  0.00    +0.292 HD
ENDBRANCH  13  21
BRANCH  17  23
ATOM     23  C   LIG    1       27.006 -28.709   9.225  0.00  0.00    +0.004 C 
BRANCH  23  24
ATOM     24  C   LIG    1       25.985 -27.778   8.536  0.00  0.00    +0.000 C 
BRANCH  24  25
ATOM     25  C   LIG    1       26.246 -27.508   7.041  0.00  0.00    +0.000 C 
BRANCH  25  26
ATOM     26  C   LIG    1       24.990 -27.820   6.199  0.00  0.00    -0.000 C 
BRANCH  26  27
ATOM     27  C   LIG    1       24.263 -26.598   5.601  0.00  0.00    -0.000 C 
BRANCH  27  28
ATOM     28  C   LIG    1       24.367 -25.338   6.465  0.00  0.00    +0.000 C 
BRANCH  28  29
ATOM     29  C   LIG    1       25.323 -24.278   5.899  0.00  0.00    +0.001 C 
BRANCH  29  30
ATOM     30  C   LIG    1       25.917 -23.382   6.999  0.00  0.00    +0.013 C 
BRANCH  30  31
ATOM     31  C   LIG    1       24.891 -22.453   7.643  0.00  0.00    +0.104 C 
BRANCH  31  32
ATOM     32  S   LIG    1       25.521 -20.758   7.837  0.00  0.00    +0.022 S 
ATOM     33  O   LIG    1       26.318 -20.714   9.106  0.00  0.00    -0.257 OA
BRANCH  32  34
ATOM     34  C   LIG    1       26.716 -20.782   6.457  0.00  0.00    +0.104 C 
BRANCH  34  35
ATOM     35  C   LIG    1       26.171 -20.047   5.232  0.00  0.00    +0.019 C 
BRANCH  35  36
ATOM     36  C   LIG    1       24.999 -20.789   4.576  0.00  0.00    +0.086 C 
BRANCH  36  37
ATOM     37  C   LIG    1       23.907 -19.878   4.027  0.00  0.00    +0.342 C 
ATOM     38  F   LIG    1       23.665 -20.279   2.740  0.00  0.00    -0.196 F 
ATOM     39  F   LIG    1       24.421 -18.619   3.913  0.00  0.00    -0.196 F 
BRANCH  37  40
ATOM     40  C   LIG    1       22.594 -19.869   4.829  0.00  0.00    +0.454 C 
ATOM     41  F   LIG    1       21.754 -18.891   4.405  0.00  0.00    -0.165 F 
ATOM     42  F   LIG    1       22.814 -19.647   6.148  0.00  0.00    -0.165 F 
ATOM     43  F   LIG    1       21.907 -21.031   4.734  0.00  0.00    -0.165 F 
ENDBRANCH  37  40
ENDBRANCH  36  37
ENDBRANCH  35  36
ENDBRANCH  34  35
ENDBRANCH  32  34
ENDBRANCH  31  32
ENDBRANCH  30  31
ENDBRANCH  29  30
ENDBRANCH  28  29
ENDBRANCH  27  28
ENDBRANCH  26  27
ENDBRANCH  25  26
ENDBRANCH  24  25
ENDBRANCH  23  24
ENDBRANCH  17  23
TORSDOF 17
ENDMDL
MODEL 2
REMARK VINA RESULT:      -8.2      3.948      5.031
REMARK  Name = *****
REMARK                            x       y       z     vdW  Elec       q    Type
REMARK                         _______ _______ _______ _____ _____    ______ ____
ROOT
ATOM      1  C   LIG    1       23.307 -29.702  11.436  0.00  0.00    +0.014 C 
ATOM      2  C   LIG    1       24.278 -30.630  10.678  0.00  0.00    -0.003 C 
ATOM      3  C   LIG    1       25.482 -30.982  11.614  0.00  0.00    +0.121 C 
ATOM      4  C   LIG    1       26.644 -30.133  11.114  0.00  0.00    +0.032 C 
ATOM      5  C   LIG    1       26.426 -30.121   9.608  0.00  0.00    +0.007 C 
ATOM      6  C   LIG    1       24.925 -29.836   9.492  0.00  0.00    +0.001 C 
ATOM      7  C   LIG    1       24.259 -30.009   8.095  0.00  0.00    +0.003 C 
ATOM      8  C   LIG    1       23.723 -31.440   7.783  0.00  0.00    +0.023 C 
ATOM      9  C   LIG    1       24.102 -32.031   6.443  0.00  0.00    -0.041 A 
ATOM     10  C   LIG    1       25.183 -31.542   5.713  0.00  0.00    -0.040 A 
ATOM     11  C   LIG    1       25.991 -30.394   6.258  0.00  0.00    +0.039 C 
ATOM     12  C   LIG    1       25.516 -32.128   4.482  0.00  0.00    +0.049 A 
ATOM     13  C   LIG    1       24.734 -33.170   3.975  0.00  0.00    +0.117 A 
ATOM     14  C   LIG    1       23.646 -33.648   4.678  0.00  0.00    +0.045 A 
ATOM     15  C   LIG    1       23.330 -33.091   5.916  0.00  0.00    +0.008 A 
ATOM     16  C   LIG    1       23.996 -32.440   8.913  0.00  0.00    +0.009 C 
ATOM     17  C   LIG    1       25.094 -29.344   6.952  0.00  0.00    -0.003 C 
ATOM     18  C   LIG    1       23.488 -31.874  10.229  0.00  0.00    +0.010 C 
ENDROOT
BRANCH   3  19
ATOM     19  O   LIG    1       25.859 -32.353  11.503  0.00  0.00    -0.391 OA
ATOM     20  H   LIG    1       25.627 -32.651  10.606  0.00  0.00    +0.210 HD
ENDBRANCH   3  19
BRANCH  13  21
ATOM     21  O   LIG    1       25.080 -33.683   2.759  0.00  0.00    -0.507 OA
ATOM     22  H   LIG    1       25.243 -34.637   2.872  0.00  0.00    +0.292 HD
ENDBRANCH  13  21
BRANCH  17  23
ATOM     23  C   LIG    1       24.259 -28.523   5.910  0.00  0.00    +0.004 C 
BRANCH  23  24
ATOM     24  C   LIG    1       25.119 -27.617   5.003  0.00  0.00    +0.000 C 
BRANCH  24  25
ATOM     25  C   LIG    1       25.339 -26.184   5.525  0.00  0.00    +0.000 C 
BRANCH  25  26
ATOM     26  C   LIG    1       24.029 -25.599   6.095  0.00  0.00    -0.000 C 
BRANCH  26  27
ATOM     27  C   LIG    1       24.119 -24.161   6.644  0.00  0.00    -0.000 C 
BRANCH  27  28
ATOM     28  C   LIG    1       25.526 -23.765   7.098  0.00  0.00    +0.000 C 
BRANCH  28  29
ATOM     29  C   LIG    1       25.546 -22.610   8.111  0.00  0.00    +0.001 C 
BRANCH  29  30
ATOM     30  C   LIG    1       25.404 -21.238   7.433  0.00  0.00    +0.013 C 
BRANCH  30  31
ATOM     31  C   LIG    1       26.607 -20.859   6.572  0.00  0.00    +0.104 C 
BRANCH  31  32
ATOM     32  S   LIG    1       28.010 -20.270   7.568  0.00  0.00    +0.022 S 
ATOM     33  O   LIG    1       28.697 -21.474   8.140  0.00  0.00    -0.257 OA
BRANCH  32  34
ATOM     34  C   LIG    1       29.048 -19.664   6.194  0.00  0.00    +0.104 C 
BRANCH  34  35
ATOM     35  C   LIG    1       30.210 -18.812   6.704  0.00  0.00    +0.019 C 
BRANCH  35  36
ATOM     36  C   LIG    1       29.975 -18.291   8.128  0.00  0.00    +0.086 C 
BRANCH  36  37
ATOM     37  C   LIG    1       31.137 -18.529   9.084  0.00  0.00    +0.342 C 
ATOM     38  F   LIG    1       32.288 -18.359   8.361  0.00  0.00    -0.196 F 
ATOM     39  F   LIG    1       31.135 -19.848   9.437  0.00  0.00    -0.196 F 
BRANCH  37  40
ATOM     40  C   LIG    1       31.162 -17.624  10.329  0.00  0.00    +0.454 C 
ATOM     41  F   LIG    1       30.569 -16.427  10.091  0.00  0.00    -0.165 F 
ATOM     42  F   LIG    1       32.431 -17.355  10.726  0.00  0.00    -0.165 F 
ATOM     43  F   LIG    1       30.522 -18.165  11.391  0.00  0.00    -0.165 F 
ENDBRANCH  37  40
ENDBRANCH  36  37
ENDBRANCH  35  36
ENDBRANCH  34  35
ENDBRANCH  32  34
ENDBRANCH  31  32
ENDBRANCH  30  31
ENDBRANCH  29  30
ENDBRANCH  28  29
ENDBRANCH  27  28
ENDBRANCH  26  27
ENDBRANCH  25  26
ENDBRANCH  24  25
ENDBRANCH  23  24
ENDBRANCH  17  23
TORSDOF 17
ENDMDL
MODEL 3
REMARK VINA RESULT:      -8.1      3.030      4.096
REMARK  Name = *****
REMARK                            x       y       z     vdW  Elec       q    Type
REMARK                         _______ _______ _______ _____ _____    ______ ____
ROOT
ATOM      1  C   LIG    1       23.324 -29.690  11.742  0.00  0.00    +0.014 C 
ATOM      2  C   LIG    1       24.278 -30.628  10.974  0.00  0.00    -0.003 C 
ATOM      3  C   LIG    1       25.504 -30.966  11.886  0.00  0.00    +0.121 C 
ATOM      4  C   LIG    1       26.653 -30.123  11.348  0.00  0.00    +0.032 C 
ATOM      5  C   LIG    1       26.400 -30.131   9.847  0.00  0.00    +0.007 C 
ATOM      6  C   LIG    1       24.896 -29.849   9.763  0.00  0.00    +0.001 C 
ATOM      7  C   LIG    1       24.199 -30.043   8.384  0.00  0.00    +0.003 C 
ATOM      8  C   LIG    1       23.657 -31.478   8.104  0.00  0.00    +0.023 C 
ATOM      9  C   LIG    1       24.006 -32.086   6.763  0.00  0.00    -0.041 A 
ATOM     10  C   LIG    1       25.069 -31.606   6.003  0.00  0.00    -0.040 A 
ATOM     11  C   LIG    1       25.888 -30.451   6.513  0.00  0.00    +0.039 C 
ATOM     12  C   LIG    1       25.375 -32.209   4.772  0.00  0.00    +0.049 A 
ATOM     13  C   LIG    1       24.582 -33.258   4.298  0.00  0.00    +0.117 A 
ATOM     14  C   LIG    1       23.511 -33.728   5.032  0.00  0.00    +0.045 A 
ATOM     15  C   LIG    1       23.224 -33.155   6.269  0.00  0.00    +0.008 A 
ATOM     16  C   LIG    1       23.958 -32.462   9.241  0.00  0.00    +0.009 C 
ATOM     17  C   LIG    1       25.006 -29.393   7.213  0.00  0.00    -0.003 C 
ATOM     18  C   LIG    1       23.480 -31.879  10.561  0.00  0.00    +0.010 C 
ENDROOT
BRANCH   3  19
ATOM     19  O   LIG    1       25.880 -32.338  11.785  0.00  0.00    -0.391 OA
ATOM     20  H   LIG    1       26.412 -32.556  12.570  0.00  0.00    +0.210 HD
ENDBRANCH   3  19
BRANCH  13  21
ATOM     21  O   LIG    1       24.901 -33.788   3.081  0.00  0.00    -0.507 OA
ATOM     22  H   LIG    1       24.822 -33.081   2.417  0.00  0.00    +0.292 HD
ENDBRANCH  13  21
BRANCH  17  23
ATOM     23  C   LIG    1       24.146 -28.586   6.180  0.00  0.00    +0.004 C 
BRANCH  23  24
ATOM     24  C   LIG    1       24.931 -28.159   4.921  0.00  0.00    +0.000 C 
BRANCH  24  25
ATOM     25  C   LIG    1       25.964 -27.036   5.140  0.00  0.00    +0.000 C 
BRANCH  25  26
ATOM     26  C   LIG    1       25.973 -26.578   6.614  0.00  0.00    -0.000 C 
BRANCH  26  27
ATOM     27  C   LIG    1       25.514 -25.128   6.869  0.00  0.00    -0.000 C 
BRANCH  27  28
ATOM     28  C   LIG    1       24.228 -24.752   6.129  0.00  0.00    +0.000 C 
BRANCH  28  29
ATOM     29  C   LIG    1       23.359 -23.731   6.879  0.00  0.00    +0.001 C 
BRANCH  29  30
ATOM     30  C   LIG    1       23.427 -22.332   6.247  0.00  0.00    +0.013 C 
BRANCH  30  31
ATOM     31  C   LIG    1       23.372 -21.201   7.272  0.00  0.00    +0.104 C 
BRANCH  31  32
ATOM     32  S   LIG    1       25.021 -20.761   7.904  0.00  0.00    +0.022 S 
ATOM     33  O   LIG    1       25.397 -21.783   8.934  0.00  0.00    -0.257 OA
BRANCH  32  34
ATOM     34  C   LIG    1       25.972 -21.149   6.395  0.00  0.00    +0.104 C 
BRANCH  34  35
ATOM     35  C   LIG    1       27.446 -21.398   6.711  0.00  0.00    +0.019 C 
BRANCH  35  36
ATOM     36  C   LIG    1       28.320 -20.164   6.447  0.00  0.00    +0.086 C 
BRANCH  36  37
ATOM     37  C   LIG    1       29.345 -19.874   7.537  0.00  0.00    +0.342 C 
ATOM     38  F   LIG    1       29.735 -21.085   8.047  0.00  0.00    -0.196 F 
ATOM     39  F   LIG    1       28.704 -19.249   8.567  0.00  0.00    -0.196 F 
BRANCH  37  40
ATOM     40  C   LIG    1       30.579 -19.074   7.085  0.00  0.00    +0.454 C 
ATOM     41  F   LIG    1       30.721 -17.927   7.796  0.00  0.00    -0.165 F 
ATOM     42  F   LIG    1       30.491 -18.714   5.781  0.00  0.00    -0.165 F 
ATOM     43  F   LIG    1       31.736 -19.760   7.228  0.00  0.00    -0.165 F 
ENDBRANCH  37  40
ENDBRANCH  36  37
ENDBRANCH  35  36
ENDBRANCH  34  35
ENDBRANCH  32  34
ENDBRANCH  31  32
ENDBRANCH  30  31
ENDBRANCH  29  30
ENDBRANCH  28  29
ENDBRANCH  27  28
ENDBRANCH  26  27
ENDBRANCH  25  26
ENDBRANCH  24  25
ENDBRANCH  23  24
ENDBRANCH  17  23
TORSDOF 17
ENDMDL
MODEL 4
REMARK VINA RESULT:      -7.9      2.472      3.216
REMARK  Name = *****
REMARK                            x       y       z     vdW  Elec       q    Type
REMARK                         _______ _______ _______ _____ _____    ______ ____
ROOT
ATOM      1  C   LIG    1       22.199 -28.964  12.351  0.00  0.00    +0.014 C 
ATOM      2  C   LIG    1       23.097 -30.182  12.055  0.00  0.00    -0.003 C 
ATOM      3  C   LIG    1       23.560 -30.815  13.411  0.00  0.00    +0.121 C 
ATOM      4  C   LIG    1       25.009 -30.379  13.586  0.00  0.00    +0.032 C 
ATOM      5  C   LIG    1       25.539 -30.396  12.160  0.00  0.00    +0.007 C 
ATOM      6  C   LIG    1       24.423 -29.689  11.383  0.00  0.00    +0.001 C 
ATOM      7  C   LIG    1       24.475 -29.746   9.827  0.00  0.00    +0.003 C 
ATOM      8  C   LIG    1       23.762 -30.971   9.178  0.00  0.00    +0.023 C 
ATOM      9  C   LIG    1       24.539 -31.730   8.124  0.00  0.00    -0.041 A 
ATOM     10  C   LIG    1       25.924 -31.627   8.029  0.00  0.00    -0.040 A 
ATOM     11  C   LIG    1       26.673 -30.737   8.985  0.00  0.00    +0.039 C 
ATOM     12  C   LIG    1       26.613 -32.361   7.050  0.00  0.00    +0.049 A 
ATOM     13  C   LIG    1       25.898 -33.156   6.148  0.00  0.00    +0.117 A 
ATOM     14  C   LIG    1       24.522 -33.247   6.218  0.00  0.00    +0.045 A 
ATOM     15  C   LIG    1       23.837 -32.546   7.209  0.00  0.00    +0.008 A 
ATOM     16  C   LIG    1       23.170 -31.936  10.214  0.00  0.00    +0.009 C 
ATOM     17  C   LIG    1       25.901 -29.429   9.268  0.00  0.00    -0.003 C 
ATOM     18  C   LIG    1       22.291 -31.165  11.184  0.00  0.00    +0.010 C 
ENDROOT
BRANCH   3  19
ATOM     19  O   LIG    1       23.531 -32.240  13.370  0.00  0.00    -0.391 OA
ATOM     20  H   LIG    1       24.014 -32.567  14.149  0.00  0.00    +0.210 HD
ENDBRANCH   3  19
BRANCH  13  21
ATOM     21  O   LIG    1       26.611 -33.823   5.194  0.00  0.00    -0.507 OA
ATOM     22  H   LIG    1       26.840 -33.188   4.493  0.00  0.00    +0.292 HD
ENDBRANCH  13  21
BRANCH  17  23
ATOM     23  C   LIG    1       25.931 -28.464   8.033  0.00  0.00    +0.004 C 
BRANCH  23  24
ATOM     24  C   LIG    1       24.608 -28.437   7.236  0.00  0.00    +0.000 C 
BRANCH  24  25
ATOM     25  C   LIG    1       24.747 -28.693   5.723  0.00  0.00    +0.000 C 
BRANCH  25  26
ATOM     26  C   LIG    1       25.944 -27.911   5.141  0.00  0.00    -0.000 C 
BRANCH  26  27
ATOM     27  C   LIG    1       25.656 -26.453   4.727  0.00  0.00    -0.000 C 
BRANCH  27  28
ATOM     28  C   LIG    1       25.936 -25.434   5.835  0.00  0.00    +0.000 C 
BRANCH  28  29
ATOM     29  C   LIG    1       24.992 -24.223   5.812  0.00  0.00    +0.001 C 
BRANCH  29  30
ATOM     30  C   LIG    1       23.676 -24.495   6.557  0.00  0.00    +0.013 C 
BRANCH  30  31
ATOM     31  C   LIG    1       22.869 -23.230   6.844  0.00  0.00    +0.104 C 
BRANCH  31  32
ATOM     32  S   LIG    1       23.527 -21.778   5.967  0.00  0.00    +0.022 S 
ATOM     33  O   LIG    1       22.375 -21.103   5.284  0.00  0.00    -0.257 OA
BRANCH  32  34
ATOM     34  C   LIG    1       23.941 -20.774   7.434  0.00  0.00    +0.104 C 
BRANCH  34  35
ATOM     35  C   LIG    1       25.088 -21.395   8.232  0.00  0.00    +0.019 C 
BRANCH  35  36
ATOM     36  C   LIG    1       26.351 -20.525   8.219  0.00  0.00    +0.086 C 
BRANCH  36  37
ATOM     37  C   LIG    1       27.359 -20.896   7.138  0.00  0.00    +0.342 C 
ATOM     38  F   LIG    1       26.929 -20.312   5.976  0.00  0.00    -0.196 F 
ATOM     39  F   LIG    1       27.266 -22.239   6.912  0.00  0.00    -0.196 F 
BRANCH  37  40
ATOM     40  C   LIG    1       28.814 -20.483   7.424  0.00  0.00    +0.454 C 
ATOM     41  F   LIG    1       29.456 -21.404   8.186  0.00  0.00    -0.165 F 
ATOM     42  F   LIG    1       28.876 -19.309   8.101  0.00  0.00    -0.165 F 
ATOM     43  F   LIG    1       29.553 -20.332   6.301  0.00  0.00    -0.165 F 
ENDBRANCH  37  40
ENDBRANCH  36  37
ENDBRANCH  35  36
ENDBRANCH  34  35
ENDBRANCH  32  34
ENDBRANCH  31  32
ENDBRANCH  30  31
ENDBRANCH  29  30
ENDBRANCH  28  29
ENDBRANCH  27  28
ENDBRANCH  26  27
ENDBRANCH  25  26
ENDBRANCH  24  25
ENDBRANCH  23  24
ENDBRANCH  17  23
TORSDOF 17
ENDMDL
MODEL 5
REMARK VINA RESULT:      -7.8      3.103      4.227
REMARK  Name = *****
REMARK                            x       y       z     vdW  Elec       q    Type
REMARK                         _______ _______ _______ _____ _____    ______ ____
ROOT
ATOM      1  C   LIG    1       26.570 -27.224  13.226  0.00  0.00    +0.014 C 
ATOM      2  C   LIG    1       26.688 -28.686  12.751  0.00  0.00    -0.003 C 
ATOM      3  C   LIG    1       27.973 -29.323  13.378  0.00  0.00    +0.121 C 
ATOM      4  C   LIG    1       28.994 -29.366  12.248  0.00  0.00    +0.032 C 
ATOM      5  C   LIG    1       28.134 -29.668  11.030  0.00  0.00    +0.007 C 
ATOM      6  C   LIG    1       26.957 -28.704  11.208  0.00  0.00    +0.001 C 
ATOM      7  C   LIG    1       25.714 -28.899  10.289  0.00  0.00    +0.003 C 
ATOM      8  C   LIG    1       24.628 -29.876  10.832  0.00  0.00    +0.023 C 
ATOM      9  C   LIG    1       24.117 -30.927   9.870  0.00  0.00    -0.041 A 
ATOM     10  C   LIG    1       24.840 -31.285   8.735  0.00  0.00    -0.040 A 
ATOM     11  C   LIG    1       26.155 -30.611   8.446  0.00  0.00    +0.039 C 
ATOM     12  C   LIG    1       24.343 -32.278   7.876  0.00  0.00    +0.049 A 
ATOM     13  C   LIG    1       23.105 -32.869   8.142  0.00  0.00    +0.117 A 
ATOM     14  C   LIG    1       22.367 -32.505   9.251  0.00  0.00    +0.045 A 
ATOM     15  C   LIG    1       22.871 -31.544  10.125  0.00  0.00    +0.008 A 
ATOM     16  C   LIG    1       25.012 -30.511  12.174  0.00  0.00    +0.009 C 
ATOM     17  C   LIG    1       26.110 -29.105   8.790  0.00  0.00    -0.003 C 
ATOM     18  C   LIG    1       25.398 -29.422  13.162  0.00  0.00    +0.010 C 
ENDROOT
BRANCH   3  19
ATOM     19  O   LIG    1       27.745 -30.661  13.815  0.00  0.00    -0.391 OA
ATOM     20  H   LIG    1       27.843 -31.245  13.044  0.00  0.00    +0.210 HD
ENDBRANCH   3  19
BRANCH  13  21
ATOM     21  O   LIG    1       22.651 -33.805   7.258  0.00  0.00    -0.507 OA
ATOM     22  H   LIG    1       21.705 -33.635   7.102  0.00  0.00    +0.292 HD
ENDBRANCH  13  21
BRANCH  17  23
ATOM     23  C   LIG    1       25.244 -28.305   7.758  0.00  0.00    +0.004 C 
BRANCH  23  24
ATOM     24  C   LIG    1       25.833 -28.297   6.330  0.00  0.00    +0.000 C 
BRANCH  24  25
ATOM     25  C   LIG    1       24.931 -27.669   5.250  0.00  0.00    +0.000 C 
BRANCH  25  26
ATOM     26  C   LIG    1       25.400 -26.239   4.906  0.00  0.00    -0.000 C 
BRANCH  26  27
ATOM     27  C   LIG    1       25.904 -25.394   6.094  0.00  0.00    -0.000 C 
BRANCH  27  28
ATOM     28  C   LIG    1       25.043 -24.161   6.380  0.00  0.00    +0.000 C 
BRANCH  28  29
ATOM     29  C   LIG    1       23.587 -24.495   6.739  0.00  0.00    +0.001 C 
BRANCH  29  30
ATOM     30  C   LIG    1       22.677 -23.257   6.694  0.00  0.00    +0.013 C 
BRANCH  30  31
ATOM     31  C   LIG    1       23.449 -21.939   6.657  0.00  0.00    +0.104 C 
BRANCH  31  32
ATOM     32  S   LIG    1       23.281 -21.086   5.059  0.00  0.00    +0.022 S 
ATOM     33  O   LIG    1       22.507 -19.824   5.299  0.00  0.00    -0.257 OA
BRANCH  32  34
ATOM     34  C   LIG    1       25.030 -20.609   4.851  0.00  0.00    +0.104 C 
BRANCH  34  35
ATOM     35  C   LIG    1       25.719 -20.404   6.200  0.00  0.00    +0.019 C 
BRANCH  35  36
ATOM     36  C   LIG    1       27.248 -20.386   6.082  0.00  0.00    +0.086 C 
BRANCH  36  37
ATOM     37  C   LIG    1       27.982 -20.387   7.418  0.00  0.00    +0.342 C 
ATOM     38  F   LIG    1       28.277 -21.694   7.708  0.00  0.00    -0.196 F 
ATOM     39  F   LIG    1       27.102 -20.002   8.387  0.00  0.00    -0.196 F 
BRANCH  37  40
ATOM     40  C   LIG    1       29.264 -19.538   7.465  0.00  0.00    +0.454 C 
ATOM     41  F   LIG    1       30.379 -20.307   7.376  0.00  0.00    -0.165 F 
ATOM     42  F   LIG    1       29.363 -18.846   8.627  0.00  0.00    -0.165 F 
ATOM     43  F   LIG    1       29.340 -18.635   6.460  0.00  0.00    -0.165 F 
ENDBRANCH  37  40
ENDBRANCH  36  37
ENDBRANCH  35  36
ENDBRANCH  34  35
ENDBRANCH  32  34
ENDBRANCH  31  32
ENDBRANCH  30  31
ENDBRANCH  29  30
ENDBRANCH  28  29
ENDBRANCH  27  28
ENDBRANCH  26  27
ENDBRANCH  25  26
ENDBRANCH  24  25
ENDBRANCH  23  24
ENDBRANCH  17  23
TORSDOF 17
ENDMDL
MODEL 6
REMARK VINA RESULT:      -7.3      3.163      4.088
REMARK  Name = *****
REMARK                            x       y       z     vdW  Elec       q    Type
REMARK                         _______ _______ _______ _____ _____    ______ ____
ROOT
ATOM      1  C   LIG    1       20.923 -30.394  10.809  0.00  0.00    +0.014 C 
ATOM      2  C   LIG    1       22.082 -31.408  10.727  0.00  0.00    -0.003 C 
ATOM      3  C   LIG    1       22.250 -32.105  12.119  0.00  0.00    +0.121 C 
ATOM      4  C   LIG    1       23.478 -31.460  12.748  0.00  0.00    +0.032 C 
ATOM      5  C   LIG    1       24.387 -31.231  11.549  0.00  0.00    +0.007 C 
ATOM      6  C   LIG    1       23.427 -30.633  10.515  0.00  0.00    +0.001 C 
ATOM      7  C   LIG    1       23.930 -30.505   9.047  0.00  0.00    +0.003 C 
ATOM      8  C   LIG    1       23.678 -31.750   8.142  0.00  0.00    +0.023 C 
ATOM      9  C   LIG    1       24.852 -32.248   7.328  0.00  0.00    -0.041 A 
ATOM     10  C   LIG    1       26.161 -31.910   7.661  0.00  0.00    -0.040 A 
ATOM     11  C   LIG    1       26.423 -31.023   8.849  0.00  0.00    +0.039 C 
ATOM     12  C   LIG    1       27.227 -32.407   6.893  0.00  0.00    +0.049 A 
ATOM     13  C   LIG    1       26.963 -33.202   5.773  0.00  0.00    +0.117 A 
ATOM     14  C   LIG    1       25.668 -33.524   5.420  0.00  0.00    +0.045 A 
ATOM     15  C   LIG    1       24.609 -33.060   6.198  0.00  0.00    +0.008 A 
ATOM     16  C   LIG    1       23.009 -32.908   8.893  0.00  0.00    +0.009 C 
ATOM     17  C   LIG    1       25.369 -29.898   8.962  0.00  0.00    -0.003 C 
ATOM     18  C   LIG    1       21.759 -32.405   9.597  0.00  0.00    +0.010 C 
ENDROOT
BRANCH   3  19
ATOM     19  O   LIG    1       22.504 -33.502  11.988  0.00  0.00    -0.391 OA
ATOM     20  H   LIG    1       22.228 -33.769  11.094  0.00  0.00    +0.210 HD
ENDBRANCH   3  19
BRANCH  13  21
ATOM     21  O   LIG    1       28.032 -33.632   5.041  0.00  0.00    -0.507 OA
ATOM     22  H   LIG    1       27.854 -34.548   4.763  0.00  0.00    +0.292 HD
ENDBRANCH  13  21
BRANCH  17  23
ATOM     23  C   LIG    1       25.568 -28.810   7.852  0.00  0.00    +0.004 C 
BRANCH  23  24
ATOM     24  C   LIG    1       24.403 -28.737   6.841  0.00  0.00    +0.000 C 
BRANCH  24  25
ATOM     25  C   LIG    1       24.801 -28.336   5.407  0.00  0.00    +0.000 C 
BRANCH  25  26
ATOM     26  C   LIG    1       25.741 -27.111   5.421  0.00  0.00    -0.000 C 
BRANCH  26  27
ATOM     27  C   LIG    1       25.107 -25.774   4.986  0.00  0.00    -0.000 C 
BRANCH  27  28
ATOM     28  C   LIG    1       24.163 -25.174   6.032  0.00  0.00    +0.000 C 
BRANCH  28  29
ATOM     29  C   LIG    1       24.772 -23.998   6.811  0.00  0.00    +0.001 C 
BRANCH  29  30
ATOM     30  C   LIG    1       24.859 -22.720   5.962  0.00  0.00    +0.013 C 
BRANCH  30  31
ATOM     31  C   LIG    1       24.603 -21.443   6.761  0.00  0.00    +0.104 C 
BRANCH  31  32
ATOM     32  S   LIG    1       26.077 -20.892   7.673  0.00  0.00    +0.022 S 
ATOM     33  O   LIG    1       26.720 -22.108   8.270  0.00  0.00    -0.257 OA
BRANCH  32  34
ATOM     34  C   LIG    1       27.088 -20.406   6.232  0.00  0.00    +0.104 C 
BRANCH  34  35
ATOM     35  C   LIG    1       28.576 -20.374   6.578  0.00  0.00    +0.019 C 
BRANCH  35  36
ATOM     36  C   LIG    1       28.851 -19.687   7.923  0.00  0.00    +0.086 C 
BRANCH  36  37
ATOM     37  C   LIG    1       29.892 -18.576   7.859  0.00  0.00    +0.342 C 
ATOM     38  F   LIG    1       29.608 -17.707   8.879  0.00  0.00    -0.196 F 
ATOM     39  F   LIG    1       29.681 -17.859   6.717  0.00  0.00    -0.196 F 
BRANCH  37  40
ATOM     40  C   LIG    1       31.356 -19.039   7.959  0.00  0.00    +0.454 C 
ATOM     41  F   LIG    1       31.527 -19.954   8.947  0.00  0.00    -0.165 F 
ATOM     42  F   LIG    1       32.190 -18.006   8.239  0.00  0.00    -0.165 F 
ATOM     43  F   LIG    1       31.809 -19.614   6.821  0.00  0.00    -0.165 F 
ENDBRANCH  37  40
ENDBRANCH  36  37
ENDBRANCH  35  36
ENDBRANCH  34  35
ENDBRANCH  32  34
ENDBRANCH  31  32
ENDBRANCH  30  31
ENDBRANCH  29  30
ENDBRANCH  28  29
ENDBRANCH  27  28
ENDBRANCH  26  27
ENDBRANCH  25  26
ENDBRANCH  24  25
ENDBRANCH  23  24
ENDBRANCH  17  23
TORSDOF 17
ENDMDL
MODEL 7
REMARK VINA RESULT:      -7.2      4.879     11.052
REMARK  Name = *****
REMARK                            x       y       z     vdW  Elec       q    Type
REMARK                         _______ _______ _______ _____ _____    ______ ____
ROOT
ATOM      1  C   LIG    1       31.188 -20.708   7.239  0.00  0.00    +0.014 C 
ATOM      2  C   LIG    1       29.967 -19.767   7.274  0.00  0.00    -0.003 C 
ATOM      3  C   LIG    1       30.304 -18.529   8.171  0.00  0.00    +0.121 C 
ATOM      4  C   LIG    1       29.568 -18.769   9.483  0.00  0.00    +0.032 C 
ATOM      5  C   LIG    1       28.282 -19.443   9.027  0.00  0.00    +0.007 C 
ATOM      6  C   LIG    1       28.791 -20.482   8.022  0.00  0.00    +0.001 C 
ATOM      7  C   LIG    1       27.738 -21.203   7.130  0.00  0.00    +0.003 C 
ATOM      8  C   LIG    1       27.396 -20.488   5.787  0.00  0.00    +0.023 C 
ATOM      9  C   LIG    1       25.928 -20.327   5.457  0.00  0.00    -0.041 A 
ATOM     10  C   LIG    1       24.948 -20.414   6.444  0.00  0.00    -0.040 A 
ATOM     11  C   LIG    1       25.349 -20.684   7.870  0.00  0.00    +0.039 C 
ATOM     12  C   LIG    1       23.598 -20.239   6.103  0.00  0.00    +0.049 A 
ATOM     13  C   LIG    1       23.241 -20.023   4.769  0.00  0.00    +0.117 A 
ATOM     14  C   LIG    1       24.201 -19.958   3.779  0.00  0.00    +0.045 A 
ATOM     15  C   LIG    1       25.546 -20.098   4.116  0.00  0.00    +0.008 A 
ATOM     16  C   LIG    1       28.140 -19.158   5.612  0.00  0.00    +0.009 C 
ATOM     17  C   LIG    1       26.506 -21.706   7.952  0.00  0.00    -0.003 C 
ATOM     18  C   LIG    1       29.629 -19.376   5.822  0.00  0.00    +0.010 C 
ENDROOT
BRANCH   3  19
ATOM     19  O   LIG    1       29.814 -17.314   7.607  0.00  0.00    -0.391 OA
ATOM     20  H   LIG    1       30.085 -17.292   6.674  0.00  0.00    +0.210 HD
ENDBRANCH   3  19
BRANCH  13  21
ATOM     21  O   LIG    1       21.912 -19.893   4.485  0.00  0.00    -0.507 OA
ATOM     22  H   LIG    1       21.807 -19.129   3.891  0.00  0.00    +0.292 HD
ENDBRANCH  13  21
BRANCH  17  23
ATOM     23  C   LIG    1       26.020 -23.154   7.603  0.00  0.00    +0.004 C 
BRANCH  23  24
ATOM     24  C   LIG    1       24.486 -23.278   7.474  0.00  0.00    +0.000 C 
BRANCH  24  25
ATOM     25  C   LIG    1       23.995 -24.281   6.411  0.00  0.00    +0.000 C 
BRANCH  25  26
ATOM     26  C   LIG    1       24.984 -24.357   5.229  0.00  0.00    -0.000 C 
BRANCH  26  27
ATOM     27  C   LIG    1       25.336 -25.776   4.739  0.00  0.00    -0.000 C 
BRANCH  27  28
ATOM     28  C   LIG    1       26.276 -26.535   5.680  0.00  0.00    +0.000 C 
BRANCH  28  29
ATOM     29  C   LIG    1       25.545 -27.382   6.732  0.00  0.00    +0.001 C 
BRANCH  29  30
ATOM     30  C   LIG    1       24.357 -28.154   6.136  0.00  0.00    +0.013 C 
BRANCH  30  31
ATOM     31  C   LIG    1       24.377 -29.646   6.464  0.00  0.00    +0.104 C 
BRANCH  31  32
ATOM     32  S   LIG    1       24.377 -29.958   8.256  0.00  0.00    +0.022 S 
ATOM     33  O   LIG    1       23.267 -30.923   8.547  0.00  0.00    -0.257 OA
BRANCH  32  34
ATOM     34  C   LIG    1       25.939 -30.898   8.340  0.00  0.00    +0.104 C 
BRANCH  34  35
ATOM     35  C   LIG    1       26.832 -30.400   9.477  0.00  0.00    +0.019 C 
BRANCH  35  36
ATOM     36  C   LIG    1       26.676 -28.895   9.729  0.00  0.00    +0.086 C 
BRANCH  36  37
ATOM     37  C   LIG    1       26.918 -28.470  11.172  0.00  0.00    +0.342 C 
ATOM     38  F   LIG    1       26.974 -27.101  11.180  0.00  0.00    -0.196 F 
ATOM     39  F   LIG    1       28.172 -28.875  11.530  0.00  0.00    -0.196 F 
BRANCH  37  40
ATOM     40  C   LIG    1       25.869 -28.958  12.187  0.00  0.00    +0.454 C 
ATOM     41  F   LIG    1       24.641 -29.074  11.621  0.00  0.00    -0.165 F 
ATOM     42  F   LIG    1       25.737 -28.094  13.224  0.00  0.00    -0.165 F 
ATOM     43  F   LIG    1       26.164 -30.168  12.715  0.00  0.00    -0.165 F 
ENDBRANCH  37  40
ENDBRANCH  36  37
ENDBRANCH  35  36
ENDBRANCH  34  35
ENDBRANCH  32  34
ENDBRANCH  31  32
ENDBRANCH  30  31
ENDBRANCH  29  30
ENDBRANCH  28  29
ENDBRANCH  27  28
ENDBRANCH  26  27
ENDBRANCH  25  26
ENDBRANCH  24  25
ENDBRANCH  23  24
ENDBRANCH  17  23
TORSDOF 17
ENDMDL
MODEL 8
REMARK VINA RESULT:      -7.1      2.968      6.409
REMARK  Name = *****
REMARK                            x       y       z     vdW  Elec       q    Type
REMARK                         _______ _______ _______ _____ _____    ______ ____
ROOT
ATOM      1  C   LIG    1       24.244 -32.978  12.115  0.00  0.00    +0.014 C 
ATOM      2  C   LIG    1       22.980 -32.191  11.715  0.00  0.00    -0.003 C 
ATOM      3  C   LIG    1       22.648 -32.489  10.214  0.00  0.00    +0.121 C 
ATOM      4  C   LIG    1       23.094 -31.251   9.448  0.00  0.00    +0.032 C 
ATOM      5  C   LIG    1       22.764 -30.122  10.414  0.00  0.00    +0.007 C 
ATOM      6  C   LIG    1       23.300 -30.658  11.745  0.00  0.00    +0.001 C 
ATOM      7  C   LIG    1       22.910 -29.893  13.045  0.00  0.00    +0.003 C 
ATOM      8  C   LIG    1       21.583 -30.355  13.720  0.00  0.00    +0.023 C 
ATOM      9  C   LIG    1       20.606 -29.268  14.113  0.00  0.00    -0.041 A 
ATOM     10  C   LIG    1       20.668 -27.997  13.548  0.00  0.00    -0.040 A 
ATOM     11  C   LIG    1       21.734 -27.685  12.531  0.00  0.00    +0.039 C 
ATOM     12  C   LIG    1       19.733 -27.019  13.923  0.00  0.00    +0.049 A 
ATOM     13  C   LIG    1       18.772 -27.316  14.894  0.00  0.00    +0.117 A 
ATOM     14  C   LIG    1       18.714 -28.565  15.478  0.00  0.00    +0.045 A 
ATOM     15  C   LIG    1       19.620 -29.549  15.085  0.00  0.00    +0.008 A 
ATOM     16  C   LIG    1       20.871 -31.467  12.939  0.00  0.00    +0.009 C 
ATOM     17  C   LIG    1       23.082 -28.346  12.898  0.00  0.00    -0.003 C 
ATOM     18  C   LIG    1       21.843 -32.603  12.670  0.00  0.00    +0.010 C 
ENDROOT
BRANCH   3  19
ATOM     19  O   LIG    1       21.248 -32.658  10.002  0.00  0.00    -0.391 OA
ATOM     20  H   LIG    1       20.977 -32.031   9.310  0.00  0.00    +0.210 HD
ENDBRANCH   3  19
BRANCH  13  21
ATOM     21  O   LIG    1       17.906 -26.321  15.248  0.00  0.00    -0.507 OA
ATOM     22  H   LIG    1       18.309 -25.471  14.997  0.00  0.00    +0.292 HD
ENDBRANCH  13  21
BRANCH  17  23
ATOM     23  C   LIG    1       23.758 -27.633  14.120  0.00  0.00    +0.004 C 
BRANCH  23  24
ATOM     24  C   LIG    1       24.095 -26.148  13.862  0.00  0.00    +0.000 C 
BRANCH  24  25
ATOM     25  C   LIG    1       25.505 -25.882  13.301  0.00  0.00    +0.000 C 
BRANCH  25  26
ATOM     26  C   LIG    1       26.278 -27.205  13.109  0.00  0.00    -0.000 C 
BRANCH  26  27
ATOM     27  C   LIG    1       26.765 -27.494  11.674  0.00  0.00    -0.000 C 
BRANCH  27  28
ATOM     28  C   LIG    1       26.282 -28.838  11.122  0.00  0.00    +0.000 C 
BRANCH  28  29
ATOM     29  C   LIG    1       26.816 -29.156   9.717  0.00  0.00    +0.001 C 
BRANCH  29  30
ATOM     30  C   LIG    1       25.819 -28.767   8.613  0.00  0.00    +0.013 C 
BRANCH  30  31
ATOM     31  C   LIG    1       26.222 -27.508   7.849  0.00  0.00    +0.104 C 
BRANCH  31  32
ATOM     32  S   LIG    1       25.461 -27.428   6.199  0.00  0.00    +0.022 S 
ATOM     33  O   LIG    1       23.977 -27.553   6.379  0.00  0.00    -0.257 OA
BRANCH  32  34
ATOM     34  C   LIG    1       25.812 -25.671   5.852  0.00  0.00    +0.104 C 
BRANCH  34  35
ATOM     35  C   LIG    1       24.534 -24.832   5.863  0.00  0.00    +0.019 C 
BRANCH  35  36
ATOM     36  C   LIG    1       24.819 -23.329   5.976  0.00  0.00    +0.086 C 
BRANCH  36  37
ATOM     37  C   LIG    1       23.783 -22.552   6.779  0.00  0.00    +0.342 C 
ATOM     38  F   LIG    1       24.357 -22.257   7.988  0.00  0.00    -0.196 F 
ATOM     39  F   LIG    1       22.753 -23.397   7.076  0.00  0.00    -0.196 F 
BRANCH  37  40
ATOM     40  C   LIG    1       23.267 -21.263   6.116  0.00  0.00    +0.454 C 
ATOM     41  F   LIG    1       23.035 -20.286   7.029  0.00  0.00    -0.165 F 
ATOM     42  F   LIG    1       22.096 -21.469   5.464  0.00  0.00    -0.165 F 
ATOM     43  F   LIG    1       24.135 -20.746   5.215  0.00  0.00    -0.165 F 
ENDBRANCH  37  40
ENDBRANCH  36  37
ENDBRANCH  35  36
ENDBRANCH  34  35
ENDBRANCH  32  34
ENDBRANCH  31  32
ENDBRANCH  30  31
ENDBRANCH  29  30
ENDBRANCH  28  29
ENDBRANCH  27  28
ENDBRANCH  26  27
ENDBRANCH  25  26
ENDBRANCH  24  25
ENDBRANCH  23  24
ENDBRANCH  17  23
TORSDOF 17
ENDMDL
MODEL 9
REMARK VINA RESULT:      -7.0      4.681     11.048
REMARK  Name = *****
REMARK                            x       y       z     vdW  Elec       q    Type
REMARK                         _______ _______ _______ _____ _____    ______ ____
ROOT
ATOM      1  C   LIG    1       31.002 -21.170   7.607  0.00  0.00    +0.014 C 
ATOM      2  C   LIG    1       29.877 -20.123   7.477  0.00  0.00    -0.003 C 
ATOM      3  C   LIG    1       30.327 -18.801   8.184  0.00  0.00    +0.121 C 
ATOM      4  C   LIG    1       29.566 -18.768   9.503  0.00  0.00    +0.032 C 
ATOM      5  C   LIG    1       28.223 -19.379   9.130  0.00  0.00    +0.007 C 
ATOM      6  C   LIG    1       28.634 -20.602   8.302  0.00  0.00    +0.001 C 
ATOM      7  C   LIG    1       27.520 -21.348   7.510  0.00  0.00    +0.003 C 
ATOM      8  C   LIG    1       27.254 -20.816   6.068  0.00  0.00    +0.023 C 
ATOM      9  C   LIG    1       25.810 -20.568   5.691  0.00  0.00    -0.041 A 
ATOM     10  C   LIG    1       24.822 -20.412   6.660  0.00  0.00    -0.040 A 
ATOM     11  C   LIG    1       25.189 -20.499   8.118  0.00  0.00    +0.039 C 
ATOM     12  C   LIG    1       23.496 -20.164   6.272  0.00  0.00    +0.049 A 
ATOM     13  C   LIG    1       23.167 -20.120   4.915  0.00  0.00    +0.117 A 
ATOM     14  C   LIG    1       24.133 -20.297   3.944  0.00  0.00    +0.045 A 
ATOM     15  C   LIG    1       25.457 -20.510   4.324  0.00  0.00    +0.008 A 
ATOM     16  C   LIG    1       28.124 -19.604   5.709  0.00  0.00    +0.009 C 
ATOM     17  C   LIG    1       26.242 -21.601   8.375  0.00  0.00    -0.003 C 
ATOM     18  C   LIG    1       29.584 -19.927   5.977  0.00  0.00    +0.010 C 
ENDROOT
BRANCH   3  19
ATOM     19  O   LIG    1       29.958 -17.645   7.434  0.00  0.00    -0.391 OA
ATOM     20  H   LIG    1       30.770 -17.140   7.252  0.00  0.00    +0.210 HD
ENDBRANCH   3  19
BRANCH  13  21
ATOM     21  O   LIG    1       21.859 -19.910   4.590  0.00  0.00    -0.507 OA
ATOM     22  H   LIG    1       21.577 -19.077   5.007  0.00  0.00    +0.292 HD
ENDBRANCH  13  21
BRANCH  17  23
ATOM     23  C   LIG    1       25.621 -23.033   8.239  0.00  0.00    +0.004 C 
BRANCH  23  24
ATOM     24  C   LIG    1       26.036 -23.769   6.947  0.00  0.00    +0.000 C 
BRANCH  24  25
ATOM     25  C   LIG    1       24.900 -24.011   5.934  0.00  0.00    +0.000 C 
BRANCH  25  26
ATOM     26  C   LIG    1       25.162 -25.289   5.109  0.00  0.00    -0.000 C 
BRANCH  26  27
ATOM     27  C   LIG    1       26.219 -26.254   5.686  0.00  0.00    -0.000 C 
BRANCH  27  28
ATOM     28  C   LIG    1       25.835 -27.731   5.561  0.00  0.00    +0.000 C 
BRANCH  28  29
ATOM     29  C   LIG    1       24.392 -28.033   5.993  0.00  0.00    +0.001 C 
BRANCH  29  30
ATOM     30  C   LIG    1       24.051 -29.527   5.882  0.00  0.00    +0.013 C 
BRANCH  30  31
ATOM     31  C   LIG    1       25.276 -30.414   5.669  0.00  0.00    +0.104 C 
BRANCH  31  32
ATOM     32  S   LIG    1       24.866 -32.185   5.737  0.00  0.00    +0.022 S 
ATOM     33  O   LIG    1       26.040 -32.942   5.193  0.00  0.00    -0.257 OA
BRANCH  32  34
ATOM     34  C   LIG    1       24.904 -32.374   7.552  0.00  0.00    +0.104 C 
BRANCH  34  35
ATOM     35  C   LIG    1       25.969 -31.481   8.187  0.00  0.00    +0.019 C 
BRANCH  35  36
ATOM     36  C   LIG    1       25.701 -31.213   9.673  0.00  0.00    +0.086 C 
BRANCH  36  37
ATOM     37  C   LIG    1       25.344 -29.767   9.997  0.00  0.00    +0.342 C 
ATOM     38  F   LIG    1       24.796 -29.764  11.252  0.00  0.00    -0.196 F 
ATOM     39  F   LIG    1       24.328 -29.384   9.169  0.00  0.00    -0.196 F 
BRANCH  37  40
ATOM     40  C   LIG    1       26.514 -28.770   9.934  0.00  0.00    +0.454 C 
ATOM     41  F   LIG    1       27.703 -29.375  10.182  0.00  0.00    -0.165 F 
ATOM     42  F   LIG    1       26.381 -27.784  10.857  0.00  0.00    -0.165 F 
ATOM     43  F   LIG    1       26.634 -28.168   8.728  0.00  0.00    -0.165 F 
ENDBRANCH  37  40
ENDBRANCH  36  37
ENDBRANCH  35  36
ENDBRANCH  34  35
ENDBRANCH  32  34
ENDBRANCH  31  32
ENDBRANCH  30  31
ENDBRANCH  29  30
ENDBRANCH  28  29
ENDBRANCH  27  28
ENDBRANCH  26  27
ENDBRANCH  25  26
ENDBRANCH  24  25
ENDBRANCH  23  24
ENDBRANCH  17  23
TORSDOF 17
ENDMDL
