MODEL 1
REMARK VINA RESULT:       0.5      0.000      0.000
REMARK  Name = *****
REMARK                            x       y       z     vdW  Elec       q    Type
REMARK                         _______ _______ _______ _____ _____    ______ ____
ROOT
ATOM      1  C   LIG    1       22.880 -19.157   2.251  0.00  0.00    +0.015 C 
ATOM      2  C   LIG    1       23.725 -19.439   3.517  0.00  0.00    +0.008 C 
ATOM      3  C   LIG    1       23.392 -20.882   3.985  0.00  0.00    +0.183 C 
ATOM      4  C   LIG    1       22.043 -20.711   4.728  0.00  0.00    +0.045 C 
ATOM      5  C   LIG    1       21.963 -19.232   5.163  0.00  0.00    +0.008 C 
ATOM      6  C   LIG    1       23.331 -18.670   4.799  0.00  0.00    +0.002 C 
ATOM      7  C   LIG    1       23.566 -17.157   4.802  0.00  0.00    -0.003 C 
ATOM      8  C   LIG    1       25.065 -16.890   4.464  0.00  0.00    -0.000 C 
ATOM      9  C   LIG    1       25.377 -15.361   4.497  0.00  0.00    +0.019 C 
ATOM     10  C   LIG    1       24.374 -14.557   3.691  0.00  0.00    -0.063 C 
ATOM     11  C   LIG    1       22.925 -14.846   3.990  0.00  0.00    +0.031 C 
ATOM     12  C   LIG    1       24.722 -13.588   2.828  0.00  0.00    +0.045 C 
ATOM     13  C   LIG    1       26.131 -13.136   2.739  0.00  0.00    +0.156 C 
ATOM     14  O   LIG    1       26.466 -12.352   1.856  0.00  0.00    -0.293 OA
ATOM     15  C   LIG    1       27.066 -13.575   3.840  0.00  0.00    +0.079 C 
ATOM     16  C   LIG    1       26.842 -15.050   4.130  0.00  0.00    +0.016 C 
ATOM     17  C   LIG    1       25.494 -17.629   3.170  0.00  0.00    +0.005 C 
ATOM     18  C   LIG    1       22.610 -16.336   3.927  0.00  0.00    +0.008 C 
ATOM     19  C   LIG    1       25.200 -19.143   3.214  0.00  0.00    +0.011 C 
ENDROOT
BRANCH   3  20
ATOM     20  O   LIG    1       24.404 -21.324   4.912  0.00  0.00    -0.461 OA
BRANCH  20  21
ATOM     21  C   LIG    1       24.140 -21.132   6.230  0.00  0.00    +0.308 C 
ATOM     22  O   LIG    1       23.019 -21.063   6.721  0.00  0.00    -0.251 OA
BRANCH  21  23
ATOM     23  C   LIG    1       25.430 -21.037   7.001  0.00  0.00    +0.125 C 
BRANCH  23  24
ATOM     24  C   LIG    1       26.606 -21.357   6.084  0.00  0.00    +0.046 C 
BRANCH  24  25
ATOM     25  C   LIG    1       27.609 -20.233   6.031  0.00  0.00    -0.047 A 
ATOM     26  C   LIG    1       27.614 -19.341   4.950  0.00  0.00    +0.003 A 
ATOM     27  C   LIG    1       28.544 -18.303   4.895  0.00  0.00    +0.000 A 
ATOM     28  C   LIG    1       29.473 -18.143   5.922  0.00  0.00    +0.000 A 
ATOM     29  C   LIG    1       29.471 -19.020   7.005  0.00  0.00    +0.000 A 
ATOM     30  C   LIG    1       28.541 -20.059   7.061  0.00  0.00    +0.003 A 
ENDBRANCH  24  25
ENDBRANCH  23  24
ENDBRANCH  21  23
ENDBRANCH  20  21
ENDBRANCH   3  20
TORSDOF 5
ENDMDL
MODEL 2
REMARK VINA RESULT:       2.5      1.080      1.687
REMARK  Name = *****
REMARK                            x       y       z     vdW  Elec       q    Type
REMARK                         _______ _______ _______ _____ _____    ______ ____
ROOT
ATOM      1  C   LIG    1       23.225 -17.898   2.078  0.00  0.00    +0.015 C 
ATOM      2  C   LIG    1       23.480 -18.046   3.596  0.00  0.00    +0.008 C 
ATOM      3  C   LIG    1       22.689 -19.292   4.080  0.00  0.00    +0.183 C 
ATOM      4  C   LIG    1       21.238 -18.761   4.213  0.00  0.00    +0.045 C 
ATOM      5  C   LIG    1       21.343 -17.231   4.388  0.00  0.00    +0.008 C 
ATOM      6  C   LIG    1       22.841 -16.980   4.515  0.00  0.00    +0.002 C 
ATOM      7  C   LIG    1       23.392 -15.555   4.413  0.00  0.00    -0.003 C 
ATOM      8  C   LIG    1       24.932 -15.604   4.654  0.00  0.00    -0.000 C 
ATOM      9  C   LIG    1       25.546 -14.169   4.607  0.00  0.00    +0.019 C 
ATOM     10  C   LIG    1       25.102 -13.397   3.379  0.00  0.00    -0.063 C 
ATOM     11  C   LIG    1       23.616 -13.386   3.126  0.00  0.00    +0.031 C 
ATOM     12  C   LIG    1       25.941 -12.694   2.601  0.00  0.00    +0.045 C 
ATOM     13  C   LIG    1       27.353 -12.498   3.009  0.00  0.00    +0.156 C 
ATOM     14  O   LIG    1       28.146 -11.975   2.232  0.00  0.00    -0.293 OA
ATOM     15  C   LIG    1       27.713 -12.846   4.434  0.00  0.00    +0.079 C 
ATOM     16  C   LIG    1       27.076 -14.177   4.802  0.00  0.00    +0.016 C 
ATOM     17  C   LIG    1       25.615 -16.649   3.734  0.00  0.00    +0.005 C 
ATOM     18  C   LIG    1       23.019 -14.788   3.138  0.00  0.00    +0.008 C 
ATOM     19  C   LIG    1       24.993 -18.057   3.856  0.00  0.00    +0.011 C 
ENDROOT
BRANCH   3  20
ATOM     20  O   LIG    1       23.179 -19.690   5.377  0.00  0.00    -0.461 OA
BRANCH  20  21
ATOM     21  C   LIG    1       24.002 -20.769   5.405  0.00  0.00    +0.308 C 
ATOM     22  O   LIG    1       24.150 -21.566   4.485  0.00  0.00    -0.251 OA
BRANCH  21  23
ATOM     23  C   LIG    1       24.721 -20.830   6.727  0.00  0.00    +0.125 C 
BRANCH  23  24
ATOM     24  C   LIG    1       26.044 -21.571   6.563  0.00  0.00    +0.046 C 
BRANCH  24  25
ATOM     25  C   LIG    1       27.203 -20.629   6.360  0.00  0.00    -0.047 A 
ATOM     26  C   LIG    1       28.400 -20.820   7.062  0.00  0.00    +0.003 A 
ATOM     27  C   LIG    1       29.473 -19.948   6.879  0.00  0.00    +0.000 A 
ATOM     28  C   LIG    1       29.361 -18.879   5.990  0.00  0.00    +0.000 A 
ATOM     29  C   LIG    1       28.176 -18.685   5.282  0.00  0.00    +0.000 A 
ATOM     30  C   LIG    1       27.102 -19.559   5.463  0.00  0.00    +0.003 A 
ENDBRANCH  24  25
ENDBRANCH  23  24
ENDBRANCH  21  23
ENDBRANCH  20  21
ENDBRANCH   3  20
TORSDOF 5
ENDMDL
