MODEL 1
REMARK VINA RESULT:      -9.0      0.000      0.000
REMARK  Name = *****
REMARK                            x       y       z     vdW  Elec       q    Type
REMARK                         _______ _______ _______ _____ _____    ______ ____
ROOT
ATOM      1  C   LIG    1       24.527 -22.276   6.294  0.00  0.00    +0.044 C 
ATOM      2  C   LIG    1       26.020 -21.956   6.148  0.00  0.00    +0.006 C 
ATOM      3  C   LIG    1       26.590 -22.133   7.554  0.00  0.00    -0.001 C 
ATOM      4  C   LIG    1       27.858 -21.292   7.584  0.00  0.00    +0.034 C 
ATOM      5  C   LIG    1       27.706 -20.321   6.437  0.00  0.00    -0.073 C 
ATOM      6  C   LIG    1       28.657 -19.482   5.988  0.00  0.00    -0.027 C 
ATOM      7  C   LIG    1       25.495 -21.628   8.489  0.00  0.00    +0.036 C 
ATOM      8  C   LIG    1       26.356 -20.504   5.789  0.00  0.00    +0.035 C 
ATOM      9  C   LIG    1       24.179 -21.926   7.766  0.00  0.00    +0.122 C 
ENDROOT
BRANCH   1  11
ATOM     10  C   LIG    1       25.089 -24.504   5.243  0.00  0.00    +0.000 C 
ATOM     11  C   LIG    1       24.300 -23.751   6.029  0.00  0.00    -0.022 C 
BRANCH  10  12
ATOM     12  C   LIG    1       24.937 -25.981   4.959  0.00  0.00    +0.141 C 
BRANCH  12  13
ATOM     13  C   LIG    1       24.751 -26.824   6.246  0.00  0.00    +0.030 C 
ATOM     14  C   LIG    1       26.023 -26.820   7.115  0.00  0.00    +0.011 C 
BRANCH  13  15
ATOM     15  C   LIG    1       24.292 -28.269   5.950  0.00  0.00    +0.095 C 
BRANCH  15  18
ATOM     16  C   LIG    1       24.064 -30.470   9.429  0.00  0.00    +0.106 C 
ATOM     17  C   LIG    1       24.234 -29.749   8.174  0.00  0.00    -0.106 C 
ATOM     18  C   LIG    1       24.309 -29.109   7.154  0.00  0.00    -0.102 C 
ENDBRANCH  15  18
ENDBRANCH  13  15
ENDBRANCH  12  13
BRANCH  12  19
ATOM     19  O   LIG    1       26.066 -26.443   4.219  0.00  0.00    -0.388 OA
ATOM     20  H   LIG    1       26.105 -25.941   3.391  0.00  0.00    +0.210 HD
ENDBRANCH  12  19
ENDBRANCH  10  12
ENDBRANCH   1  11
BRANCH   9  21
ATOM     21  O   LIG    1       23.325 -20.788   7.828  0.00  0.00    -0.391 OA
ATOM     22  H   LIG    1       23.496 -20.332   8.669  0.00  0.00    +0.210 HD
ENDBRANCH   9  21
BRANCH   6  23
ATOM     23  C   LIG    1       30.034 -19.310   6.572  0.00  0.00    +0.028 C 
BRANCH  23  24
ATOM     24  C   LIG    1       30.082 -18.428   7.828  0.00  0.00    +0.015 C 
BRANCH  24  25
ATOM     25  C   LIG    1       31.062 -18.852   8.922  0.00  0.00    +0.121 C 
BRANCH  25  26
ATOM     26  C   LIG    1       32.009 -17.774   9.390  0.00  0.00    +0.305 C 
ATOM     27  O   LIG    1       32.457 -17.698  10.524  0.00  0.00    -0.251 OA
BRANCH  26  28
ATOM     28  O   LIG    1       32.387 -16.921   8.412  0.00  0.00    -0.481 OA
ATOM     29  H   LIG    1       31.782 -16.897   7.649  0.00  0.00    +0.295 HD
ENDBRANCH  26  28
ENDBRANCH  25  26
ENDBRANCH  24  25
ENDBRANCH  23  24
ENDBRANCH   6  23
TORSDOF 12
ENDMDL
MODEL 2
REMARK VINA RESULT:      -8.9      2.144      2.353
REMARK  Name = *****
REMARK                            x       y       z     vdW  Elec       q    Type
REMARK                         _______ _______ _______ _____ _____    ______ ____
ROOT
ATOM      1  C   LIG    1       24.070 -22.341   5.926  0.00  0.00    +0.044 C 
ATOM      2  C   LIG    1       25.520 -21.974   6.263  0.00  0.00    +0.006 C 
ATOM      3  C   LIG    1       25.454 -21.403   7.678  0.00  0.00    -0.001 C 
ATOM      4  C   LIG    1       26.686 -20.521   7.816  0.00  0.00    +0.034 C 
ATOM      5  C   LIG    1       27.115 -20.231   6.397  0.00  0.00    -0.073 C 
ATOM      6  C   LIG    1       28.253 -19.612   6.032  0.00  0.00    -0.027 C 
ATOM      7  C   LIG    1       24.137 -20.633   7.730  0.00  0.00    +0.036 C 
ATOM      8  C   LIG    1       26.129 -20.840   5.431  0.00  0.00    +0.035 C 
ATOM      9  C   LIG    1       23.199 -21.374   6.773  0.00  0.00    +0.122 C 
ENDROOT
BRANCH   1  11
ATOM     10  C   LIG    1       24.643 -24.798   6.055  0.00  0.00    +0.000 C 
ATOM     11  C   LIG    1       23.809 -23.780   6.325  0.00  0.00    -0.022 C 
BRANCH  10  12
ATOM     12  C   LIG    1       24.458 -26.247   6.445  0.00  0.00    +0.141 C 
BRANCH  12  13
ATOM     13  C   LIG    1       25.802 -26.997   6.625  0.00  0.00    +0.030 C 
ATOM     14  C   LIG    1       26.581 -27.090   5.300  0.00  0.00    +0.011 C 
BRANCH  13  15
ATOM     15  C   LIG    1       25.624 -28.394   7.258  0.00  0.00    +0.095 C 
BRANCH  15  18
ATOM     16  C   LIG    1       27.252 -28.428  11.045  0.00  0.00    +0.106 C 
ATOM     17  C   LIG    1       26.580 -28.441   9.752  0.00  0.00    -0.106 C 
ATOM     18  C   LIG    1       26.097 -28.435   8.647  0.00  0.00    -0.102 C 
ENDBRANCH  15  18
ENDBRANCH  13  15
ENDBRANCH  12  13
BRANCH  12  19
ATOM     19  O   LIG    1       23.647 -26.903   5.472  0.00  0.00    -0.388 OA
ATOM     20  H   LIG    1       24.144 -27.662   5.132  0.00  0.00    +0.210 HD
ENDBRANCH  12  19
ENDBRANCH  10  12
ENDBRANCH   1  11
BRANCH   9  21
ATOM     21  O   LIG    1       22.523 -20.438   5.939  0.00  0.00    -0.391 OA
ATOM     22  H   LIG    1       21.858 -20.924   5.424  0.00  0.00    +0.210 HD
ENDBRANCH   9  21
BRANCH   6  23
ATOM     23  C   LIG    1       29.288 -19.041   6.965  0.00  0.00    +0.028 C 
BRANCH  23  24
ATOM     24  C   LIG    1       30.473 -19.977   7.242  0.00  0.00    +0.015 C 
BRANCH  24  25
ATOM     25  C   LIG    1       30.220 -21.125   8.220  0.00  0.00    +0.121 C 
BRANCH  25  26
ATOM     26  C   LIG    1       31.451 -21.676   8.897  0.00  0.00    +0.305 C 
ATOM     27  O   LIG    1       32.315 -20.987   9.416  0.00  0.00    -0.251 OA
BRANCH  26  28
ATOM     28  O   LIG    1       31.484 -23.026   8.948  0.00  0.00    -0.481 OA
ATOM     29  H   LIG    1       31.552 -23.456   8.077  0.00  0.00    +0.295 HD
ENDBRANCH  26  28
ENDBRANCH  25  26
ENDBRANCH  24  25
ENDBRANCH  23  24
ENDBRANCH   6  23
TORSDOF 12
ENDMDL
MODEL 3
REMARK VINA RESULT:      -8.6      2.251      9.528
REMARK  Name = *****
REMARK                            x       y       z     vdW  Elec       q    Type
REMARK                         _______ _______ _______ _____ _____    ______ ____
ROOT
ATOM      1  C   LIG    1       25.802 -21.196   7.169  0.00  0.00    +0.044 C 
ATOM      2  C   LIG    1       25.939 -22.584   6.532  0.00  0.00    +0.006 C 
ATOM      3  C   LIG    1       24.984 -22.556   5.340  0.00  0.00    -0.001 C 
ATOM      4  C   LIG    1       24.649 -24.013   5.056  0.00  0.00    +0.034 C 
ATOM      5  C   LIG    1       24.995 -24.745   6.332  0.00  0.00    -0.073 C 
ATOM      6  C   LIG    1       25.005 -26.081   6.492  0.00  0.00    -0.027 C 
ATOM      7  C   LIG    1       23.790 -21.730   5.812  0.00  0.00    +0.036 C 
ATOM      8  C   LIG    1       25.440 -23.757   7.383  0.00  0.00    +0.035 C 
ATOM      9  C   LIG    1       24.366 -20.726   6.813  0.00  0.00    +0.122 C 
ENDROOT
BRANCH   1  11
ATOM     10  C   LIG    1       28.160 -20.459   6.642  0.00  0.00    +0.000 C 
ATOM     11  C   LIG    1       26.833 -20.262   6.568  0.00  0.00    -0.022 C 
BRANCH  10  12
ATOM     12  C   LIG    1       29.239 -19.585   6.043  0.00  0.00    +0.141 C 
BRANCH  12  13
ATOM     13  C   LIG    1       30.027 -18.787   7.113  0.00  0.00    +0.030 C 
ATOM     14  C   LIG    1       31.502 -19.225   7.174  0.00  0.00    +0.011 C 
BRANCH  13  15
ATOM     15  C   LIG    1       29.374 -18.860   8.510  0.00  0.00    +0.095 C 
BRANCH  15  18
ATOM     16  C   LIG    1       31.203 -16.470  11.329  0.00  0.00    +0.106 C 
ATOM     17  C   LIG    1       30.524 -17.224  10.282  0.00  0.00    -0.106 C 
ATOM     18  C   LIG    1       29.986 -17.916   9.454  0.00  0.00    -0.102 C 
ENDBRANCH  15  18
ENDBRANCH  13  15
ENDBRANCH  12  13
BRANCH  12  19
ATOM     19  O   LIG    1       28.658 -18.700   5.087  0.00  0.00    -0.388 OA
ATOM     20  H   LIG    1       28.889 -17.793   5.341  0.00  0.00    +0.210 HD
ENDBRANCH  12  19
ENDBRANCH  10  12
ENDBRANCH   1  11
BRANCH   9  21
ATOM     21  O   LIG    1       23.544 -20.679   7.976  0.00  0.00    -0.391 OA
ATOM     22  H   LIG    1       24.049 -20.239   8.680  0.00  0.00    +0.210 HD
ENDBRANCH   9  21
BRANCH   6  23
ATOM     23  C   LIG    1       24.622 -27.100   5.451  0.00  0.00    +0.028 C 
BRANCH  23  24
ATOM     24  C   LIG    1       25.295 -28.469   5.630  0.00  0.00    +0.015 C 
BRANCH  24  25
ATOM     25  C   LIG    1       25.028 -29.192   6.950  0.00  0.00    +0.121 C 
BRANCH  25  26
ATOM     26  C   LIG    1       23.949 -30.246   6.899  0.00  0.00    +0.305 C 
ATOM     27  O   LIG    1       23.579 -30.897   7.864  0.00  0.00    -0.251 OA
BRANCH  26  28
ATOM     28  O   LIG    1       23.361 -30.362   5.687  0.00  0.00    -0.481 OA
ATOM     29  H   LIG    1       22.415 -30.590   5.725  0.00  0.00    +0.295 HD
ENDBRANCH  26  28
ENDBRANCH  25  26
ENDBRANCH  24  25
ENDBRANCH  23  24
ENDBRANCH   6  23
TORSDOF 12
ENDMDL
MODEL 4
REMARK VINA RESULT:      -8.3      4.235      6.214
REMARK  Name = *****
REMARK                            x       y       z     vdW  Elec       q    Type
REMARK                         _______ _______ _______ _____ _____    ______ ____
ROOT
ATOM      1  C   LIG    1       26.066 -26.595   6.606  0.00  0.00    +0.044 C 
ATOM      2  C   LIG    1       25.331 -25.369   7.162  0.00  0.00    +0.006 C 
ATOM      3  C   LIG    1       23.947 -25.427   6.519  0.00  0.00    -0.001 C 
ATOM      4  C   LIG    1       23.423 -23.998   6.559  0.00  0.00    +0.034 C 
ATOM      5  C   LIG    1       24.653 -23.141   6.745  0.00  0.00    -0.073 C 
ATOM      6  C   LIG    1       24.658 -21.817   6.988  0.00  0.00    -0.027 C 
ATOM      7  C   LIG    1       24.191 -25.954   5.108  0.00  0.00    +0.036 C 
ATOM      8  C   LIG    1       25.888 -24.009   6.730  0.00  0.00    +0.035 C 
ATOM      9  C   LIG    1       25.413 -26.868   5.224  0.00  0.00    +0.122 C 
ENDROOT
BRANCH   1  11
ATOM     10  C   LIG    1       26.559 -27.975   8.664  0.00  0.00    +0.000 C 
ATOM     11  C   LIG    1       25.856 -27.773   7.536  0.00  0.00    -0.022 C 
BRANCH  10  12
ATOM     12  C   LIG    1       26.384 -29.110   9.648  0.00  0.00    +0.141 C 
BRANCH  12  13
ATOM     13  C   LIG    1       26.226 -28.618  11.109  0.00  0.00    +0.030 C 
ATOM     14  C   LIG    1       27.558 -28.692  11.878  0.00  0.00    +0.011 C 
BRANCH  13  15
ATOM     15  C   LIG    1       25.109 -29.365  11.871  0.00  0.00    +0.095 C 
BRANCH  15  18
ATOM     16  C   LIG    1       22.585 -26.558  13.529  0.00  0.00    +0.106 C 
ATOM     17  C   LIG    1       23.456 -27.615  13.029  0.00  0.00    -0.106 C 
ATOM     18  C   LIG    1       24.194 -28.440  12.551  0.00  0.00    -0.102 C 
ENDBRANCH  15  18
ENDBRANCH  13  15
ENDBRANCH  12  13
BRANCH  12  19
ATOM     19  O   LIG    1       27.486 -30.009   9.539  0.00  0.00    -0.388 OA
ATOM     20  H   LIG    1       28.159 -29.734  10.180  0.00  0.00    +0.210 HD
ENDBRANCH  12  19
ENDBRANCH  10  12
ENDBRANCH   1  11
BRANCH   9  21
ATOM     21  O   LIG    1       26.326 -26.590   4.168  0.00  0.00    -0.391 OA
ATOM     22  H   LIG    1       26.453 -27.409   3.660  0.00  0.00    +0.210 HD
ENDBRANCH   9  21
BRANCH   6  23
ATOM     23  C   LIG    1       23.445 -20.928   7.066  0.00  0.00    +0.028 C 
BRANCH  23  24
ATOM     24  C   LIG    1       23.119 -20.187   5.761  0.00  0.00    +0.015 C 
BRANCH  24  25
ATOM     25  C   LIG    1       23.834 -20.680   4.502  0.00  0.00    +0.121 C 
BRANCH  25  26
ATOM     26  C   LIG    1       24.925 -19.773   3.987  0.00  0.00    +0.305 C 
ATOM     27  O   LIG    1       24.727 -18.673   3.493  0.00  0.00    -0.251 OA
BRANCH  26  28
ATOM     28  O   LIG    1       26.172 -20.256   4.185  0.00  0.00    -0.481 OA
ATOM     29  H   LIG    1       26.748 -20.203   3.403  0.00  0.00    +0.295 HD
ENDBRANCH  26  28
ENDBRANCH  25  26
ENDBRANCH  24  25
ENDBRANCH  23  24
ENDBRANCH   6  23
TORSDOF 12
ENDMDL
MODEL 5
REMARK VINA RESULT:      -8.3      4.150      5.980
REMARK  Name = *****
REMARK                            x       y       z     vdW  Elec       q    Type
REMARK                         _______ _______ _______ _____ _____    ______ ____
ROOT
ATOM      1  C   LIG    1       26.090 -26.563   6.584  0.00  0.00    +0.044 C 
ATOM      2  C   LIG    1       25.380 -25.329   7.154  0.00  0.00    +0.006 C 
ATOM      3  C   LIG    1       23.973 -25.387   6.562  0.00  0.00    -0.001 C 
ATOM      4  C   LIG    1       23.456 -23.956   6.607  0.00  0.00    +0.034 C 
ATOM      5  C   LIG    1       24.695 -23.102   6.741  0.00  0.00    -0.073 C 
ATOM      6  C   LIG    1       24.712 -21.776   6.971  0.00  0.00    -0.027 C 
ATOM      7  C   LIG    1       24.164 -25.928   5.148  0.00  0.00    +0.036 C 
ATOM      8  C   LIG    1       25.925 -23.974   6.689  0.00  0.00    +0.035 C 
ATOM      9  C   LIG    1       25.386 -26.846   5.229  0.00  0.00    +0.122 C 
ENDROOT
BRANCH   1  11
ATOM     10  C   LIG    1       25.121 -28.789   7.279  0.00  0.00    +0.000 C 
ATOM     11  C   LIG    1       25.910 -27.731   7.532  0.00  0.00    -0.022 C 
BRANCH  10  12
ATOM     12  C   LIG    1       24.918 -29.997   8.165  0.00  0.00    +0.141 C 
BRANCH  12  13
ATOM     13  C   LIG    1       26.078 -31.019   8.064  0.00  0.00    +0.030 C 
ATOM     14  C   LIG    1       25.616 -32.339   7.419  0.00  0.00    +0.011 C 
BRANCH  13  15
ATOM     15  C   LIG    1       26.762 -31.281   9.424  0.00  0.00    +0.095 C 
BRANCH  15  18
ATOM     16  C   LIG    1       26.987 -27.745  11.532  0.00  0.00    +0.106 C 
ATOM     17  C   LIG    1       27.014 -29.008  10.805  0.00  0.00    -0.106 C 
ATOM     18  C   LIG    1       26.957 -30.043  10.189  0.00  0.00    -0.102 C 
ENDBRANCH  15  18
ENDBRANCH  13  15
ENDBRANCH  12  13
BRANCH  12  19
ATOM     19  O   LIG    1       23.675 -30.620   7.844  0.00  0.00    -0.388 OA
ATOM     20  H   LIG    1       23.550 -31.367   8.448  0.00  0.00    +0.210 HD
ENDBRANCH  12  19
ENDBRANCH  10  12
ENDBRANCH   1  11
BRANCH   9  21
ATOM     21  O   LIG    1       26.262 -26.581   4.137  0.00  0.00    -0.391 OA
ATOM     22  H   LIG    1       26.446 -27.424   3.691  0.00  0.00    +0.210 HD
ENDBRANCH   9  21
BRANCH   6  23
ATOM     23  C   LIG    1       23.506 -20.881   7.085  0.00  0.00    +0.028 C 
BRANCH  23  24
ATOM     24  C   LIG    1       23.096 -20.204   5.769  0.00  0.00    +0.015 C 
BRANCH  24  25
ATOM     25  C   LIG    1       23.820 -20.674   4.507  0.00  0.00    +0.121 C 
BRANCH  25  26
ATOM     26  C   LIG    1       24.873 -19.729   3.981  0.00  0.00    +0.305 C 
ATOM     27  O   LIG    1       24.632 -18.637   3.489  0.00  0.00    -0.251 OA
BRANCH  26  28
ATOM     28  O   LIG    1       26.138 -20.167   4.168  0.00  0.00    -0.481 OA
ATOM     29  H   LIG    1       26.454 -20.776   3.477  0.00  0.00    +0.295 HD
ENDBRANCH  26  28
ENDBRANCH  25  26
ENDBRANCH  24  25
ENDBRANCH  23  24
ENDBRANCH   6  23
TORSDOF 12
ENDMDL
MODEL 6
REMARK VINA RESULT:      -8.1      4.082      6.111
REMARK  Name = *****
REMARK                            x       y       z     vdW  Elec       q    Type
REMARK                         _______ _______ _______ _____ _____    ______ ____
ROOT
ATOM      1  C   LIG    1       26.063 -26.698   6.629  0.00  0.00    +0.044 C 
ATOM      2  C   LIG    1       25.339 -25.467   7.187  0.00  0.00    +0.006 C 
ATOM      3  C   LIG    1       23.979 -25.473   6.492  0.00  0.00    -0.001 C 
ATOM      4  C   LIG    1       23.491 -24.032   6.548  0.00  0.00    +0.034 C 
ATOM      5  C   LIG    1       24.734 -23.212   6.800  0.00  0.00    -0.073 C 
ATOM      6  C   LIG    1       24.763 -21.895   7.075  0.00  0.00    -0.027 C 
ATOM      7  C   LIG    1       24.262 -25.973   5.079  0.00  0.00    +0.036 C 
ATOM      8  C   LIG    1       25.946 -24.111   6.809  0.00  0.00    +0.035 C 
ATOM      9  C   LIG    1       25.455 -26.922   5.218  0.00  0.00    +0.122 C 
ENDROOT
BRANCH   1  11
ATOM     10  C   LIG    1       25.022 -28.936   7.166  0.00  0.00    +0.000 C 
ATOM     11  C   LIG    1       25.789 -27.891   7.522  0.00  0.00    -0.022 C 
BRANCH  10  12
ATOM     12  C   LIG    1       24.730 -30.167   7.994  0.00  0.00    +0.141 C 
BRANCH  12  13
ATOM     13  C   LIG    1       24.731 -31.469   7.155  0.00  0.00    +0.030 C 
ATOM     14  C   LIG    1       24.228 -32.672   7.974  0.00  0.00    +0.011 C 
BRANCH  13  15
ATOM     15  C   LIG    1       26.108 -31.770   6.525  0.00  0.00    +0.095 C 
BRANCH  15  18
ATOM     16  C   LIG    1       26.043 -32.872   2.552  0.00  0.00    +0.106 C 
ATOM     17  C   LIG    1       25.990 -32.408   3.933  0.00  0.00    -0.106 C 
ATOM     18  C   LIG    1       26.003 -32.079   5.093  0.00  0.00    -0.102 C 
ENDBRANCH  15  18
ENDBRANCH  13  15
ENDBRANCH  12  13
BRANCH  12  19
ATOM     19  O   LIG    1       23.480 -30.005   8.664  0.00  0.00    -0.388 OA
ATOM     20  H   LIG    1       23.238 -30.859   9.052  0.00  0.00    +0.210 HD
ENDBRANCH  12  19
ENDBRANCH  10  12
ENDBRANCH   1  11
BRANCH   9  21
ATOM     21  O   LIG    1       26.414 -26.643   4.202  0.00  0.00    -0.391 OA
ATOM     22  H   LIG    1       26.242 -27.242   3.457  0.00  0.00    +0.210 HD
ENDBRANCH   9  21
BRANCH   6  23
ATOM     23  C   LIG    1       23.571 -20.976   7.130  0.00  0.00    +0.028 C 
BRANCH  23  24
ATOM     24  C   LIG    1       23.251 -20.275   5.801  0.00  0.00    +0.015 C 
BRANCH  24  25
ATOM     25  C   LIG    1       24.017 -20.765   4.572  0.00  0.00    +0.121 C 
BRANCH  25  26
ATOM     26  C   LIG    1       25.082 -19.826   4.062  0.00  0.00    +0.305 C 
ATOM     27  O   LIG    1       24.851 -18.759   3.513  0.00  0.00    -0.251 OA
BRANCH  26  28
ATOM     28  O   LIG    1       26.342 -20.235   4.332  0.00  0.00    -0.481 OA
ATOM     29  H   LIG    1       26.391 -21.076   4.821  0.00  0.00    +0.295 HD
ENDBRANCH  26  28
ENDBRANCH  25  26
ENDBRANCH  24  25
ENDBRANCH  23  24
ENDBRANCH   6  23
TORSDOF 12
ENDMDL
MODEL 7
REMARK VINA RESULT:      -7.9      3.610      5.256
REMARK  Name = *****
REMARK                            x       y       z     vdW  Elec       q    Type
REMARK                         _______ _______ _______ _____ _____    ______ ____
ROOT
ATOM      1  C   LIG    1       24.992 -22.772   7.316  0.00  0.00    +0.044 C 
ATOM      2  C   LIG    1       24.325 -21.979   6.186  0.00  0.00    +0.006 C 
ATOM      3  C   LIG    1       25.430 -21.070   5.650  0.00  0.00    -0.001 C 
ATOM      4  C   LIG    1       24.709 -19.908   4.981  0.00  0.00    +0.034 C 
ATOM      5  C   LIG    1       23.316 -19.930   5.567  0.00  0.00    -0.073 C 
ATOM      6  C   LIG    1       22.280 -19.175   5.155  0.00  0.00    -0.027 C 
ATOM      7  C   LIG    1       26.238 -20.667   6.880  0.00  0.00    +0.036 C 
ATOM      8  C   LIG    1       23.220 -21.009   6.618  0.00  0.00    +0.035 C 
ATOM      9  C   LIG    1       26.129 -21.853   7.841  0.00  0.00    +0.122 C 
ENDROOT
BRANCH   1  11
ATOM     10  C   LIG    1       24.817 -25.052   6.244  0.00  0.00    +0.000 C 
ATOM     11  C   LIG    1       25.563 -24.060   6.758  0.00  0.00    -0.022 C 
BRANCH  10  12
ATOM     12  C   LIG    1       25.322 -26.347   5.649  0.00  0.00    +0.141 C 
BRANCH  12  13
ATOM     13  C   LIG    1       24.681 -27.598   6.301  0.00  0.00    +0.030 C 
ATOM     14  C   LIG    1       25.550 -28.149   7.447  0.00  0.00    +0.011 C 
BRANCH  13  15
ATOM     15  C   LIG    1       24.360 -28.706   5.273  0.00  0.00    +0.095 C 
BRANCH  15  18
ATOM     16  C   LIG    1       26.448 -32.239   5.664  0.00  0.00    +0.106 C 
ATOM     17  C   LIG    1       25.747 -30.962   5.625  0.00  0.00    -0.106 C 
ATOM     18  C   LIG    1       25.138 -29.926   5.519  0.00  0.00    -0.102 C 
ENDBRANCH  15  18
ENDBRANCH  13  15
ENDBRANCH  12  13
BRANCH  12  19
ATOM     19  O   LIG    1       26.744 -26.400   5.759  0.00  0.00    -0.388 OA
ATOM     20  H   LIG    1       27.005 -27.332   5.807  0.00  0.00    +0.210 HD
ENDBRANCH  12  19
ENDBRANCH  10  12
ENDBRANCH   1  11
BRANCH   9  21
ATOM     21  O   LIG    1       25.837 -21.385   9.154  0.00  0.00    -0.391 OA
ATOM     22  H   LIG    1       26.096 -22.079   9.783  0.00  0.00    +0.210 HD
ENDBRANCH   9  21
BRANCH   6  23
ATOM     23  C   LIG    1       22.322 -18.129   4.073  0.00  0.00    +0.028 C 
BRANCH  23  24
ATOM     24  C   LIG    1       23.384 -17.040   4.288  0.00  0.00    +0.015 C 
BRANCH  24  25
ATOM     25  C   LIG    1       22.865 -15.623   4.531  0.00  0.00    +0.121 C 
BRANCH  25  26
ATOM     26  C   LIG    1       23.803 -14.515   4.119  0.00  0.00    +0.305 C 
ATOM     27  O   LIG    1       24.926 -14.362   4.574  0.00  0.00    -0.251 OA
BRANCH  26  28
ATOM     28  O   LIG    1       23.317 -13.731   3.130  0.00  0.00    -0.481 OA
ATOM     29  H   LIG    1       23.058 -12.839   3.421  0.00  0.00    +0.295 HD
ENDBRANCH  26  28
ENDBRANCH  25  26
ENDBRANCH  24  25
ENDBRANCH  23  24
ENDBRANCH   6  23
TORSDOF 12
ENDMDL
MODEL 8
REMARK VINA RESULT:      -7.7      3.413      4.225
REMARK  Name = *****
REMARK                            x       y       z     vdW  Elec       q    Type
REMARK                         _______ _______ _______ _____ _____    ______ ____
ROOT
ATOM      1  C   LIG    1       24.424 -22.844   6.145  0.00  0.00    +0.044 C 
ATOM      2  C   LIG    1       25.132 -21.870   5.195  0.00  0.00    +0.006 C 
ATOM      3  C   LIG    1       26.114 -21.110   6.085  0.00  0.00    -0.001 C 
ATOM      4  C   LIG    1       26.387 -19.801   5.359  0.00  0.00    +0.034 C 
ATOM      5  C   LIG    1       25.235 -19.645   4.395  0.00  0.00    -0.073 C 
ATOM      6  C   LIG    1       25.136 -18.707   3.436  0.00  0.00    -0.027 C 
ATOM      7  C   LIG    1       25.385 -20.936   7.415  0.00  0.00    +0.036 C 
ATOM      8  C   LIG    1       24.251 -20.773   4.589  0.00  0.00    +0.035 C 
ATOM      9  C   LIG    1       24.474 -22.160   7.538  0.00  0.00    +0.122 C 
ENDROOT
BRANCH   1  11
ATOM     10  C   LIG    1       24.676 -25.319   5.708  0.00  0.00    +0.000 C 
ATOM     11  C   LIG    1       25.175 -24.160   6.170  0.00  0.00    -0.022 C 
BRANCH  10  12
ATOM     12  C   LIG    1       25.379 -26.657   5.678  0.00  0.00    +0.141 C 
BRANCH  12  13
ATOM     13  C   LIG    1       25.015 -27.553   6.888  0.00  0.00    +0.030 C 
ATOM     14  C   LIG    1       26.219 -27.753   7.828  0.00  0.00    +0.011 C 
BRANCH  13  15
ATOM     15  C   LIG    1       24.419 -28.913   6.464  0.00  0.00    +0.095 C 
BRANCH  15  18
ATOM     16  C   LIG    1       23.713 -31.541   9.562  0.00  0.00    +0.106 C 
ATOM     17  C   LIG    1       24.065 -30.602   8.503  0.00  0.00    -0.106 C 
ATOM     18  C   LIG    1       24.279 -29.832   7.601  0.00  0.00    -0.102 C 
ENDBRANCH  15  18
ENDBRANCH  13  15
ENDBRANCH  12  13
BRANCH  12  19
ATOM     19  O   LIG    1       26.790 -26.453   5.614  0.00  0.00    -0.388 OA
ATOM     20  H   LIG    1       27.214 -27.322   5.553  0.00  0.00    +0.210 HD
ENDBRANCH  12  19
ENDBRANCH  10  12
ENDBRANCH   1  11
BRANCH   9  21
ATOM     21  O   LIG    1       23.173 -21.754   7.950  0.00  0.00    -0.391 OA
ATOM     22  H   LIG    1       22.847 -21.101   7.309  0.00  0.00    +0.210 HD
ENDBRANCH   9  21
BRANCH   6  23
ATOM     23  C   LIG    1       26.123 -17.601   3.174  0.00  0.00    +0.028 C 
BRANCH  23  24
ATOM     24  C   LIG    1       25.573 -16.189   3.428  0.00  0.00    +0.015 C 
BRANCH  24  25
ATOM     25  C   LIG    1       26.587 -15.134   3.871  0.00  0.00    +0.121 C 
BRANCH  25  26
ATOM     26  C   LIG    1       27.063 -14.204   2.781  0.00  0.00    +0.305 C 
ATOM     27  O   LIG    1       26.440 -13.972   1.756  0.00  0.00    -0.251 OA
BRANCH  26  28
ATOM     28  O   LIG    1       28.226 -13.579   3.070  0.00  0.00    -0.481 OA
ATOM     29  H   LIG    1       28.132 -12.825   3.680  0.00  0.00    +0.295 HD
ENDBRANCH  26  28
ENDBRANCH  25  26
ENDBRANCH  24  25
ENDBRANCH  23  24
ENDBRANCH   6  23
TORSDOF 12
ENDMDL
MODEL 9
REMARK VINA RESULT:      -7.7      4.622     10.577
REMARK  Name = *****
REMARK                            x       y       z     vdW  Elec       q    Type
REMARK                         _______ _______ _______ _____ _____    ______ ____
ROOT
ATOM      1  C   LIG    1       25.131 -27.013   5.365  0.00  0.00    +0.044 C 
ATOM      2  C   LIG    1       24.494 -28.257   5.996  0.00  0.00    +0.006 C 
ATOM      3  C   LIG    1       24.928 -28.211   7.460  0.00  0.00    -0.001 C 
ATOM      4  C   LIG    1       24.834 -29.647   7.955  0.00  0.00    +0.034 C 
ATOM      5  C   LIG    1       24.842 -30.489   6.700  0.00  0.00    -0.073 C 
ATOM      6  C   LIG    1       24.623 -31.816   6.644  0.00  0.00    -0.027 C 
ATOM      7  C   LIG    1       26.351 -27.662   7.431  0.00  0.00    +0.036 C 
ATOM      8  C   LIG    1       25.023 -29.604   5.492  0.00  0.00    +0.035 C 
ATOM      9  C   LIG    1       26.399 -26.731   6.217  0.00  0.00    +0.122 C 
ENDROOT
BRANCH   1  11
ATOM     10  C   LIG    1       24.476 -24.648   5.962  0.00  0.00    +0.000 C 
ATOM     11  C   LIG    1       24.163 -25.851   5.452  0.00  0.00    -0.022 C 
BRANCH  10  12
ATOM     12  C   LIG    1       23.570 -23.441   6.054  0.00  0.00    +0.141 C 
BRANCH  12  13
ATOM     13  C   LIG    1       24.271 -22.210   6.681  0.00  0.00    +0.030 C 
ATOM     14  C   LIG    1       25.216 -22.618   7.826  0.00  0.00    +0.011 C 
BRANCH  13  15
ATOM     15  C   LIG    1       23.271 -21.131   7.152  0.00  0.00    +0.095 C 
BRANCH  15  18
ATOM     16  C   LIG    1       22.170 -18.410   4.257  0.00  0.00    +0.106 C 
ATOM     17  C   LIG    1       22.531 -19.451   5.211  0.00  0.00    -0.106 C 
ATOM     18  C   LIG    1       22.851 -20.254   6.053  0.00  0.00    -0.102 C 
ENDBRANCH  15  18
ENDBRANCH  13  15
ENDBRANCH  12  13
BRANCH  12  19
ATOM     19  O   LIG    1       22.399 -23.780   6.795  0.00  0.00    -0.388 OA
ATOM     20  H   LIG    1       22.649 -24.434   7.465  0.00  0.00    +0.210 HD
ENDBRANCH  12  19
ENDBRANCH  10  12
ENDBRANCH   1  11
BRANCH   9  21
ATOM     21  O   LIG    1       27.582 -26.982   5.464  0.00  0.00    -0.391 OA
ATOM     22  H   LIG    1       27.751 -27.938   5.483  0.00  0.00    +0.210 HD
ENDBRANCH   9  21
BRANCH   6  23
ATOM     23  C   LIG    1       24.382 -32.724   7.821  0.00  0.00    +0.028 C 
BRANCH  23  24
ATOM     24  C   LIG    1       22.901 -33.014   8.103  0.00  0.00    +0.015 C 
BRANCH  24  25
ATOM     25  C   LIG    1       22.478 -33.029   9.572  0.00  0.00    +0.121 C 
BRANCH  25  26
ATOM     26  C   LIG    1       21.517 -31.936   9.975  0.00  0.00    +0.305 C 
ATOM     27  O   LIG    1       20.409 -32.136  10.448  0.00  0.00    -0.251 OA
BRANCH  26  28
ATOM     28  O   LIG    1       22.022 -30.690   9.836  0.00  0.00    -0.481 OA
ATOM     29  H   LIG    1       22.057 -30.180  10.664  0.00  0.00    +0.295 HD
ENDBRANCH  26  28
ENDBRANCH  25  26
ENDBRANCH  24  25
ENDBRANCH  23  24
ENDBRANCH   6  23
TORSDOF 12
ENDMDL
