MODEL 1
REMARK VINA RESULT:      10.2      0.000      0.000
REMARK  Name = *****
REMARK                            x       y       z     vdW  Elec       q    Type
REMARK                         _______ _______ _______ _____ _____    ______ ____
ROOT
ATOM      1  C   LIG    1       22.804 -17.259   4.438  0.00  0.00    +0.060 C 
ATOM      2  C   LIG    1       24.053 -16.887   3.800  0.00  0.00    -0.013 C 
ATOM      3  C   LIG    1       24.976 -17.772   3.027  0.00  0.00    +0.046 C 
ATOM      4  C   LIG    1       24.232 -15.520   3.983  0.00  0.00    +0.044 C 
ATOM      5  N   LIG    1       23.120 -15.061   4.632  0.00  0.00    -0.358 NA
ATOM      6  H   LIG    1       22.922 -14.085   4.818  0.00  0.00    +0.166 HD
ATOM      7  C   LIG    1       22.234 -16.070   4.887  0.00  0.00    +0.026 C 
ATOM      8  C   LIG    1       20.941 -15.719   5.534  0.00  0.00    +0.064 C 
ENDROOT
BRANCH   4   9
ATOM      9  C   LIG    1       25.299 -14.631   3.676  0.00  0.00    +0.039 C 
ATOM     10  C   LIG    1       26.100 -13.997   4.549  0.00  0.00    +0.048 C 
ATOM     11  C   LIG    1       27.232 -13.135   4.164  0.00  0.00    +0.011 C 
ATOM     12  C   LIG    1       27.793 -12.663   5.358  0.00  0.00    +0.042 C 
ATOM     13  C   LIG    1       28.900 -11.840   5.395  0.00  0.00    +0.027 C 
ATOM     14  C   LIG    1       29.463 -11.478   4.172  0.00  0.00    +0.040 C 
ATOM     15  C   LIG    1       28.907 -11.947   2.971  0.00  0.00    +0.124 C 
ATOM     16  F   LIG    1       29.474 -11.586   1.812  0.00  0.00    -0.205 F 
ATOM     17  N   LIG    1       27.098 -13.157   6.453  0.00  0.00    -0.281 N 
ATOM     18  H   LIG    1       27.314 -12.982   7.422  0.00  0.00    +0.155 HD
ATOM     19  C   LIG    1       27.789 -12.781   2.949  0.00  0.00    +0.049 C 
ATOM     20  C   LIG    1       26.065 -13.993   6.068  0.00  0.00    +0.249 C 
ATOM     21  O   LIG    1       25.345 -14.611   6.814  0.00  0.00    -0.270 OA
ENDBRANCH   4   9
BRANCH   1  24
ATOM     22  N   LIG    1       23.029 -19.494   5.255  0.00  0.00    -0.310 N 
ATOM     23  H   LIG    1       23.840 -19.133   5.736  0.00  0.00    +0.149 HD
ATOM     24  C   LIG    1       22.227 -18.604   4.579  0.00  0.00    +0.246 C 
ATOM     25  O   LIG    1       21.118 -18.902   4.148  0.00  0.00    -0.270 OA
BRANCH  22  26
ATOM     26  C   LIG    1       22.659 -20.871   5.495  0.00  0.00    +0.120 C 
BRANCH  26  27
ATOM     27  C   LIG    1       23.525 -21.549   6.588  0.00  0.00    +0.103 C 
BRANCH  27  28
ATOM     28  N   LIG    1       24.994 -21.572   6.349  0.00  0.00    -0.301 NA
BRANCH  28  30
ATOM     29  C   LIG    1       26.078 -20.297   4.431  0.00  0.00    +0.020 C 
ATOM     30  C   LIG    1       25.315 -21.537   4.902  0.00  0.00    +0.081 C 
ENDBRANCH  28  30
BRANCH  28  31
ATOM     31  C   LIG    1       25.632 -20.434   7.053  0.00  0.00    +0.081 C 
ATOM     32  C   LIG    1       27.154 -20.413   7.008  0.00  0.00    +0.020 C 
ENDBRANCH  28  31
ENDBRANCH  27  28
ENDBRANCH  26  27
ENDBRANCH  22  26
ENDBRANCH   1  24
TORSDOF 7
ENDMDL
MODEL 2
REMARK VINA RESULT:      10.9      3.402      7.917
REMARK  Name = *****
REMARK                            x       y       z     vdW  Elec       q    Type
REMARK                         _______ _______ _______ _____ _____    ______ ____
ROOT
ATOM      1  C   LIG    1       24.698 -13.215   3.364  0.00  0.00    +0.060 C 
ATOM      2  C   LIG    1       24.550 -14.629   3.074  0.00  0.00    -0.013 C 
ATOM      3  C   LIG    1       25.351 -15.448   2.116  0.00  0.00    +0.046 C 
ATOM      4  C   LIG    1       23.546 -15.127   3.898  0.00  0.00    +0.044 C 
ATOM      5  N   LIG    1       23.150 -14.097   4.703  0.00  0.00    -0.358 NA
ATOM      6  H   LIG    1       22.497 -14.183   5.473  0.00  0.00    +0.166 HD
ATOM      7  C   LIG    1       23.843 -12.950   4.431  0.00  0.00    +0.026 C 
ATOM      8  C   LIG    1       23.571 -11.752   5.269  0.00  0.00    +0.064 C 
ENDROOT
BRANCH   4   9
ATOM      9  C   LIG    1       22.904 -16.393   3.989  0.00  0.00    +0.039 C 
ATOM     10  C   LIG    1       23.493 -17.600   3.995  0.00  0.00    +0.048 C 
ATOM     11  C   LIG    1       22.773 -18.877   4.154  0.00  0.00    +0.011 C 
ATOM     12  C   LIG    1       23.742 -19.888   4.094  0.00  0.00    +0.042 C 
ATOM     13  C   LIG    1       23.440 -21.227   4.232  0.00  0.00    +0.027 C 
ATOM     14  C   LIG    1       22.103 -21.559   4.441  0.00  0.00    +0.040 C 
ATOM     15  C   LIG    1       21.125 -20.552   4.504  0.00  0.00    +0.124 C 
ATOM     16  F   LIG    1       19.849 -20.902   4.711  0.00  0.00    -0.205 F 
ATOM     17  N   LIG    1       25.004 -19.343   3.902  0.00  0.00    -0.281 N 
ATOM     18  H   LIG    1       25.870 -19.857   3.844  0.00  0.00    +0.155 HD
ATOM     19  C   LIG    1       21.445 -19.201   4.364  0.00  0.00    +0.049 C 
ATOM     20  C   LIG    1       24.962 -17.961   3.850  0.00  0.00    +0.249 C 
ATOM     21  O   LIG    1       25.920 -17.232   3.761  0.00  0.00    -0.270 OA
ENDBRANCH   4   9
BRANCH   1  24
ATOM     22  N   LIG    1       26.896 -12.319   3.080  0.00  0.00    -0.310 N 
ATOM     23  H   LIG    1       27.185 -13.112   3.635  0.00  0.00    +0.149 HD
ATOM     24  C   LIG    1       25.577 -12.244   2.696  0.00  0.00    +0.246 C 
ATOM     25  O   LIG    1       25.174 -11.448   1.855  0.00  0.00    -0.270 OA
BRANCH  22  26
ATOM     26  C   LIG    1       27.926 -11.450   2.556  0.00  0.00    +0.120 C 
BRANCH  26  27
ATOM     27  C   LIG    1       29.289 -11.624   3.275  0.00  0.00    +0.103 C 
BRANCH  27  28
ATOM     28  N   LIG    1       29.419 -12.807   4.170  0.00  0.00    -0.301 NA
BRANCH  28  30
ATOM     29  C   LIG    1       27.508 -12.992   5.840  0.00  0.00    +0.020 C 
ATOM     30  C   LIG    1       28.930 -12.515   5.538  0.00  0.00    +0.081 C 
ENDBRANCH  28  30
BRANCH  28  31
ATOM     31  C   LIG    1       28.687 -13.956   3.587  0.00  0.00    +0.081 C 
ATOM     32  C   LIG    1       28.177 -14.979   4.594  0.00  0.00    +0.020 C 
ENDBRANCH  28  31
ENDBRANCH  27  28
ENDBRANCH  26  27
ENDBRANCH  22  26
ENDBRANCH   1  24
TORSDOF 7
ENDMDL
