MODEL 1
REMARK VINA RESULT:      -7.8      0.000      0.000
REMARK  Name = *****
REMARK                            x       y       z     vdW  Elec       q    Type
REMARK                         _______ _______ _______ _____ _____    ______ ____
ROOT
ATOM      1  O   LIG    1       27.857 -21.010   6.952  0.00  0.00    -0.459 OA
ENDROOT
BRANCH   1   7
ATOM      2  C   LIG    1       23.011 -23.024   6.899  0.00  0.00    +0.192 C 
ATOM      3  N   LIG    1       24.025 -21.858   6.855  0.00  0.00    +0.243 N 
ATOM      4  C   LIG    1       23.161 -20.602   6.741  0.00  0.00    +0.192 C 
ATOM      5  C   LIG    1       25.051 -22.056   5.722  0.00  0.00    +0.070 C 
ATOM      6  C   LIG    1       25.885 -20.775   5.546  0.00  0.00    +0.099 C 
ATOM      7  C   LIG    1       26.595 -20.318   6.830  0.00  0.00    +0.187 C 
ATOM      8  C   LIG    1       25.805 -20.601   8.121  0.00  0.00    +0.099 C 
ATOM      9  C   LIG    1       25.921 -23.212   6.245  0.00  0.00    +0.060 C 
ATOM     10  C   LIG    1       25.859 -23.114   7.775  0.00  0.00    +0.060 C 
ATOM     11  C   LIG    1       24.973 -21.895   8.071  0.00  0.00    +0.070 C 
ENDBRANCH   1   7
BRANCH   1  12
ATOM     12  C   LIG    1       28.988 -20.243   6.888  0.00  0.00    +0.341 C 
ATOM     13  O   LIG    1       29.277 -19.518   5.943  0.00  0.00    -0.247 OA
BRANCH  12  14
ATOM     14  C   LIG    1       29.841 -20.414   8.157  0.00  0.00    +0.253 C 
BRANCH  14  15
ATOM     15  C   LIG    1       30.438 -19.100   8.617  0.00  0.00    -0.008 A 
ATOM     16  C   LIG    1       29.710 -18.223   9.439  0.00  0.00    +0.007 A 
ATOM     17  C   LIG    1       30.282 -17.031   9.886  0.00  0.00    +0.000 A 
ATOM     18  C   LIG    1       31.583 -16.697   9.509  0.00  0.00    +0.000 A 
ATOM     19  C   LIG    1       32.310 -17.551   8.684  0.00  0.00    +0.000 A 
ATOM     20  C   LIG    1       31.741 -18.744   8.236  0.00  0.00    +0.007 A 
ENDBRANCH  14  15
BRANCH  14  21
ATOM     21  O   LIG    1       30.881 -21.373   8.031  0.00  0.00    -0.376 OA
ATOM     22  H   LIG    1       31.277 -21.489   8.914  0.00  0.00    +0.211 HD
ENDBRANCH  14  21
ENDBRANCH  12  14
ENDBRANCH   1  12
TORSDOF 5
ENDMDL
MODEL 2
REMARK VINA RESULT:      -7.5      0.998      1.754
REMARK  Name = *****
REMARK                            x       y       z     vdW  Elec       q    Type
REMARK                         _______ _______ _______ _____ _____    ______ ____
ROOT
ATOM      1  O   LIG    1       28.039 -20.052   7.432  0.00  0.00    -0.459 OA
ENDROOT
BRANCH   1   7
ATOM      2  C   LIG    1       23.515 -22.704   7.232  0.00  0.00    +0.192 C 
ATOM      3  N   LIG    1       24.905 -22.298   6.692  0.00  0.00    +0.243 N 
ATOM      4  C   LIG    1       25.055 -23.082   5.388  0.00  0.00    +0.192 C 
ATOM      5  C   LIG    1       26.005 -22.551   7.742  0.00  0.00    +0.070 C 
ATOM      6  C   LIG    1       27.390 -22.374   7.097  0.00  0.00    +0.099 C 
ATOM      7  C   LIG    1       27.594 -21.000   6.437  0.00  0.00    +0.187 C 
ATOM      8  C   LIG    1       26.320 -20.414   5.800  0.00  0.00    +0.099 C 
ATOM      9  C   LIG    1       25.738 -21.455   8.788  0.00  0.00    +0.060 C 
ATOM     10  C   LIG    1       25.090 -20.299   8.016  0.00  0.00    +0.060 C 
ATOM     11  C   LIG    1       25.026 -20.767   6.554  0.00  0.00    +0.070 C 
ENDBRANCH   1   7
BRANCH   1  12
ATOM     12  C   LIG    1       29.195 -19.372   7.160  0.00  0.00    +0.341 C 
ATOM     13  O   LIG    1       29.325 -18.576   6.238  0.00  0.00    -0.247 OA
BRANCH  12  14
ATOM     14  C   LIG    1       30.300 -19.741   8.165  0.00  0.00    +0.253 C 
BRANCH  14  15
ATOM     15  C   LIG    1       30.770 -18.537   8.954  0.00  0.00    -0.008 A 
ATOM     16  C   LIG    1       30.032 -18.056  10.049  0.00  0.00    +0.007 A 
ATOM     17  C   LIG    1       30.492 -16.967  10.790  0.00  0.00    +0.000 A 
ATOM     18  C   LIG    1       31.689 -16.341  10.442  0.00  0.00    +0.000 A 
ATOM     19  C   LIG    1       32.423 -16.799   9.350  0.00  0.00    +0.000 A 
ATOM     20  C   LIG    1       31.965 -17.888   8.607  0.00  0.00    +0.007 A 
ENDBRANCH  14  15
BRANCH  14  21
ATOM     21  O   LIG    1       31.427 -20.377   7.578  0.00  0.00    -0.376 OA
ATOM     22  H   LIG    1       31.782 -19.771   6.902  0.00  0.00    +0.211 HD
ENDBRANCH  14  21
ENDBRANCH  12  14
ENDBRANCH   1  12
TORSDOF 5
ENDMDL
MODEL 3
REMARK VINA RESULT:      -7.5      1.575      2.132
REMARK  Name = *****
REMARK                            x       y       z     vdW  Elec       q    Type
REMARK                         _______ _______ _______ _____ _____    ______ ____
ROOT
ATOM      1  O   LIG    1       26.551 -21.625   6.723  0.00  0.00    -0.459 OA
ENDROOT
BRANCH   1   7
ATOM      2  C   LIG    1       21.639 -21.647   4.876  0.00  0.00    +0.192 C 
ATOM      3  N   LIG    1       22.910 -20.954   5.417  0.00  0.00    +0.243 N 
ATOM      4  C   LIG    1       22.559 -19.466   5.435  0.00  0.00    +0.192 C 
ATOM      5  C   LIG    1       24.147 -21.327   4.576  0.00  0.00    +0.070 C 
ATOM      6  C   LIG    1       25.337 -20.439   4.979  0.00  0.00    +0.099 C 
ATOM      7  C   LIG    1       25.676 -20.503   6.478  0.00  0.00    +0.187 C 
ATOM      8  C   LIG    1       24.451 -20.683   7.392  0.00  0.00    +0.099 C 
ATOM      9  C   LIG    1       24.397 -22.794   4.965  0.00  0.00    +0.060 C 
ATOM     10  C   LIG    1       23.855 -22.938   6.393  0.00  0.00    +0.060 C 
ATOM     11  C   LIG    1       23.335 -21.545   6.776  0.00  0.00    +0.070 C 
ENDBRANCH   1   7
BRANCH   1  12
ATOM     12  C   LIG    1       27.575 -21.425   7.608  0.00  0.00    +0.341 C 
ATOM     13  O   LIG    1       27.463 -21.516   8.824  0.00  0.00    -0.247 OA
BRANCH  12  14
ATOM     14  C   LIG    1       28.879 -21.074   6.871  0.00  0.00    +0.253 C 
BRANCH  14  15
ATOM     15  C   LIG    1       29.762 -20.156   7.691  0.00  0.00    -0.008 A 
ATOM     16  C   LIG    1       29.540 -18.768   7.712  0.00  0.00    +0.007 A 
ATOM     17  C   LIG    1       30.339 -17.935   8.498  0.00  0.00    +0.000 A 
ATOM     18  C   LIG    1       31.371 -18.477   9.263  0.00  0.00    +0.000 A 
ATOM     19  C   LIG    1       31.610 -19.849   9.239  0.00  0.00    +0.000 A 
ATOM     20  C   LIG    1       30.814 -20.685   8.455  0.00  0.00    +0.007 A 
ENDBRANCH  14  15
BRANCH  14  21
ATOM     21  O   LIG    1       28.681 -20.498   5.588  0.00  0.00    -0.376 OA
ATOM     22  H   LIG    1       28.823 -21.202   4.929  0.00  0.00    +0.211 HD
ENDBRANCH  14  21
ENDBRANCH  12  14
ENDBRANCH   1  12
TORSDOF 5
ENDMDL
MODEL 4
REMARK VINA RESULT:      -7.2      1.184      2.381
REMARK  Name = *****
REMARK                            x       y       z     vdW  Elec       q    Type
REMARK                         _______ _______ _______ _____ _____    ______ ____
ROOT
ATOM      1  O   LIG    1       26.833 -21.022   6.678  0.00  0.00    -0.459 OA
ENDROOT
BRANCH   1   7
ATOM      2  C   LIG    1       21.897 -21.677   5.017  0.00  0.00    +0.192 C 
ATOM      3  N   LIG    1       23.095 -21.978   5.946  0.00  0.00    +0.243 N 
ATOM      4  C   LIG    1       22.580 -23.053   6.903  0.00  0.00    +0.192 C 
ATOM      5  C   LIG    1       23.613 -20.691   6.620  0.00  0.00    +0.070 C 
ATOM      6  C   LIG    1       24.631 -21.051   7.716  0.00  0.00    +0.099 C 
ATOM      7  C   LIG    1       25.812 -21.895   7.208  0.00  0.00    +0.187 C 
ATOM      8  C   LIG    1       25.443 -22.883   6.087  0.00  0.00    +0.099 C 
ATOM      9  C   LIG    1       24.292 -19.946   5.458  0.00  0.00    +0.060 C 
ATOM     10  C   LIG    1       24.759 -21.037   4.486  0.00  0.00    +0.060 C 
ATOM     11  C   LIG    1       24.348 -22.367   5.136  0.00  0.00    +0.070 C 
ENDBRANCH   1   7
BRANCH   1  12
ATOM     12  C   LIG    1       28.051 -21.049   7.300  0.00  0.00    +0.341 C 
ATOM     13  O   LIG    1       28.278 -21.648   8.344  0.00  0.00    -0.247 OA
BRANCH  12  14
ATOM     14  C   LIG    1       29.089 -20.229   6.514  0.00  0.00    +0.253 C 
BRANCH  14  15
ATOM     15  C   LIG    1       29.907 -19.335   7.421  0.00  0.00    -0.008 A 
ATOM     16  C   LIG    1       29.300 -18.607   8.459  0.00  0.00    +0.007 A 
ATOM     17  C   LIG    1       30.069 -17.812   9.311  0.00  0.00    +0.000 A 
ATOM     18  C   LIG    1       31.449 -17.727   9.130  0.00  0.00    +0.000 A 
ATOM     19  C   LIG    1       32.061 -18.431   8.096  0.00  0.00    +0.000 A 
ATOM     20  C   LIG    1       31.295 -19.228   7.242  0.00  0.00    +0.007 A 
ENDBRANCH  14  15
BRANCH  14  21
ATOM     21  O   LIG    1       28.534 -19.443   5.469  0.00  0.00    -0.376 OA
ATOM     22  H   LIG    1       27.684 -19.091   5.791  0.00  0.00    +0.211 HD
ENDBRANCH  14  21
ENDBRANCH  12  14
ENDBRANCH   1  12
TORSDOF 5
ENDMDL
MODEL 5
REMARK VINA RESULT:      -7.1      2.285      7.095
REMARK  Name = *****
REMARK                            x       y       z     vdW  Elec       q    Type
REMARK                         _______ _______ _______ _____ _____    ______ ____
ROOT
ATOM      1  O   LIG    1       28.476 -21.144   7.091  0.00  0.00    -0.459 OA
ENDROOT
BRANCH   1   7
ATOM      2  C   LIG    1       31.971 -17.454   8.400  0.00  0.00    +0.192 C 
ATOM      3  N   LIG    1       31.012 -18.625   8.715  0.00  0.00    +0.243 N 
ATOM      4  C   LIG    1       31.131 -18.824  10.226  0.00  0.00    +0.192 C 
ATOM      5  C   LIG    1       31.348 -19.864   7.860  0.00  0.00    +0.070 C 
ATOM      6  C   LIG    1       30.548 -21.077   8.366  0.00  0.00    +0.099 C 
ATOM      7  C   LIG    1       29.028 -20.847   8.392  0.00  0.00    +0.187 C 
ATOM      8  C   LIG    1       28.616 -19.404   8.733  0.00  0.00    +0.099 C 
ATOM      9  C   LIG    1       30.885 -19.445   6.454  0.00  0.00    +0.060 C 
ATOM     10  C   LIG    1       29.748 -18.440   6.677  0.00  0.00    +0.060 C 
ATOM     11  C   LIG    1       29.588 -18.336   8.201  0.00  0.00    +0.070 C 
ENDBRANCH   1   7
BRANCH   1  12
ATOM     12  C   LIG    1       27.113 -21.097   6.976  0.00  0.00    +0.341 C 
ATOM     13  O   LIG    1       26.516 -20.431   6.139  0.00  0.00    -0.247 OA
BRANCH  12  14
ATOM     14  C   LIG    1       26.440 -21.991   8.032  0.00  0.00    +0.253 C 
BRANCH  14  15
ATOM     15  C   LIG    1       25.509 -23.006   7.403  0.00  0.00    -0.008 A 
ATOM     16  C   LIG    1       25.988 -24.252   6.963  0.00  0.00    +0.007 A 
ATOM     17  C   LIG    1       25.115 -25.194   6.416  0.00  0.00    +0.000 A 
ATOM     18  C   LIG    1       23.757 -24.899   6.293  0.00  0.00    +0.000 A 
ATOM     19  C   LIG    1       23.273 -23.662   6.712  0.00  0.00    +0.000 A 
ATOM     20  C   LIG    1       24.143 -22.718   7.260  0.00  0.00    +0.007 A 
ENDBRANCH  14  15
BRANCH  14  21
ATOM     21  O   LIG    1       25.731 -21.272   9.031  0.00  0.00    -0.376 OA
ATOM     22  H   LIG    1       24.780 -21.380   8.846  0.00  0.00    +0.211 HD
ENDBRANCH  14  21
ENDBRANCH  12  14
ENDBRANCH   1  12
TORSDOF 5
ENDMDL
MODEL 6
REMARK VINA RESULT:      -7.0      2.324      6.802
REMARK  Name = *****
REMARK                            x       y       z     vdW  Elec       q    Type
REMARK                         _______ _______ _______ _____ _____    ______ ____
ROOT
ATOM      1  O   LIG    1       28.927 -21.241   7.121  0.00  0.00    -0.459 OA
ENDROOT
BRANCH   1   7
ATOM      2  C   LIG    1       31.926 -17.237   8.707  0.00  0.00    +0.192 C 
ATOM      3  N   LIG    1       31.040 -18.480   8.946  0.00  0.00    +0.243 N 
ATOM      4  C   LIG    1       31.000 -18.638  10.466  0.00  0.00    +0.192 C 
ATOM      5  C   LIG    1       31.574 -19.701   8.171  0.00  0.00    +0.070 C 
ATOM      6  C   LIG    1       30.826 -20.969   8.619  0.00  0.00    +0.099 C 
ATOM      7  C   LIG    1       29.299 -20.872   8.466  0.00  0.00    +0.187 C 
ATOM      8  C   LIG    1       28.731 -19.463   8.716  0.00  0.00    +0.099 C 
ATOM      9  C   LIG    1       31.243 -19.352   6.710  0.00  0.00    +0.060 C 
ATOM     10  C   LIG    1       30.007 -18.446   6.774  0.00  0.00    +0.060 C 
ATOM     11  C   LIG    1       29.664 -18.325   8.267  0.00  0.00    +0.070 C 
ENDBRANCH   1   7
BRANCH   1  12
ATOM     12  C   LIG    1       27.603 -21.504   6.898  0.00  0.00    +0.341 C 
ATOM     13  O   LIG    1       27.029 -22.518   7.275  0.00  0.00    -0.247 OA
BRANCH  12  14
ATOM     14  C   LIG    1       26.939 -20.358   6.115  0.00  0.00    +0.253 C 
BRANCH  14  15
ATOM     15  C   LIG    1       25.455 -20.591   5.924  0.00  0.00    -0.008 A 
ATOM     16  C   LIG    1       24.590 -20.686   7.027  0.00  0.00    +0.007 A 
ATOM     17  C   LIG    1       23.218 -20.866   6.839  0.00  0.00    +0.000 A 
ATOM     18  C   LIG    1       22.698 -20.962   5.549  0.00  0.00    +0.000 A 
ATOM     19  C   LIG    1       23.547 -20.884   4.447  0.00  0.00    +0.000 A 
ATOM     20  C   LIG    1       24.918 -20.703   4.632  0.00  0.00    +0.007 A 
ENDBRANCH  14  15
BRANCH  14  21
ATOM     21  O   LIG    1       27.532 -20.102   4.849  0.00  0.00    -0.376 OA
ATOM     22  H   LIG    1       28.258 -20.743   4.735  0.00  0.00    +0.211 HD
ENDBRANCH  14  21
ENDBRANCH  12  14
ENDBRANCH   1  12
TORSDOF 5
ENDMDL
MODEL 7
REMARK VINA RESULT:      -7.0      4.998      6.762
REMARK  Name = *****
REMARK                            x       y       z     vdW  Elec       q    Type
REMARK                         _______ _______ _______ _____ _____    ______ ____
ROOT
ATOM      1  O   LIG    1       25.554 -24.145   6.008  0.00  0.00    -0.459 OA
ENDROOT
BRANCH   1   7
ATOM      2  C   LIG    1       25.488 -29.348   5.323  0.00  0.00    +0.192 C 
ATOM      3  N   LIG    1       25.096 -28.044   6.055  0.00  0.00    +0.243 N 
ATOM      4  C   LIG    1       24.215 -28.504   7.216  0.00  0.00    +0.192 C 
ATOM      5  C   LIG    1       24.437 -27.040   5.088  0.00  0.00    +0.070 C 
ATOM      6  C   LIG    1       23.839 -25.867   5.884  0.00  0.00    +0.099 C 
ATOM      7  C   LIG    1       24.858 -25.146   6.781  0.00  0.00    +0.187 C 
ATOM      8  C   LIG    1       25.931 -26.072   7.382  0.00  0.00    +0.099 C 
ATOM      9  C   LIG    1       25.618 -26.574   4.220  0.00  0.00    +0.060 C 
ATOM     10  C   LIG    1       26.861 -26.711   5.110  0.00  0.00    +0.060 C 
ATOM     11  C   LIG    1       26.343 -27.232   6.459  0.00  0.00    +0.070 C 
ENDBRANCH   1   7
BRANCH   1  12
ATOM     12  C   LIG    1       25.616 -22.887   6.543  0.00  0.00    +0.341 C 
ATOM     13  O   LIG    1       26.655 -22.325   6.864  0.00  0.00    -0.247 OA
BRANCH  12  14
ATOM     14  C   LIG    1       24.209 -22.279   6.683  0.00  0.00    +0.253 C 
BRANCH  14  15
ATOM     15  C   LIG    1       23.976 -21.158   5.692  0.00  0.00    -0.008 A 
ATOM     16  C   LIG    1       24.835 -20.973   4.595  0.00  0.00    +0.007 A 
ATOM     17  C   LIG    1       24.591 -19.957   3.669  0.00  0.00    +0.000 A 
ATOM     18  C   LIG    1       23.495 -19.111   3.832  0.00  0.00    +0.000 A 
ATOM     19  C   LIG    1       22.645 -19.276   4.923  0.00  0.00    +0.000 A 
ATOM     20  C   LIG    1       22.885 -20.290   5.851  0.00  0.00    +0.007 A 
ENDBRANCH  14  15
BRANCH  14  21
ATOM     21  O   LIG    1       23.909 -21.809   7.990  0.00  0.00    -0.376 OA
ATOM     22  H   LIG    1       22.941 -21.717   8.050  0.00  0.00    +0.211 HD
ENDBRANCH  14  21
ENDBRANCH  12  14
ENDBRANCH   1  12
TORSDOF 5
ENDMDL
MODEL 8
REMARK VINA RESULT:      -6.9      6.686      9.393
REMARK  Name = *****
REMARK                            x       y       z     vdW  Elec       q    Type
REMARK                         _______ _______ _______ _____ _____    ______ ____
ROOT
ATOM      1  O   LIG    1       25.189 -28.676   7.507  0.00  0.00    -0.459 OA
ENDROOT
BRANCH   1   7
ATOM      2  C   LIG    1       25.535 -32.623  10.950  0.00  0.00    +0.192 C 
ATOM      3  N   LIG    1       25.002 -31.953   9.663  0.00  0.00    +0.243 N 
ATOM      4  C   LIG    1       24.055 -32.987   9.055  0.00  0.00    +0.192 C 
ATOM      5  C   LIG    1       26.160 -31.504   8.750  0.00  0.00    +0.070 C 
ATOM      6  C   LIG    1       25.605 -31.071   7.381  0.00  0.00    +0.099 C 
ATOM      7  C   LIG    1       24.540 -29.966   7.468  0.00  0.00    +0.187 C 
ATOM      8  C   LIG    1       23.644 -30.053   8.717  0.00  0.00    +0.099 C 
ATOM      9  C   LIG    1       26.751 -30.304   9.510  0.00  0.00    +0.060 C 
ATOM     10  C   LIG    1       25.586 -29.712  10.313  0.00  0.00    +0.060 C 
ATOM     11  C   LIG    1       24.367 -30.581   9.968  0.00  0.00    +0.070 C 
ENDBRANCH   1   7
BRANCH   1  12
ATOM     12  C   LIG    1       25.259 -27.986   6.328  0.00  0.00    +0.341 C 
ATOM     13  O   LIG    1       24.666 -28.307   5.306  0.00  0.00    -0.247 OA
BRANCH  12  14
ATOM     14  C   LIG    1       26.177 -26.758   6.463  0.00  0.00    +0.253 C 
BRANCH  14  15
ATOM     15  C   LIG    1       25.386 -25.474   6.594  0.00  0.00    -0.008 A 
ATOM     16  C   LIG    1       23.998 -25.452   6.376  0.00  0.00    +0.007 A 
ATOM     17  C   LIG    1       23.274 -24.269   6.533  0.00  0.00    +0.000 A 
ATOM     18  C   LIG    1       23.928 -23.094   6.900  0.00  0.00    +0.000 A 
ATOM     19  C   LIG    1       25.306 -23.099   7.106  0.00  0.00    +0.000 A 
ATOM     20  C   LIG    1       26.033 -24.280   6.950  0.00  0.00    +0.007 A 
ENDBRANCH  14  15
BRANCH  14  21
ATOM     21  O   LIG    1       27.114 -26.617   5.404  0.00  0.00    -0.376 OA
ATOM     22  H   LIG    1       26.608 -26.420   4.594  0.00  0.00    +0.211 HD
ENDBRANCH  14  21
ENDBRANCH  12  14
ENDBRANCH   1  12
TORSDOF 5
ENDMDL
MODEL 9
REMARK VINA RESULT:      -6.7      4.570      8.085
REMARK  Name = *****
REMARK                            x       y       z     vdW  Elec       q    Type
REMARK                         _______ _______ _______ _____ _____    ______ ____
ROOT
ATOM      1  O   LIG    1       25.375 -24.287   6.995  0.00  0.00    -0.459 OA
ENDROOT
BRANCH   1   7
ATOM      2  C   LIG    1       22.791 -19.868   5.838  0.00  0.00    +0.192 C 
ATOM      3  N   LIG    1       24.027 -20.794   5.811  0.00  0.00    +0.243 N 
ATOM      4  C   LIG    1       25.081 -20.007   5.032  0.00  0.00    +0.192 C 
ATOM      5  C   LIG    1       23.674 -22.176   5.225  0.00  0.00    +0.070 C 
ATOM      6  C   LIG    1       24.962 -22.983   4.982  0.00  0.00    +0.099 C 
ATOM      7  C   LIG    1       25.834 -23.147   6.238  0.00  0.00    +0.187 C 
ATOM      8  C   LIG    1       25.802 -21.936   7.188  0.00  0.00    +0.099 C 
ATOM      9  C   LIG    1       22.826 -22.813   6.339  0.00  0.00    +0.060 C 
ATOM     10  C   LIG    1       23.318 -22.178   7.646  0.00  0.00    +0.060 C 
ATOM     11  C   LIG    1       24.443 -21.216   7.234  0.00  0.00    +0.070 C 
ENDBRANCH   1   7
BRANCH   1  12
ATOM     12  C   LIG    1       25.655 -25.522   6.479  0.00  0.00    +0.341 C 
ATOM     13  O   LIG    1       26.767 -25.879   6.112  0.00  0.00    -0.247 OA
BRANCH  12  14
ATOM     14  C   LIG    1       24.390 -26.396   6.426  0.00  0.00    +0.253 C 
BRANCH  14  15
ATOM     15  C   LIG    1       24.722 -27.873   6.446  0.00  0.00    -0.008 A 
ATOM     16  C   LIG    1       24.947 -28.549   7.657  0.00  0.00    +0.007 A 
ATOM     17  C   LIG    1       25.219 -29.918   7.666  0.00  0.00    +0.000 A 
ATOM     18  C   LIG    1       25.279 -30.625   6.465  0.00  0.00    +0.000 A 
ATOM     19  C   LIG    1       25.072 -29.964   5.257  0.00  0.00    +0.000 A 
ATOM     20  C   LIG    1       24.800 -28.596   5.245  0.00  0.00    +0.007 A 
ENDBRANCH  14  15
BRANCH  14  21
ATOM     21  O   LIG    1       23.547 -26.128   5.314  0.00  0.00    -0.376 OA
ATOM     22  H   LIG    1       23.894 -25.330   4.874  0.00  0.00    +0.211 HD
ENDBRANCH  14  21
ENDBRANCH  12  14
ENDBRANCH   1  12
TORSDOF 5
ENDMDL
