MODEL 1
REMARK VINA RESULT:      -3.1      0.000      0.000
REMARK  Name = *****
REMARK                            x       y       z     vdW  Elec       q    Type
REMARK                         _______ _______ _______ _____ _____    ______ ____
ROOT
ATOM      1 CL   LIG    1       26.092 -17.322   3.319  0.00  0.00    -0.119 Cl
ATOM      2  C   LIG    1       25.481 -18.972   3.707  0.00  0.00    +0.119 C 
ATOM      3  C   LIG    1       23.947 -19.034   3.562  0.00  0.00    +0.119 C 
ATOM      4 CL   LIG    1       23.120 -17.762   4.530  0.00  0.00    -0.119 Cl
ATOM      5  C   LIG    1       23.390 -20.428   3.919  0.00  0.00    +0.119 C 
ATOM      6 CL   LIG    1       23.818 -21.571   2.581  0.00  0.00    -0.119 Cl
ATOM      7  C   LIG    1       23.919 -21.009   5.244  0.00  0.00    +0.119 C 
ATOM      8 CL   LIG    1       23.086 -20.244   6.644  0.00  0.00    -0.119 Cl
ATOM      9  C   LIG    1       25.455 -20.900   5.349  0.00  0.00    +0.119 C 
ATOM     10 CL   LIG    1       26.035 -21.556   6.925  0.00  0.00    -0.119 Cl
ATOM     11  C   LIG    1       25.983 -19.476   5.077  0.00  0.00    +0.119 C 
ATOM     12 CL   LIG    1       27.793 -19.497   5.082  0.00  0.00    -0.119 Cl
ENDROOT
TORSDOF 0
ENDMDL
MODEL 2
REMARK VINA RESULT:      -2.7      0.828      2.010
REMARK  Name = *****
REMARK                            x       y       z     vdW  Elec       q    Type
REMARK                         _______ _______ _______ _____ _____    ______ ____
ROOT
ATOM      1 CL   LIG    1       27.652 -19.340   4.808  0.00  0.00    -0.119 Cl
ATOM      2  C   LIG    1       26.053 -20.126   4.535  0.00  0.00    +0.119 C 
ATOM      3  C   LIG    1       25.256 -19.377   3.448  0.00  0.00    +0.119 C 
ATOM      4 CL   LIG    1       25.093 -17.621   3.812  0.00  0.00    -0.119 Cl
ATOM      5  C   LIG    1       23.868 -20.008   3.212  0.00  0.00    +0.119 C 
ATOM      6 CL   LIG    1       24.096 -21.571   2.328  0.00  0.00    -0.119 Cl
ATOM      7  C   LIG    1       23.066 -20.288   4.498  0.00  0.00    +0.119 C 
ATOM      8 CL   LIG    1       22.341 -18.768   5.132  0.00  0.00    -0.119 Cl
ATOM      9  C   LIG    1       23.916 -21.017   5.560  0.00  0.00    +0.119 C 
ATOM     10 CL   LIG    1       22.957 -21.296   7.062  0.00  0.00    -0.119 Cl
ATOM     11  C   LIG    1       25.262 -20.318   5.846  0.00  0.00    +0.119 C 
ATOM     12 CL   LIG    1       26.232 -21.330   6.990  0.00  0.00    -0.119 Cl
ENDROOT
TORSDOF 0
ENDMDL
MODEL 3
REMARK VINA RESULT:      -1.1      0.970      2.797
REMARK  Name = *****
REMARK                            x       y       z     vdW  Elec       q    Type
REMARK                         _______ _______ _______ _____ _____    ______ ____
ROOT
ATOM      1 CL   LIG    1       21.966 -17.598   4.462  0.00  0.00    -0.119 Cl
ATOM      2  C   LIG    1       23.297 -18.736   4.038  0.00  0.00    +0.119 C 
ATOM      3  C   LIG    1       23.033 -20.132   4.638  0.00  0.00    +0.119 C 
ATOM      4 CL   LIG    1       22.739 -20.066   6.412  0.00  0.00    -0.119 Cl
ATOM      5  C   LIG    1       24.172 -21.122   4.318  0.00  0.00    +0.119 C 
ATOM      6 CL   LIG    1       24.061 -21.572   2.567  0.00  0.00    -0.119 Cl
ATOM      7  C   LIG    1       25.588 -20.579   4.592  0.00  0.00    +0.119 C 
ATOM      8 CL   LIG    1       25.951 -20.628   6.354  0.00  0.00    -0.119 Cl
ATOM      9  C   LIG    1       25.792 -19.171   3.993  0.00  0.00    +0.119 C 
ATOM     10 CL   LIG    1       27.445 -18.554   4.363  0.00  0.00    -0.119 Cl
ATOM     11  C   LIG    1       24.688 -18.172   4.399  0.00  0.00    +0.119 C 
ATOM     12 CL   LIG    1       24.946 -16.607   3.528  0.00  0.00    -0.119 Cl
ENDROOT
TORSDOF 0
ENDMDL
MODEL 4
REMARK VINA RESULT:      -1.0      1.443      3.720
REMARK  Name = *****
REMARK                            x       y       z     vdW  Elec       q    Type
REMARK                         _______ _______ _______ _____ _____    ______ ____
ROOT
ATOM      1 CL   LIG    1       22.727 -21.571   7.062  0.00  0.00    -0.119 Cl
ATOM      2  C   LIG    1       23.195 -20.198   5.993  0.00  0.00    +0.119 C 
ATOM      3  C   LIG    1       22.112 -19.943   4.926  0.00  0.00    +0.119 C 
ATOM      4 CL   LIG    1       21.719 -21.426   3.986  0.00  0.00    -0.119 Cl
ATOM      5  C   LIG    1       22.498 -18.791   3.976  0.00  0.00    +0.119 C 
ATOM      6 CL   LIG    1       22.339 -17.229   4.878  0.00  0.00    -0.119 Cl
ATOM      7  C   LIG    1       23.929 -18.881   3.409  0.00  0.00    +0.119 C 
ATOM      8 CL   LIG    1       24.003 -20.093   2.080  0.00  0.00    -0.119 Cl
ATOM      9  C   LIG    1       24.970 -19.162   4.513  0.00  0.00    +0.119 C 
ATOM     10 CL   LIG    1       26.624 -19.297   3.810  0.00  0.00    -0.119 Cl
ATOM     11  C   LIG    1       24.607 -20.374   5.396  0.00  0.00    +0.119 C 
ATOM     12 CL   LIG    1       25.813 -20.520   6.738  0.00  0.00    -0.119 Cl
ENDROOT
TORSDOF 0
ENDMDL
MODEL 5
REMARK VINA RESULT:      -0.2      4.874      7.062
REMARK  Name = *****
REMARK                            x       y       z     vdW  Elec       q    Type
REMARK                         _______ _______ _______ _____ _____    ______ ____
ROOT
ATOM      1 CL   LIG    1       23.187 -12.019   4.382  0.00  0.00    -0.119 Cl
ATOM      2  C   LIG    1       24.651 -13.054   4.557  0.00  0.00    +0.119 C 
ATOM      3  C   LIG    1       25.915 -12.292   4.109  0.00  0.00    +0.119 C 
ATOM      4 CL   LIG    1       25.753 -11.626   2.445  0.00  0.00    -0.119 Cl
ATOM      5  C   LIG    1       27.183 -13.163   4.219  0.00  0.00    +0.119 C 
ATOM      6 CL   LIG    1       27.602 -13.342   5.972  0.00  0.00    -0.119 Cl
ATOM      7  C   LIG    1       27.048 -14.571   3.605  0.00  0.00    +0.119 C 
ATOM      8 CL   LIG    1       27.177 -14.490   1.812  0.00  0.00    -0.119 Cl
ATOM      9  C   LIG    1       25.757 -15.279   4.066  0.00  0.00    +0.119 C 
ATOM     10 CL   LIG    1       25.614 -16.905   3.301  0.00  0.00    -0.119 Cl
ATOM     11  C   LIG    1       24.488 -14.423   3.864  0.00  0.00    +0.119 C 
ATOM     12 CL   LIG    1       23.063 -15.288   4.568  0.00  0.00    -0.119 Cl
ENDROOT
TORSDOF 0
ENDMDL
