MODEL 1
REMARK VINA RESULT:      -8.4      0.000      0.000
REMARK  Name = *****
REMARK                            x       y       z     vdW  Elec       q    Type
REMARK                         _______ _______ _______ _____ _____    ______ ____
ROOT
ATOM      1  C   LIG    1       26.326 -20.990   6.186  0.00  0.00    +0.008 C 
ATOM      2  C   LIG    1       26.351 -22.298   6.545  0.00  0.00    +0.056 C 
ATOM      3 CL   LIG    1       27.779 -23.057   7.245  0.00  0.00    -0.082 Cl
ENDROOT
BRANCH   1   7
ATOM      4  C   LIG    1       29.713 -18.561   7.367  0.00  0.00    +0.121 A 
ATOM      5  C   LIG    1       29.388 -18.709   6.014  0.00  0.00    +0.046 A 
ATOM      6  C   LIG    1       28.315 -19.517   5.609  0.00  0.00    +0.012 A 
ATOM      7  C   LIG    1       27.527 -20.164   6.566  0.00  0.00    -0.016 A 
ATOM      8  C   LIG    1       27.862 -20.022   7.919  0.00  0.00    +0.012 A 
ATOM      9  C   LIG    1       28.959 -19.250   8.317  0.00  0.00    +0.046 A 
BRANCH   4  10
ATOM     10  O   LIG    1       30.764 -17.727   7.628  0.00  0.00    -0.491 OA
BRANCH  10  11
ATOM     11  C   LIG    1       31.860 -18.209   8.419  0.00  0.00    +0.244 C 
BRANCH  11  12
ATOM     12  C   LIG    1       32.421 -17.070   9.295  0.00  0.00    +0.125 C 
BRANCH  12  13
ATOM     13  N   LIG    1       32.534 -17.327  10.751  0.00  0.00    -0.300 NA
BRANCH  13  15
ATOM     14  C   LIG    1       32.969 -16.240  13.003  0.00  0.00    +0.020 C 
ATOM     15  C   LIG    1       33.021 -16.128  11.477  0.00  0.00    +0.081 C 
ENDBRANCH  13  15
BRANCH  13  16
ATOM     16  C   LIG    1       31.263 -17.823  11.312  0.00  0.00    +0.081 C 
ATOM     17  C   LIG    1       30.040 -16.998  10.922  0.00  0.00    +0.020 C 
ENDBRANCH  13  16
ENDBRANCH  12  13
ENDBRANCH  11  12
ENDBRANCH  10  11
ENDBRANCH   4  10
ENDBRANCH   1   7
BRANCH   1  18
ATOM     18  C   LIG    1       25.149 -20.316   5.507  0.00  0.00    -0.016 A 
ATOM     19  C   LIG    1       25.237 -19.898   4.170  0.00  0.00    +0.008 A 
ATOM     20  C   LIG    1       24.137 -19.354   3.492  0.00  0.00    +0.001 A 
ATOM     21  C   LIG    1       22.918 -19.193   4.145  0.00  0.00    +0.000 A 
ATOM     22  C   LIG    1       22.799 -19.590   5.464  0.00  0.00    +0.001 A 
ATOM     23  C   LIG    1       23.892 -20.169   6.120  0.00  0.00    +0.008 A 
ENDBRANCH   1  18
BRANCH   2  24
ATOM     24  C   LIG    1       25.240 -23.281   6.471  0.00  0.00    -0.006 A 
ATOM     25  C   LIG    1       23.957 -22.919   6.898  0.00  0.00    +0.009 A 
ATOM     26  C   LIG    1       22.908 -23.844   6.850  0.00  0.00    +0.001 A 
ATOM     27  C   LIG    1       23.128 -25.125   6.350  0.00  0.00    +0.000 A 
ATOM     28  C   LIG    1       24.400 -25.495   5.917  0.00  0.00    +0.001 A 
ATOM     29  C   LIG    1       25.460 -24.587   6.011  0.00  0.00    +0.009 A 
ENDBRANCH   2  24
TORSDOF 9
ENDMDL
MODEL 2
REMARK VINA RESULT:      -8.0      5.849      9.978
REMARK  Name = *****
REMARK                            x       y       z     vdW  Elec       q    Type
REMARK                         _______ _______ _______ _____ _____    ______ ____
ROOT
ATOM      1  C   LIG    1       25.277 -29.904   6.726  0.00  0.00    +0.008 C 
ATOM      2  C   LIG    1       25.648 -30.020   8.025  0.00  0.00    +0.056 C 
ATOM      3 CL   LIG    1       26.182 -28.639   8.981  0.00  0.00    -0.082 Cl
ENDROOT
BRANCH   1   7
ATOM      4  C   LIG    1       25.116 -25.868   5.159  0.00  0.00    +0.121 A 
ATOM      5  C   LIG    1       24.168 -26.301   6.093  0.00  0.00    +0.046 A 
ATOM      6  C   LIG    1       24.184 -27.613   6.589  0.00  0.00    +0.012 A 
ATOM      7  C   LIG    1       25.179 -28.504   6.176  0.00  0.00    -0.016 A 
ATOM      8  C   LIG    1       26.120 -28.071   5.233  0.00  0.00    +0.012 A 
ATOM      9  C   LIG    1       26.076 -26.774   4.708  0.00  0.00    +0.046 A 
BRANCH   4  10
ATOM     10  O   LIG    1       25.005 -24.560   4.778  0.00  0.00    -0.491 OA
BRANCH  10  11
ATOM     11  C   LIG    1       24.849 -23.549   5.785  0.00  0.00    +0.244 C 
BRANCH  11  12
ATOM     12  C   LIG    1       24.687 -22.165   5.124  0.00  0.00    +0.125 C 
BRANCH  12  13
ATOM     13  N   LIG    1       24.602 -20.989   6.023  0.00  0.00    -0.300 NA
BRANCH  13  15
ATOM     14  C   LIG    1       22.602 -19.675   5.175  0.00  0.00    +0.020 C 
ATOM     15  C   LIG    1       23.193 -20.586   6.256  0.00  0.00    +0.081 C 
ENDBRANCH  13  15
BRANCH  13  16
ATOM     16  C   LIG    1       25.315 -21.228   7.293  0.00  0.00    +0.081 C 
ATOM     17  C   LIG    1       26.634 -20.473   7.423  0.00  0.00    +0.020 C 
ENDBRANCH  13  16
ENDBRANCH  12  13
ENDBRANCH  11  12
ENDBRANCH  10  11
ENDBRANCH   4  10
ENDBRANCH   1   7
BRANCH   1  18
ATOM     18  C   LIG    1       24.889 -31.075   5.843  0.00  0.00    -0.016 A 
ATOM     19  C   LIG    1       25.753 -31.525   4.832  0.00  0.00    +0.008 A 
ATOM     20  C   LIG    1       25.460 -32.660   4.062  0.00  0.00    +0.001 A 
ATOM     21  C   LIG    1       24.276 -33.364   4.269  0.00  0.00    +0.000 A 
ATOM     22  C   LIG    1       23.402 -32.942   5.253  0.00  0.00    +0.001 A 
ATOM     23  C   LIG    1       23.723 -31.833   6.044  0.00  0.00    +0.008 A 
ENDBRANCH   1  18
BRANCH   2  24
ATOM     24  C   LIG    1       25.639 -31.244   8.866  0.00  0.00    -0.006 A 
ATOM     25  C   LIG    1       24.699 -31.377   9.896  0.00  0.00    +0.009 A 
ATOM     26  C   LIG    1       24.694 -32.518  10.706  0.00  0.00    +0.001 A 
ATOM     27  C   LIG    1       25.608 -33.544  10.475  0.00  0.00    +0.000 A 
ATOM     28  C   LIG    1       26.545 -33.424   9.450  0.00  0.00    +0.001 A 
ATOM     29  C   LIG    1       26.583 -32.263   8.671  0.00  0.00    +0.009 A 
ENDBRANCH   2  24
TORSDOF 9
ENDMDL
MODEL 3
REMARK VINA RESULT:      -8.0      4.889      9.083
REMARK  Name = *****
REMARK                            x       y       z     vdW  Elec       q    Type
REMARK                         _______ _______ _______ _____ _____    ______ ____
ROOT
ATOM      1  C   LIG    1       25.185 -22.754   5.843  0.00  0.00    +0.008 C 
ATOM      2  C   LIG    1       24.557 -22.253   4.751  0.00  0.00    +0.056 C 
ATOM      3 CL   LIG    1       23.984 -23.279   3.438  0.00  0.00    -0.082 Cl
ENDROOT
BRANCH   1   7
ATOM      4  C   LIG    1       25.394 -27.073   6.121  0.00  0.00    +0.121 A 
ATOM      5  C   LIG    1       24.157 -26.433   5.989  0.00  0.00    +0.046 A 
ATOM      6  C   LIG    1       24.064 -25.034   5.929  0.00  0.00    +0.012 A 
ATOM      7  C   LIG    1       25.226 -24.255   5.967  0.00  0.00    -0.016 A 
ATOM      8  C   LIG    1       26.462 -24.899   6.109  0.00  0.00    +0.012 A 
ATOM      9  C   LIG    1       26.546 -26.292   6.212  0.00  0.00    +0.046 A 
BRANCH   4  10
ATOM     10  O   LIG    1       25.346 -28.438   6.140  0.00  0.00    -0.491 OA
BRANCH  10  11
ATOM     11  C   LIG    1       24.104 -29.090   6.445  0.00  0.00    +0.244 C 
BRANCH  11  12
ATOM     12  C   LIG    1       24.321 -30.155   7.540  0.00  0.00    +0.125 C 
BRANCH  12  13
ATOM     13  N   LIG    1       24.300 -29.693   8.949  0.00  0.00    -0.300 NA
BRANCH  13  15
ATOM     14  C   LIG    1       23.230 -30.045  11.224  0.00  0.00    +0.020 C 
ATOM     15  C   LIG    1       23.244 -30.382   9.730  0.00  0.00    +0.081 C 
ENDBRANCH  13  15
BRANCH  13  16
ATOM     16  C   LIG    1       25.625 -29.835   9.583  0.00  0.00    +0.081 C 
ATOM     17  C   LIG    1       26.516 -28.602   9.458  0.00  0.00    +0.020 C 
ENDBRANCH  13  16
ENDBRANCH  12  13
ENDBRANCH  11  12
ENDBRANCH  10  11
ENDBRANCH   4  10
ENDBRANCH   1   7
BRANCH   1  18
ATOM     18  C   LIG    1       25.766 -21.904   6.957  0.00  0.00    -0.016 A 
ATOM     19  C   LIG    1       27.035 -21.319   6.822  0.00  0.00    +0.008 A 
ATOM     20  C   LIG    1       27.557 -20.456   7.797  0.00  0.00    +0.001 A 
ATOM     21  C   LIG    1       26.828 -20.173   8.949  0.00  0.00    +0.000 A 
ATOM     22  C   LIG    1       25.578 -20.738   9.114  0.00  0.00    +0.001 A 
ATOM     23  C   LIG    1       25.048 -21.565   8.117  0.00  0.00    +0.008 A 
ENDBRANCH   1  18
BRANCH   2  24
ATOM     24  C   LIG    1       24.205 -20.836   4.476  0.00  0.00    -0.006 A 
ATOM     25  C   LIG    1       22.960 -20.335   4.877  0.00  0.00    +0.009 A 
ATOM     26  C   LIG    1       22.611 -19.007   4.606  0.00  0.00    +0.001 A 
ATOM     27  C   LIG    1       23.514 -18.166   3.960  0.00  0.00    +0.000 A 
ATOM     28  C   LIG    1       24.757 -18.652   3.560  0.00  0.00    +0.001 A 
ATOM     29  C   LIG    1       25.087 -19.993   3.786  0.00  0.00    +0.009 A 
ENDBRANCH   2  24
TORSDOF 9
ENDMDL
MODEL 4
REMARK VINA RESULT:      -8.0      4.882      9.116
REMARK  Name = *****
REMARK                            x       y       z     vdW  Elec       q    Type
REMARK                         _______ _______ _______ _____ _____    ______ ____
ROOT
ATOM      1  C   LIG    1       25.197 -22.816   5.864  0.00  0.00    +0.008 C 
ATOM      2  C   LIG    1       24.570 -22.329   4.765  0.00  0.00    +0.056 C 
ATOM      3 CL   LIG    1       24.000 -23.372   3.463  0.00  0.00    -0.082 Cl
ENDROOT
BRANCH   1   7
ATOM      4  C   LIG    1       25.405 -27.132   6.190  0.00  0.00    +0.121 A 
ATOM      5  C   LIG    1       24.164 -26.488   6.118  0.00  0.00    +0.046 A 
ATOM      6  C   LIG    1       24.074 -25.090   6.044  0.00  0.00    +0.012 A 
ATOM      7  C   LIG    1       25.239 -24.316   6.007  0.00  0.00    -0.016 A 
ATOM      8  C   LIG    1       26.478 -24.963   6.089  0.00  0.00    +0.012 A 
ATOM      9  C   LIG    1       26.563 -26.355   6.207  0.00  0.00    +0.046 A 
BRANCH   4  10
ATOM     10  O   LIG    1       25.353 -28.497   6.231  0.00  0.00    -0.491 OA
BRANCH  10  11
ATOM     11  C   LIG    1       24.126 -29.138   6.612  0.00  0.00    +0.244 C 
BRANCH  11  12
ATOM     12  C   LIG    1       24.413 -30.266   7.624  0.00  0.00    +0.125 C 
BRANCH  12  13
ATOM     13  N   LIG    1       25.757 -30.291   8.249  0.00  0.00    -0.300 NA
BRANCH  13  15
ATOM     14  C   LIG    1       26.646 -28.415   9.709  0.00  0.00    +0.020 C 
ATOM     15  C   LIG    1       25.746 -29.648   9.586  0.00  0.00    +0.081 C 
ENDBRANCH  13  15
BRANCH  13  16
ATOM     16  C   LIG    1       26.298 -31.663   8.311  0.00  0.00    +0.081 C 
ATOM     17  C   LIG    1       26.735 -32.227   6.963  0.00  0.00    +0.020 C 
ENDBRANCH  13  16
ENDBRANCH  12  13
ENDBRANCH  11  12
ENDBRANCH  10  11
ENDBRANCH   4  10
ENDBRANCH   1   7
BRANCH   1  18
ATOM     18  C   LIG    1       25.775 -21.951   6.968  0.00  0.00    -0.016 A 
ATOM     19  C   LIG    1       27.053 -21.385   6.838  0.00  0.00    +0.008 A 
ATOM     20  C   LIG    1       27.574 -20.510   7.803  0.00  0.00    +0.001 A 
ATOM     21  C   LIG    1       26.835 -20.196   8.940  0.00  0.00    +0.000 A 
ATOM     22  C   LIG    1       25.575 -20.742   9.100  0.00  0.00    +0.001 A 
ATOM     23  C   LIG    1       25.047 -21.581   8.113  0.00  0.00    +0.008 A 
ENDBRANCH   1  18
BRANCH   2  24
ATOM     24  C   LIG    1       24.217 -20.916   4.472  0.00  0.00    -0.006 A 
ATOM     25  C   LIG    1       25.121 -20.098   3.783  0.00  0.00    +0.009 A 
ATOM     26  C   LIG    1       24.807 -18.761   3.520  0.00  0.00    +0.001 A 
ATOM     27  C   LIG    1       23.577 -18.241   3.917  0.00  0.00    +0.000 A 
ATOM     28  C   LIG    1       22.667 -19.046   4.599  0.00  0.00    +0.001 A 
ATOM     29  C   LIG    1       23.001 -20.369   4.907  0.00  0.00    +0.009 A 
ENDBRANCH   2  24
TORSDOF 9
ENDMDL
MODEL 5
REMARK VINA RESULT:      -7.9      5.170      9.928
REMARK  Name = *****
REMARK                            x       y       z     vdW  Elec       q    Type
REMARK                         _______ _______ _______ _____ _____    ______ ____
ROOT
ATOM      1  C   LIG    1       25.231 -22.790   5.877  0.00  0.00    +0.008 C 
ATOM      2  C   LIG    1       24.603 -22.305   4.777  0.00  0.00    +0.056 C 
ATOM      3 CL   LIG    1       24.023 -23.352   3.483  0.00  0.00    -0.082 Cl
ENDROOT
BRANCH   1   7
ATOM      4  C   LIG    1       25.239 -27.092   6.394  0.00  0.00    +0.121 A 
ATOM      5  C   LIG    1       26.446 -26.385   6.338  0.00  0.00    +0.046 A 
ATOM      6  C   LIG    1       26.466 -24.996   6.140  0.00  0.00    +0.012 A 
ATOM      7  C   LIG    1       25.264 -24.289   6.027  0.00  0.00    -0.016 A 
ATOM      8  C   LIG    1       24.059 -25.001   6.073  0.00  0.00    +0.012 A 
ATOM      9  C   LIG    1       24.044 -26.392   6.228  0.00  0.00    +0.046 A 
BRANCH   4  10
ATOM     10  O   LIG    1       25.359 -28.434   6.618  0.00  0.00    -0.491 OA
BRANCH  10  11
ATOM     11  C   LIG    1       25.161 -29.345   5.527  0.00  0.00    +0.244 C 
BRANCH  11  12
ATOM     12  C   LIG    1       25.068 -30.791   6.056  0.00  0.00    +0.125 C 
BRANCH  12  13
ATOM     13  N   LIG    1       26.050 -31.771   5.530  0.00  0.00    -0.300 NA
BRANCH  13  15
ATOM     14  C   LIG    1       28.053 -33.188   6.179  0.00  0.00    +0.020 C 
ATOM     15  C   LIG    1       26.800 -32.429   6.627  0.00  0.00    +0.081 C 
ENDBRANCH  13  15
BRANCH  13  16
ATOM     16  C   LIG    1       25.404 -32.759   4.644  0.00  0.00    +0.081 C 
ATOM     17  C   LIG    1       25.821 -32.657   3.180  0.00  0.00    +0.020 C 
ENDBRANCH  13  16
ENDBRANCH  12  13
ENDBRANCH  11  12
ENDBRANCH  10  11
ENDBRANCH   4  10
ENDBRANCH   1   7
BRANCH   1  18
ATOM     18  C   LIG    1       25.817 -21.923   6.974  0.00  0.00    -0.016 A 
ATOM     19  C   LIG    1       27.119 -21.409   6.861  0.00  0.00    +0.008 A 
ATOM     20  C   LIG    1       27.653 -20.533   7.817  0.00  0.00    +0.001 A 
ATOM     21  C   LIG    1       26.901 -20.164   8.930  0.00  0.00    +0.000 A 
ATOM     22  C   LIG    1       25.618 -20.657   9.073  0.00  0.00    +0.001 A 
ATOM     23  C   LIG    1       25.079 -21.498   8.093  0.00  0.00    +0.008 A 
ENDBRANCH   1  18
BRANCH   2  24
ATOM     24  C   LIG    1       24.257 -20.892   4.478  0.00  0.00    -0.006 A 
ATOM     25  C   LIG    1       25.174 -20.076   3.803  0.00  0.00    +0.009 A 
ATOM     26  C   LIG    1       24.866 -18.738   3.533  0.00  0.00    +0.001 A 
ATOM     27  C   LIG    1       23.631 -18.215   3.911  0.00  0.00    +0.000 A 
ATOM     28  C   LIG    1       22.709 -19.019   4.579  0.00  0.00    +0.001 A 
ATOM     29  C   LIG    1       23.036 -20.342   4.893  0.00  0.00    +0.009 A 
ENDBRANCH   2  24
TORSDOF 9
ENDMDL
MODEL 6
REMARK VINA RESULT:      -7.9      5.123      9.910
REMARK  Name = *****
REMARK                            x       y       z     vdW  Elec       q    Type
REMARK                         _______ _______ _______ _____ _____    ______ ____
ROOT
ATOM      1  C   LIG    1       25.191 -22.768   5.847  0.00  0.00    +0.008 C 
ATOM      2  C   LIG    1       24.581 -22.274   4.741  0.00  0.00    +0.056 C 
ATOM      3 CL   LIG    1       24.027 -23.309   3.427  0.00  0.00    -0.082 Cl
ENDROOT
BRANCH   1   7
ATOM      4  C   LIG    1       25.204 -27.075   6.319  0.00  0.00    +0.121 A 
ATOM      5  C   LIG    1       26.408 -26.362   6.309  0.00  0.00    +0.046 A 
ATOM      6  C   LIG    1       26.428 -24.971   6.126  0.00  0.00    +0.012 A 
ATOM      7  C   LIG    1       25.227 -24.268   5.983  0.00  0.00    -0.016 A 
ATOM      8  C   LIG    1       24.024 -24.987   5.982  0.00  0.00    +0.012 A 
ATOM      9  C   LIG    1       24.012 -26.379   6.122  0.00  0.00    +0.046 A 
BRANCH   4  10
ATOM     10  O   LIG    1       25.323 -28.419   6.532  0.00  0.00    -0.491 OA
BRANCH  10  11
ATOM     11  C   LIG    1       24.629 -29.329   5.666  0.00  0.00    +0.244 C 
BRANCH  11  12
ATOM     12  C   LIG    1       24.824 -30.778   6.156  0.00  0.00    +0.125 C 
BRANCH  12  13
ATOM     13  N   LIG    1       23.698 -31.402   6.894  0.00  0.00    -0.300 NA
BRANCH  13  15
ATOM     14  C   LIG    1       24.240 -33.193   5.178  0.00  0.00    +0.020 C 
ATOM     15  C   LIG    1       23.311 -32.702   6.293  0.00  0.00    +0.081 C 
ENDBRANCH  13  15
BRANCH  13  16
ATOM     16  C   LIG    1       24.003 -31.537   8.331  0.00  0.00    +0.081 C 
ATOM     17  C   LIG    1       23.656 -30.308   9.164  0.00  0.00    +0.020 C 
ENDBRANCH  13  16
ENDBRANCH  12  13
ENDBRANCH  11  12
ENDBRANCH  10  11
ENDBRANCH   4  10
ENDBRANCH   1   7
BRANCH   1  18
ATOM     18  C   LIG    1       25.755 -21.910   6.964  0.00  0.00    -0.016 A 
ATOM     19  C   LIG    1       27.043 -21.360   6.862  0.00  0.00    +0.008 A 
ATOM     20  C   LIG    1       27.554 -20.492   7.838  0.00  0.00    +0.001 A 
ATOM     21  C   LIG    1       26.793 -20.167   8.958  0.00  0.00    +0.000 A 
ATOM     22  C   LIG    1       25.523 -20.697   9.090  0.00  0.00    +0.001 A 
ATOM     23  C   LIG    1       25.007 -21.530   8.091  0.00  0.00    +0.008 A 
ENDBRANCH   1  18
BRANCH   2  24
ATOM     24  C   LIG    1       24.236 -20.859   4.451  0.00  0.00    -0.006 A 
ATOM     25  C   LIG    1       22.995 -20.346   4.850  0.00  0.00    +0.009 A 
ATOM     26  C   LIG    1       22.653 -19.020   4.564  0.00  0.00    +0.001 A 
ATOM     27  C   LIG    1       23.557 -18.191   3.904  0.00  0.00    +0.000 A 
ATOM     28  C   LIG    1       24.797 -18.689   3.506  0.00  0.00    +0.001 A 
ATOM     29  C   LIG    1       25.120 -20.029   3.747  0.00  0.00    +0.009 A 
ENDBRANCH   2  24
TORSDOF 9
ENDMDL
MODEL 7
REMARK VINA RESULT:      -7.6      0.802      1.842
REMARK  Name = *****
REMARK                            x       y       z     vdW  Elec       q    Type
REMARK                         _______ _______ _______ _____ _____    ______ ____
ROOT
ATOM      1  C   LIG    1       26.616 -20.668   6.159  0.00  0.00    +0.008 C 
ATOM      2  C   LIG    1       26.294 -21.785   6.857  0.00  0.00    +0.056 C 
ATOM      3 CL   LIG    1       27.390 -22.516   8.026  0.00  0.00    -0.082 Cl
ENDROOT
BRANCH   1   7
ATOM      4  C   LIG    1       30.237 -18.624   7.376  0.00  0.00    +0.121 A 
ATOM      5  C   LIG    1       29.859 -18.649   6.029  0.00  0.00    +0.046 A 
ATOM      6  C   LIG    1       28.707 -19.331   5.610  0.00  0.00    +0.012 A 
ATOM      7  C   LIG    1       27.896 -19.975   6.550  0.00  0.00    -0.016 A 
ATOM      8  C   LIG    1       28.283 -19.958   7.896  0.00  0.00    +0.012 A 
ATOM      9  C   LIG    1       29.456 -19.312   8.304  0.00  0.00    +0.046 A 
BRANCH   4  10
ATOM     10  O   LIG    1       31.364 -17.902   7.653  0.00  0.00    -0.491 OA
BRANCH  10  11
ATOM     11  C   LIG    1       32.025 -18.095   8.913  0.00  0.00    +0.244 C 
BRANCH  11  12
ATOM     12  C   LIG    1       32.720 -16.789   9.350  0.00  0.00    +0.125 C 
BRANCH  12  13
ATOM     13  N   LIG    1       32.202 -16.120  10.568  0.00  0.00    -0.300 NA
BRANCH  13  15
ATOM     14  C   LIG    1       30.514 -17.830  11.385  0.00  0.00    +0.020 C 
ATOM     15  C   LIG    1       30.771 -16.440  10.795  0.00  0.00    +0.081 C 
ENDBRANCH  13  15
BRANCH  13  16
ATOM     16  C   LIG    1       33.025 -16.438  11.750  0.00  0.00    +0.081 C 
ATOM     17  C   LIG    1       32.565 -15.760  13.037  0.00  0.00    +0.020 C 
ENDBRANCH  13  16
ENDBRANCH  12  13
ENDBRANCH  11  12
ENDBRANCH  10  11
ENDBRANCH   4  10
ENDBRANCH   1   7
BRANCH   1  18
ATOM     18  C   LIG    1       25.739 -20.051   5.085  0.00  0.00    -0.016 A 
ATOM     19  C   LIG    1       24.373 -20.366   5.010  0.00  0.00    +0.008 A 
ATOM     20  C   LIG    1       23.522 -19.743   4.086  0.00  0.00    +0.001 A 
ATOM     21  C   LIG    1       24.023 -18.800   3.192  0.00  0.00    +0.000 A 
ATOM     22  C   LIG    1       25.365 -18.472   3.237  0.00  0.00    +0.001 A 
ATOM     23  C   LIG    1       26.198 -19.069   4.190  0.00  0.00    +0.008 A 
ENDBRANCH   1  18
BRANCH   2  24
ATOM     24  C   LIG    1       25.018 -22.545   6.815  0.00  0.00    -0.006 A 
ATOM     25  C   LIG    1       24.991 -23.835   6.272  0.00  0.00    +0.009 A 
ATOM     26  C   LIG    1       23.791 -24.552   6.211  0.00  0.00    +0.001 A 
ATOM     27  C   LIG    1       22.618 -23.996   6.716  0.00  0.00    +0.000 A 
ATOM     28  C   LIG    1       22.633 -22.714   7.263  0.00  0.00    +0.001 A 
ATOM     29  C   LIG    1       23.823 -21.978   7.279  0.00  0.00    +0.009 A 
ENDBRANCH   2  24
TORSDOF 9
ENDMDL
MODEL 8
REMARK VINA RESULT:      -7.4      4.376      9.232
REMARK  Name = *****
REMARK                            x       y       z     vdW  Elec       q    Type
REMARK                         _______ _______ _______ _____ _____    ______ ____
ROOT
ATOM      1  C   LIG    1       25.809 -21.801   6.244  0.00  0.00    +0.008 C 
ATOM      2  C   LIG    1       27.026 -21.563   6.792  0.00  0.00    +0.056 C 
ATOM      3 CL   LIG    1       27.886 -22.772   7.742  0.00  0.00    -0.082 Cl
ENDROOT
BRANCH   1   7
ATOM      4  C   LIG    1       24.390 -25.890   6.433  0.00  0.00    +0.121 A 
ATOM      5  C   LIG    1       23.484 -24.825   6.496  0.00  0.00    +0.046 A 
ATOM      6  C   LIG    1       23.925 -23.494   6.468  0.00  0.00    +0.012 A 
ATOM      7  C   LIG    1       25.290 -23.212   6.342  0.00  0.00    -0.016 A 
ATOM      8  C   LIG    1       26.194 -24.281   6.290  0.00  0.00    +0.012 A 
ATOM      9  C   LIG    1       25.754 -25.607   6.362  0.00  0.00    +0.046 A 
BRANCH   4  10
ATOM     10  O   LIG    1       23.828 -27.136   6.443  0.00  0.00    -0.491 OA
BRANCH  10  11
ATOM     11  C   LIG    1       24.243 -28.097   5.460  0.00  0.00    +0.244 C 
BRANCH  11  12
ATOM     12  C   LIG    1       24.847 -29.334   6.155  0.00  0.00    +0.125 C 
BRANCH  12  13
ATOM     13  N   LIG    1       23.920 -30.203   6.921  0.00  0.00    -0.300 NA
BRANCH  13  15
ATOM     14  C   LIG    1       25.087 -31.889   5.424  0.00  0.00    +0.020 C 
ATOM     15  C   LIG    1       23.996 -31.612   6.463  0.00  0.00    +0.081 C 
ENDBRANCH  13  15
BRANCH  13  16
ATOM     16  C   LIG    1       24.151 -30.090   8.374  0.00  0.00    +0.081 C 
ATOM     17  C   LIG    1       25.477 -29.436   8.749  0.00  0.00    +0.020 C 
ENDBRANCH  13  16
ENDBRANCH  12  13
ENDBRANCH  11  12
ENDBRANCH  10  11
ENDBRANCH   4  10
ENDBRANCH   1   7
BRANCH   1  18
ATOM     18  C   LIG    1       24.997 -20.765   5.489  0.00  0.00    -0.016 A 
ATOM     19  C   LIG    1       25.442 -20.270   4.253  0.00  0.00    +0.008 A 
ATOM     20  C   LIG    1       24.669 -19.381   3.492  0.00  0.00    +0.001 A 
ATOM     21  C   LIG    1       23.434 -18.943   3.963  0.00  0.00    +0.000 A 
ATOM     22  C   LIG    1       22.970 -19.407   5.179  0.00  0.00    +0.001 A 
ATOM     23  C   LIG    1       23.730 -20.326   5.912  0.00  0.00    +0.008 A 
ENDBRANCH   1  18
BRANCH   2  24
ATOM     24  C   LIG    1       27.850 -20.333   6.673  0.00  0.00    -0.006 A 
ATOM     25  C   LIG    1       27.988 -19.701   5.431  0.00  0.00    +0.009 A 
ATOM     26  C   LIG    1       28.778 -18.553   5.304  0.00  0.00    +0.001 A 
ATOM     27  C   LIG    1       29.410 -18.013   6.422  0.00  0.00    +0.000 A 
ATOM     28  C   LIG    1       29.276 -18.630   7.665  0.00  0.00    +0.001 A 
ATOM     29  C   LIG    1       28.528 -19.806   7.782  0.00  0.00    +0.009 A 
ENDBRANCH   2  24
TORSDOF 9
ENDMDL
MODEL 9
REMARK VINA RESULT:      -7.3      4.243      8.917
REMARK  Name = *****
REMARK                            x       y       z     vdW  Elec       q    Type
REMARK                         _______ _______ _______ _____ _____    ______ ____
ROOT
ATOM      1  C   LIG    1       25.802 -21.792   6.250  0.00  0.00    +0.008 C 
ATOM      2  C   LIG    1       27.019 -21.557   6.800  0.00  0.00    +0.056 C 
ATOM      3 CL   LIG    1       27.870 -22.765   7.760  0.00  0.00    -0.082 Cl
ENDROOT
BRANCH   1   7
ATOM      4  C   LIG    1       24.360 -25.872   6.459  0.00  0.00    +0.121 A 
ATOM      5  C   LIG    1       23.463 -24.801   6.535  0.00  0.00    +0.046 A 
ATOM      6  C   LIG    1       23.912 -23.472   6.501  0.00  0.00    +0.012 A 
ATOM      7  C   LIG    1       25.276 -23.200   6.355  0.00  0.00    -0.016 A 
ATOM      8  C   LIG    1       26.173 -24.274   6.290  0.00  0.00    +0.012 A 
ATOM      9  C   LIG    1       25.725 -25.598   6.367  0.00  0.00    +0.046 A 
BRANCH   4  10
ATOM     10  O   LIG    1       23.791 -27.114   6.476  0.00  0.00    -0.491 OA
BRANCH  10  11
ATOM     11  C   LIG    1       24.339 -28.146   5.642  0.00  0.00    +0.244 C 
BRANCH  11  12
ATOM     12  C   LIG    1       24.229 -29.511   6.351  0.00  0.00    +0.125 C 
BRANCH  12  13
ATOM     13  N   LIG    1       25.390 -29.950   7.162  0.00  0.00    -0.300 NA
BRANCH  13  15
ATOM     14  C   LIG    1       26.368 -28.503   9.004  0.00  0.00    +0.020 C 
ATOM     15  C   LIG    1       25.277 -29.485   8.566  0.00  0.00    +0.081 C 
ENDBRANCH  13  15
BRANCH  13  16
ATOM     16  C   LIG    1       25.579 -31.412   7.087  0.00  0.00    +0.081 C 
ATOM     17  C   LIG    1       26.193 -31.899   5.778  0.00  0.00    +0.020 C 
ENDBRANCH  13  16
ENDBRANCH  12  13
ENDBRANCH  11  12
ENDBRANCH  10  11
ENDBRANCH   4  10
ENDBRANCH   1   7
BRANCH   1  18
ATOM     18  C   LIG    1       24.998 -20.756   5.486  0.00  0.00    -0.016 A 
ATOM     19  C   LIG    1       25.449 -20.272   4.248  0.00  0.00    +0.008 A 
ATOM     20  C   LIG    1       24.683 -19.383   3.480  0.00  0.00    +0.001 A 
ATOM     21  C   LIG    1       23.449 -18.936   3.944  0.00  0.00    +0.000 A 
ATOM     22  C   LIG    1       22.979 -19.390   5.162  0.00  0.00    +0.001 A 
ATOM     23  C   LIG    1       23.732 -20.309   5.902  0.00  0.00    +0.008 A 
ENDBRANCH   1  18
BRANCH   2  24
ATOM     24  C   LIG    1       27.850 -20.332   6.676  0.00  0.00    -0.006 A 
ATOM     25  C   LIG    1       27.975 -19.695   5.435  0.00  0.00    +0.009 A 
ATOM     26  C   LIG    1       28.771 -18.551   5.303  0.00  0.00    +0.001 A 
ATOM     27  C   LIG    1       29.422 -18.021   6.415  0.00  0.00    +0.000 A 
ATOM     28  C   LIG    1       29.301 -18.644   7.656  0.00  0.00    +0.001 A 
ATOM     29  C   LIG    1       28.546 -19.815   7.778  0.00  0.00    +0.009 A 
ENDBRANCH   2  24
TORSDOF 9
ENDMDL
