MODEL 1
REMARK VINA RESULT:      -4.6      0.000      0.000
REMARK  Name = *****
REMARK                            x       y       z     vdW  Elec       q    Type
REMARK                         _______ _______ _______ _____ _____    ______ ____
ROOT
ATOM      1  O   LIG    1       24.637 -15.805   3.643  0.00  0.00    -0.454 OA
ENDROOT
BRANCH   1   2
ATOM      2  C   LIG    1       25.272 -14.493   3.669  0.00  0.00    +0.123 C 
ATOM      3  C   LIG    1       25.340 -14.054   2.194  0.00  0.00    +0.057 C 
BRANCH   2   5
ATOM      4  C   LIG    1       23.936 -12.260   3.674  0.00  0.00    +0.008 C 
ATOM      5  C   LIG    1       24.378 -13.494   4.461  0.00  0.00    +0.045 C 
ENDBRANCH   2   5
BRANCH   2   6
ATOM      6  C   LIG    1       26.732 -14.504   4.278  0.00  0.00    +0.131 C 
BRANCH   6   7
ATOM      7  N   LIG    1       27.494 -13.227   4.382  0.00  0.00    -0.305 NA
ATOM      8  C   LIG    1       28.725 -13.260   3.593  0.00  0.00    +0.104 C 
ATOM      9  C   LIG    1       27.856 -12.968   5.785  0.00  0.00    +0.104 C 
ENDBRANCH   6   7
ENDBRANCH   2   6
ENDBRANCH   1   2
BRANCH   1  10
ATOM     10  C   LIG    1       25.356 -16.940   3.452  0.00  0.00    +0.340 C 
ATOM     11  O   LIG    1       26.465 -17.035   2.974  0.00  0.00    -0.245 OA
BRANCH  10  12
ATOM     12  C   LIG    1       24.482 -18.105   3.766  0.00  0.00    +0.059 A 
ATOM     13  C   LIG    1       23.156 -17.856   4.147  0.00  0.00    +0.015 A 
ATOM     14  C   LIG    1       22.348 -18.904   4.592  0.00  0.00    +0.001 A 
ATOM     15  C   LIG    1       22.853 -20.203   4.643  0.00  0.00    +0.000 A 
ATOM     16  C   LIG    1       24.157 -20.463   4.221  0.00  0.00    +0.001 A 
ATOM     17  C   LIG    1       24.971 -19.418   3.777  0.00  0.00    +0.015 A 
ENDBRANCH  10  12
ENDBRANCH   1  10
TORSDOF 6
ENDMDL
MODEL 2
REMARK VINA RESULT:      -4.3      1.331      2.923
REMARK  Name = *****
REMARK                            x       y       z     vdW  Elec       q    Type
REMARK                         _______ _______ _______ _____ _____    ______ ____
ROOT
ATOM      1  O   LIG    1       25.450 -15.934   2.820  0.00  0.00    -0.454 OA
ENDROOT
BRANCH   1   2
ATOM      2  C   LIG    1       25.659 -14.547   3.219  0.00  0.00    +0.123 C 
ATOM      3  C   LIG    1       25.906 -14.604   4.738  0.00  0.00    +0.057 C 
BRANCH   2   5
ATOM      4  C   LIG    1       28.025 -13.493   3.455  0.00  0.00    +0.008 C 
ATOM      5  C   LIG    1       26.926 -13.985   2.512  0.00  0.00    +0.045 C 
ENDBRANCH   2   5
BRANCH   2   6
ATOM      6  C   LIG    1       24.420 -13.607   2.927  0.00  0.00    +0.131 C 
BRANCH   6   7
ATOM      7  N   LIG    1       24.566 -12.131   3.082  0.00  0.00    -0.305 NA
ATOM      8  C   LIG    1       23.677 -11.600   4.114  0.00  0.00    +0.104 C 
ATOM      9  C   LIG    1       24.250 -11.457   1.812  0.00  0.00    +0.104 C 
ENDBRANCH   6   7
ENDBRANCH   2   6
ENDBRANCH   1   2
BRANCH   1  10
ATOM     10  C   LIG    1       26.163 -16.949   3.370  0.00  0.00    +0.340 C 
ATOM     11  O   LIG    1       27.370 -17.040   3.449  0.00  0.00    -0.245 OA
BRANCH  10  12
ATOM     12  C   LIG    1       25.221 -18.049   3.717  0.00  0.00    +0.059 A 
ATOM     13  C   LIG    1       25.726 -19.355   3.796  0.00  0.00    +0.015 A 
ATOM     14  C   LIG    1       24.856 -20.432   3.970  0.00  0.00    +0.001 A 
ATOM     15  C   LIG    1       23.483 -20.210   4.084  0.00  0.00    +0.000 A 
ATOM     16  C   LIG    1       22.981 -18.909   4.054  0.00  0.00    +0.001 A 
ATOM     17  C   LIG    1       23.847 -17.827   3.876  0.00  0.00    +0.015 A 
ENDBRANCH  10  12
ENDBRANCH   1  10
TORSDOF 6
ENDMDL
MODEL 3
REMARK VINA RESULT:      -4.2      1.174      1.756
REMARK  Name = *****
REMARK                            x       y       z     vdW  Elec       q    Type
REMARK                         _______ _______ _______ _____ _____    ______ ____
ROOT
ATOM      1  O   LIG    1       24.623 -15.194   3.709  0.00  0.00    -0.454 OA
ENDROOT
BRANCH   1   2
ATOM      2  C   LIG    1       24.895 -13.768   3.579  0.00  0.00    +0.123 C 
ATOM      3  C   LIG    1       23.935 -13.278   2.479  0.00  0.00    +0.057 C 
BRANCH   2   5
ATOM      4  C   LIG    1       23.849 -11.700   4.761  0.00  0.00    +0.008 C 
ATOM      5  C   LIG    1       24.558 -13.046   4.916  0.00  0.00    +0.045 C 
ENDBRANCH   2   5
BRANCH   2   6
ATOM      6  C   LIG    1       26.384 -13.440   3.154  0.00  0.00    +0.131 C 
BRANCH   6   7
ATOM      7  N   LIG    1       27.497 -13.716   4.108  0.00  0.00    -0.305 NA
ATOM      8  C   LIG    1       28.718 -12.998   3.745  0.00  0.00    +0.104 C 
ATOM      9  C   LIG    1       27.800 -15.156   4.126  0.00  0.00    +0.104 C 
ENDBRANCH   6   7
ENDBRANCH   2   6
ENDBRANCH   1   2
BRANCH   1  10
ATOM     10  C   LIG    1       23.494 -15.652   4.308  0.00  0.00    +0.340 C 
ATOM     11  O   LIG    1       22.709 -15.016   4.978  0.00  0.00    -0.245 OA
BRANCH  10  12
ATOM     12  C   LIG    1       23.454 -17.133   4.159  0.00  0.00    +0.059 A 
ATOM     13  C   LIG    1       22.311 -17.813   4.604  0.00  0.00    +0.015 A 
ATOM     14  C   LIG    1       22.290 -19.209   4.621  0.00  0.00    +0.001 A 
ATOM     15  C   LIG    1       23.400 -19.930   4.180  0.00  0.00    +0.000 A 
ATOM     16  C   LIG    1       24.521 -19.258   3.693  0.00  0.00    +0.001 A 
ATOM     17  C   LIG    1       24.549 -17.861   3.675  0.00  0.00    +0.015 A 
ENDBRANCH  10  12
ENDBRANCH   1  10
TORSDOF 6
ENDMDL
MODEL 4
REMARK VINA RESULT:      -4.1      2.478      6.108
REMARK  Name = *****
REMARK                            x       y       z     vdW  Elec       q    Type
REMARK                         _______ _______ _______ _____ _____    ______ ____
ROOT
ATOM      1  O   LIG    1       25.726 -17.852   2.928  0.00  0.00    -0.454 OA
ENDROOT
BRANCH   1   2
ATOM      2  C   LIG    1       25.289 -19.023   3.678  0.00  0.00    +0.123 C 
ATOM      3  C   LIG    1       24.956 -20.079   2.609  0.00  0.00    +0.057 C 
BRANCH   2   5
ATOM      4  C   LIG    1       26.035 -20.447   5.723  0.00  0.00    +0.008 C 
ATOM      5  C   LIG    1       26.458 -19.541   4.566  0.00  0.00    +0.045 C 
ENDBRANCH   2   5
BRANCH   2   6
ATOM      6  C   LIG    1       24.010 -18.764   4.573  0.00  0.00    +0.131 C 
BRANCH   6   7
ATOM      7  N   LIG    1       22.715 -19.403   4.204  0.00  0.00    -0.305 NA
ATOM      8  C   LIG    1       21.617 -18.437   4.176  0.00  0.00    +0.104 C 
ATOM      9  C   LIG    1       22.375 -20.454   5.177  0.00  0.00    +0.104 C 
ENDBRANCH   6   7
ENDBRANCH   2   6
ENDBRANCH   1   2
BRANCH   1  10
ATOM     10  C   LIG    1       26.547 -16.920   3.477  0.00  0.00    +0.340 C 
ATOM     11  O   LIG    1       27.565 -17.116   4.105  0.00  0.00    -0.245 OA
BRANCH  10  12
ATOM     12  C   LIG    1       25.898 -15.586   3.338  0.00  0.00    +0.059 A 
ATOM     13  C   LIG    1       26.617 -14.562   2.705  0.00  0.00    +0.015 A 
ATOM     14  C   LIG    1       26.110 -13.261   2.686  0.00  0.00    +0.001 A 
ATOM     15  C   LIG    1       24.879 -12.981   3.280  0.00  0.00    +0.000 A 
ATOM     16  C   LIG    1       24.139 -14.006   3.870  0.00  0.00    +0.001 A 
ATOM     17  C   LIG    1       24.642 -15.309   3.895  0.00  0.00    +0.015 A 
ENDBRANCH  10  12
ENDBRANCH   1  10
TORSDOF 6
ENDMDL
MODEL 5
REMARK VINA RESULT:      -3.8      1.101      1.731
REMARK  Name = *****
REMARK                            x       y       z     vdW  Elec       q    Type
REMARK                         _______ _______ _______ _____ _____    ______ ____
ROOT
ATOM      1  O   LIG    1       24.966 -15.378   3.557  0.00  0.00    -0.454 OA
ENDROOT
BRANCH   1   2
ATOM      2  C   LIG    1       25.329 -13.996   3.267  0.00  0.00    +0.123 C 
ATOM      3  C   LIG    1       26.398 -14.088   2.163  0.00  0.00    +0.057 C 
BRANCH   2   5
ATOM      4  C   LIG    1       23.882 -11.834   3.301  0.00  0.00    +0.008 C 
ATOM      5  C   LIG    1       24.088 -13.233   2.719  0.00  0.00    +0.045 C 
ENDBRANCH   2   5
BRANCH   2   6
ATOM      6  C   LIG    1       25.927 -13.221   4.511  0.00  0.00    +0.131 C 
BRANCH   6   7
ATOM      7  N   LIG    1       27.258 -13.619   5.052  0.00  0.00    -0.305 NA
ATOM      8  C   LIG    1       27.257 -13.681   6.513  0.00  0.00    +0.104 C 
ATOM      9  C   LIG    1       28.283 -12.648   4.635  0.00  0.00    +0.104 C 
ENDBRANCH   6   7
ENDBRANCH   2   6
ENDBRANCH   1   2
BRANCH   1  10
ATOM     10  C   LIG    1       23.793 -15.695   4.162  0.00  0.00    +0.340 C 
ATOM     11  O   LIG    1       23.064 -14.952   4.784  0.00  0.00    -0.245 OA
BRANCH  10  12
ATOM     12  C   LIG    1       23.615 -17.172   4.094  0.00  0.00    +0.059 A 
ATOM     13  C   LIG    1       22.415 -17.718   4.570  0.00  0.00    +0.015 A 
ATOM     14  C   LIG    1       22.265 -19.103   4.663  0.00  0.00    +0.001 A 
ATOM     15  C   LIG    1       23.303 -19.946   4.266  0.00  0.00    +0.000 A 
ATOM     16  C   LIG    1       24.481 -19.409   3.748  0.00  0.00    +0.001 A 
ATOM     17  C   LIG    1       24.638 -18.024   3.655  0.00  0.00    +0.015 A 
ENDBRANCH  10  12
ENDBRANCH   1  10
TORSDOF 6
ENDMDL
MODEL 6
REMARK VINA RESULT:      -3.8      2.695      6.488
REMARK  Name = *****
REMARK                            x       y       z     vdW  Elec       q    Type
REMARK                         _______ _______ _______ _____ _____    ______ ____
ROOT
ATOM      1  O   LIG    1       24.863 -18.327   3.367  0.00  0.00    -0.454 OA
ENDROOT
BRANCH   1   2
ATOM      2  C   LIG    1       24.996 -19.598   4.069  0.00  0.00    +0.123 C 
ATOM      3  C   LIG    1       24.745 -20.674   2.996  0.00  0.00    +0.057 C 
BRANCH   2   5
ATOM      4  C   LIG    1       26.558 -20.457   5.963  0.00  0.00    +0.008 C 
ATOM      5  C   LIG    1       26.446 -19.745   4.615  0.00  0.00    +0.045 C 
ENDBRANCH   2   5
BRANCH   2   6
ATOM      6  C   LIG    1       23.958 -19.785   5.249  0.00  0.00    +0.131 C 
BRANCH   6   7
ATOM      7  N   LIG    1       23.136 -21.028   5.313  0.00  0.00    -0.305 NA
ATOM      8  C   LIG    1       21.760 -20.796   4.877  0.00  0.00    +0.104 C 
ATOM      9  C   LIG    1       23.100 -21.537   6.694  0.00  0.00    +0.104 C 
ENDBRANCH   6   7
ENDBRANCH   2   6
ENDBRANCH   1   2
BRANCH   1  10
ATOM     10  C   LIG    1       24.045 -17.344   3.823  0.00  0.00    +0.340 C 
ATOM     11  O   LIG    1       22.870 -17.439   4.107  0.00  0.00    -0.245 OA
BRANCH  10  12
ATOM     12  C   LIG    1       24.783 -16.052   3.755  0.00  0.00    +0.059 A 
ATOM     13  C   LIG    1       26.133 -16.079   3.380  0.00  0.00    +0.015 A 
ATOM     14  C   LIG    1       26.901 -14.915   3.446  0.00  0.00    +0.001 A 
ATOM     15  C   LIG    1       26.321 -13.719   3.868  0.00  0.00    +0.000 A 
ATOM     16  C   LIG    1       24.966 -13.677   4.197  0.00  0.00    +0.001 A 
ATOM     17  C   LIG    1       24.194 -14.840   4.136  0.00  0.00    +0.015 A 
ENDBRANCH  10  12
ENDBRANCH   1  10
TORSDOF 6
ENDMDL
MODEL 7
REMARK VINA RESULT:      -3.6      2.338      6.015
REMARK  Name = *****
REMARK                            x       y       z     vdW  Elec       q    Type
REMARK                         _______ _______ _______ _____ _____    ______ ____
ROOT
ATOM      1  O   LIG    1       24.218 -17.790   3.594  0.00  0.00    -0.454 OA
ENDROOT
BRANCH   1   2
ATOM      2  C   LIG    1       24.070 -19.137   4.131  0.00  0.00    +0.123 C 
ATOM      3  C   LIG    1       22.585 -19.250   4.522  0.00  0.00    +0.057 C 
BRANCH   2   5
ATOM      4  C   LIG    1       23.788 -21.567   3.247  0.00  0.00    +0.008 C 
ATOM      5  C   LIG    1       24.391 -20.180   3.022  0.00  0.00    +0.045 C 
ENDBRANCH   2   5
BRANCH   2   6
ATOM      6  C   LIG    1       24.967 -19.416   5.404  0.00  0.00    +0.131 C 
BRANCH   6   7
ATOM      7  N   LIG    1       25.944 -20.542   5.382  0.00  0.00    -0.305 NA
ATOM      8  C   LIG    1       25.644 -21.547   6.401  0.00  0.00    +0.104 C 
ATOM      9  C   LIG    1       27.304 -20.035   5.625  0.00  0.00    +0.104 C 
ENDBRANCH   6   7
ENDBRANCH   2   6
ENDBRANCH   1   2
BRANCH   1  10
ATOM     10  C   LIG    1       25.438 -17.257   3.332  0.00  0.00    +0.340 C 
ATOM     11  O   LIG    1       26.461 -17.856   3.074  0.00  0.00    -0.245 OA
BRANCH  10  12
ATOM     12  C   LIG    1       25.374 -15.791   3.588  0.00  0.00    +0.059 A 
ATOM     13  C   LIG    1       26.568 -15.058   3.546  0.00  0.00    +0.015 A 
ATOM     14  C   LIG    1       26.577 -13.714   3.925  0.00  0.00    +0.001 A 
ATOM     15  C   LIG    1       25.395 -13.094   4.329  0.00  0.00    +0.000 A 
ATOM     16  C   LIG    1       24.196 -13.807   4.327  0.00  0.00    +0.001 A 
ATOM     17  C   LIG    1       24.181 -15.152   3.952  0.00  0.00    +0.015 A 
ENDBRANCH  10  12
ENDBRANCH   1  10
TORSDOF 6
ENDMDL
MODEL 8
REMARK VINA RESULT:      -3.6      2.740      6.038
REMARK  Name = *****
REMARK                            x       y       z     vdW  Elec       q    Type
REMARK                         _______ _______ _______ _____ _____    ______ ____
ROOT
ATOM      1  O   LIG    1       24.063 -19.241   3.972  0.00  0.00    -0.454 OA
ENDROOT
BRANCH   1   2
ATOM      2  C   LIG    1       23.973 -20.406   4.845  0.00  0.00    +0.123 C 
ATOM      3  C   LIG    1       23.373 -19.874   6.159  0.00  0.00    +0.057 C 
BRANCH   2   5
ATOM      4  C   LIG    1       21.646 -21.568   4.920  0.00  0.00    +0.008 C 
ATOM      5  C   LIG    1       23.002 -21.452   4.223  0.00  0.00    +0.045 C 
ENDBRANCH   2   5
BRANCH   2   6
ATOM      6  C   LIG    1       25.370 -21.085   5.146  0.00  0.00    +0.131 C 
BRANCH   6   7
ATOM      7  N   LIG    1       26.286 -20.467   6.147  0.00  0.00    -0.305 NA
ATOM      8  C   LIG    1       27.427 -19.809   5.511  0.00  0.00    +0.104 C 
ATOM      9  C   LIG    1       26.803 -21.498   7.062  0.00  0.00    +0.104 C 
ENDBRANCH   6   7
ENDBRANCH   2   6
ENDBRANCH   1   2
BRANCH   1  10
ATOM     10  C   LIG    1       23.200 -18.199   4.084  0.00  0.00    +0.340 C 
ATOM     11  O   LIG    1       21.989 -18.248   4.104  0.00  0.00    -0.245 OA
BRANCH  10  12
ATOM     12  C   LIG    1       23.981 -16.934   4.002  0.00  0.00    +0.059 A 
ATOM     13  C   LIG    1       23.333 -15.732   4.319  0.00  0.00    +0.015 A 
ATOM     14  C   LIG    1       23.980 -14.513   4.113  0.00  0.00    +0.001 A 
ATOM     15  C   LIG    1       25.280 -14.488   3.609  0.00  0.00    +0.000 A 
ATOM     16  C   LIG    1       25.947 -15.683   3.336  0.00  0.00    +0.001 A 
ATOM     17  C   LIG    1       25.303 -16.906   3.537  0.00  0.00    +0.015 A 
ENDBRANCH  10  12
ENDBRANCH   1  10
TORSDOF 6
ENDMDL
MODEL 9
REMARK VINA RESULT:      -3.3      1.680      3.310
REMARK  Name = *****
REMARK                            x       y       z     vdW  Elec       q    Type
REMARK                         _______ _______ _______ _____ _____    ______ ____
ROOT
ATOM      1  O   LIG    1       27.235 -15.329   4.270  0.00  0.00    -0.454 OA
ENDROOT
BRANCH   1   2
ATOM      2  C   LIG    1       27.149 -13.875   4.348  0.00  0.00    +0.123 C 
ATOM      3  C   LIG    1       27.030 -13.564   5.852  0.00  0.00    +0.057 C 
BRANCH   2   5
ATOM      4  C   LIG    1       29.009 -12.077   4.616  0.00  0.00    +0.008 C 
ATOM      5  C   LIG    1       28.458 -13.243   3.794  0.00  0.00    +0.045 C 
ENDBRANCH   2   5
BRANCH   2   6
ATOM      6  C   LIG    1       25.899 -13.271   3.590  0.00  0.00    +0.131 C 
BRANCH   6   7
ATOM      7  N   LIG    1       24.624 -13.055   4.332  0.00  0.00    -0.305 NA
ATOM      8  C   LIG    1       23.780 -14.250   4.328  0.00  0.00    +0.104 C 
ATOM      9  C   LIG    1       23.862 -11.955   3.717  0.00  0.00    +0.104 C 
ENDBRANCH   6   7
ENDBRANCH   2   6
ENDBRANCH   1   2
BRANCH   1  10
ATOM     10  C   LIG    1       26.612 -16.027   3.287  0.00  0.00    +0.340 C 
ATOM     11  O   LIG    1       26.076 -15.581   2.296  0.00  0.00    -0.245 OA
BRANCH  10  12
ATOM     12  C   LIG    1       26.530 -17.454   3.708  0.00  0.00    +0.059 A 
ATOM     13  C   LIG    1       25.363 -18.169   3.401  0.00  0.00    +0.015 A 
ATOM     14  C   LIG    1       25.182 -19.459   3.904  0.00  0.00    +0.001 A 
ATOM     15  C   LIG    1       26.168 -20.046   4.696  0.00  0.00    +0.000 A 
ATOM     16  C   LIG    1       27.351 -19.356   4.964  0.00  0.00    +0.001 A 
ATOM     17  C   LIG    1       27.537 -18.064   4.467  0.00  0.00    +0.015 A 
ENDBRANCH  10  12
ENDBRANCH   1  10
TORSDOF 6
ENDMDL
