MODEL 1
REMARK VINA RESULT:      -0.1      0.000      0.000
REMARK  Name = *****
REMARK                            x       y       z     vdW  Elec       q    Type
REMARK                         _______ _______ _______ _____ _____    ______ ____
ROOT
ATOM      1  C   LIG    1       27.732 -17.798   4.446  0.00  0.00    -0.016 A 
ATOM      2  C   LIG    1       26.933 -18.931   4.660  0.00  0.00    +0.011 A 
ATOM      3  C   LIG    1       27.367 -20.012   5.457  0.00  0.00    -0.024 A 
ATOM      4  C   LIG    1       28.651 -19.935   6.026  0.00  0.00    +0.044 A 
ATOM      5 CL   LIG    1       29.270 -21.173   7.062  0.00  0.00    -0.083 Cl
ATOM      6  C   LIG    1       29.475 -18.836   5.784  0.00  0.00    +0.020 A 
ATOM      7  C   LIG    1       29.018 -17.776   5.003  0.00  0.00    +0.008 A 
ENDROOT
BRANCH   1  12
ATOM      8  C   LIG    1       27.535 -14.214   3.552  0.00  0.00    +0.175 C 
ATOM      9  C   LIG    1       26.102 -13.925   4.002  0.00  0.00    +0.176 C 
ATOM     10  C   LIG    1       25.196 -15.039   3.488  0.00  0.00    +0.177 C 
ATOM     11  C   LIG    1       25.680 -16.418   3.951  0.00  0.00    +0.179 C 
ATOM     12  C   LIG    1       27.193 -16.598   3.671  0.00  0.00    +0.180 C 
ATOM     13  O   LIG    1       27.953 -15.467   4.106  0.00  0.00    -0.361 OA
BRANCH   9  14
ATOM     14  O   LIG    1       25.635 -12.667   3.511  0.00  0.00    -0.387 OA
ATOM     15  H   LIG    1       24.965 -12.375   4.164  0.00  0.00    +0.210 HD
ENDBRANCH   9  14
BRANCH  10  16
ATOM     16  O   LIG    1       23.856 -14.803   3.959  0.00  0.00    -0.387 OA
ATOM     17  H   LIG    1       23.686 -13.858   3.767  0.00  0.00    +0.210 HD
ENDBRANCH  10  16
BRANCH  11  18
ATOM     18  O   LIG    1       24.864 -17.388   3.270  0.00  0.00    -0.386 OA
ATOM     19  H   LIG    1       24.100 -17.586   3.841  0.00  0.00    +0.210 HD
ENDBRANCH  11  18
BRANCH   8  20
ATOM     20  C   LIG    1       28.499 -13.126   4.044  0.00  0.00    +0.190 C 
BRANCH  20  21
ATOM     21  O   LIG    1       28.047 -12.599   5.294  0.00  0.00    -0.392 OA
ATOM     22  H   LIG    1       28.841 -12.366   5.805  0.00  0.00    +0.209 HD
ENDBRANCH  20  21
ENDBRANCH   8  20
ENDBRANCH   1  12
BRANCH   3  23
ATOM     23  C   LIG    1       26.489 -21.230   5.703  0.00  0.00    +0.071 C 
BRANCH  23  24
ATOM     24  C   LIG    1       25.033 -21.086   5.314  0.00  0.00    -0.043 A 
ATOM     25  C   LIG    1       24.040 -20.854   6.282  0.00  0.00    +0.007 A 
ATOM     26  C   LIG    1       22.714 -20.631   5.886  0.00  0.00    +0.046 A 
ATOM     27  C   LIG    1       22.354 -20.631   4.539  0.00  0.00    +0.121 A 
ATOM     28  C   LIG    1       23.349 -20.852   3.579  0.00  0.00    +0.046 A 
ATOM     29  C   LIG    1       24.670 -21.085   3.969  0.00  0.00    +0.007 A 
BRANCH  27  30
ATOM     30  O   LIG    1       21.024 -20.419   4.274  0.00  0.00    -0.486 OA
BRANCH  30  31
ATOM     31  C   LIG    1       20.509 -19.090   4.433  0.00  0.00    +0.201 C 
ATOM     32  C   LIG    1       19.467 -18.772   3.369  0.00  0.00    +0.204 C 
ATOM     33  O   LIG    1       20.161 -18.238   2.227  0.00  0.00    -0.376 OA
ATOM     34  C   LIG    1       21.512 -17.955   2.608  0.00  0.00    +0.163 C 
ATOM     35  C   LIG    1       21.591 -18.083   4.112  0.00  0.00    +0.075 C 
ENDBRANCH  30  31
ENDBRANCH  27  30
ENDBRANCH  23  24
ENDBRANCH   3  23
TORSDOF 10
ENDMDL
