MODEL 1
REMARK VINA RESULT:      -2.7      0.000      0.000
REMARK  Name = *****
REMARK                            x       y       z     vdW  Elec       q    Type
REMARK                         _______ _______ _______ _____ _____    ______ ____
ROOT
ATOM      1  N   LIG    1       24.303 -15.681   4.014  0.00  0.00    -0.286 N 
ATOM      2  C   LIG    1       23.211 -16.525   4.351  0.00  0.00    +0.305 C 
ATOM      3  N   LIG    1       23.302 -17.925   4.167  0.00  0.00    -0.283 N 
ATOM      4  C   LIG    1       22.545 -18.811   5.073  0.00  0.00    +0.124 C 
ATOM      5  C   LIG    1       22.639 -20.331   4.753  0.00  0.00    +0.103 C 
ATOM      6  N   LIG    1       23.976 -20.839   4.386  0.00  0.00    -0.302 NA
ATOM      7  C   LIG    1       24.921 -20.733   5.503  0.00  0.00    +0.105 C 
ATOM      8  C   LIG    1       24.400 -20.075   3.216  0.00  0.00    +0.103 C 
ATOM      9  C   LIG    1       24.390 -18.578   3.453  0.00  0.00    +0.124 C 
ATOM     10  O   LIG    1       22.156 -16.039   4.856  0.00  0.00    -0.252 OA
ENDROOT
BRANCH   1  12
ATOM     11  C   LIG    1       23.984 -13.443   2.809  0.00  0.00    +0.024 C 
ATOM     12  C   LIG    1       24.164 -14.222   4.098  0.00  0.00    +0.106 C 
ENDBRANCH   1  12
BRANCH   1  13
ATOM     13  C   LIG    1       25.609 -16.164   3.563  0.00  0.00    +0.106 C 
ATOM     14  C   LIG    1       26.862 -15.317   3.462  0.00  0.00    +0.024 C 
ENDBRANCH   1  13
TORSDOF 2
ENDMDL
MODEL 2
REMARK VINA RESULT:      -2.5      2.034      5.627
REMARK  Name = *****
REMARK                            x       y       z     vdW  Elec       q    Type
REMARK                         _______ _______ _______ _____ _____    ______ ____
ROOT
ATOM      1  N   LIG    1       24.415 -18.069   3.732  0.00  0.00    -0.286 N 
ATOM      2  C   LIG    1       25.636 -17.470   3.320  0.00  0.00    +0.305 C 
ATOM      3  N   LIG    1       25.777 -16.062   3.308  0.00  0.00    -0.283 N 
ATOM      4  C   LIG    1       27.112 -15.481   3.548  0.00  0.00    +0.124 C 
ATOM      5  C   LIG    1       27.194 -13.930   3.441  0.00  0.00    +0.103 C 
ATOM      6  N   LIG    1       26.084 -13.174   4.056  0.00  0.00    -0.302 NA
ATOM      7  C   LIG    1       26.050 -13.348   5.512  0.00  0.00    +0.105 C 
ATOM      8  C   LIG    1       24.862 -13.636   3.405  0.00  0.00    +0.103 C 
ATOM      9  C   LIG    1       24.671 -15.136   3.505  0.00  0.00    +0.124 C 
ATOM     10  O   LIG    1       26.626 -18.190   2.995  0.00  0.00    -0.252 OA
ENDROOT
BRANCH   1  12
ATOM     11  C   LIG    1       24.690 -20.382   4.797  0.00  0.00    +0.024 C 
ATOM     12  C   LIG    1       24.234 -19.522   3.633  0.00  0.00    +0.106 C 
ENDBRANCH   1  12
BRANCH   1  13
ATOM     13  C   LIG    1       23.269 -17.325   4.261  0.00  0.00    +0.106 C 
ATOM     14  C   LIG    1       21.913 -17.925   4.571  0.00  0.00    +0.024 C 
ENDBRANCH   1  13
TORSDOF 2
ENDMDL
MODEL 3
REMARK VINA RESULT:      -1.8      1.321      5.126
REMARK  Name = *****
REMARK                            x       y       z     vdW  Elec       q    Type
REMARK                         _______ _______ _______ _____ _____    ______ ____
ROOT
ATOM      1  N   LIG    1       23.510 -17.780   3.996  0.00  0.00    -0.286 N 
ATOM      2  C   LIG    1       23.163 -16.469   4.419  0.00  0.00    +0.305 C 
ATOM      3  N   LIG    1       24.094 -15.409   4.306  0.00  0.00    -0.283 N 
ATOM      4  C   LIG    1       23.587 -14.039   4.090  0.00  0.00    +0.124 C 
ATOM      5  C   LIG    1       24.672 -12.924   4.055  0.00  0.00    +0.103 C 
ATOM      6  N   LIG    1       25.908 -13.238   3.309  0.00  0.00    -0.302 NA
ATOM      7  C   LIG    1       25.646 -13.413   1.876  0.00  0.00    +0.105 C 
ATOM      8  C   LIG    1       26.469 -14.435   3.929  0.00  0.00    +0.103 C 
ATOM      9  C   LIG    1       25.496 -15.596   3.959  0.00  0.00    +0.124 C 
ATOM     10  O   LIG    1       22.004 -16.224   4.867  0.00  0.00    -0.252 OA
ENDROOT
BRANCH   1  12
ATOM     11  C   LIG    1       22.688 -19.663   5.526  0.00  0.00    +0.024 C 
ATOM     12  C   LIG    1       22.585 -18.898   4.220  0.00  0.00    +0.106 C 
ENDBRANCH   1  12
BRANCH   1  13
ATOM     13  C   LIG    1       24.769 -18.127   3.334  0.00  0.00    +0.106 C 
ATOM     14  C   LIG    1       25.612 -19.345   3.654  0.00  0.00    +0.024 C 
ENDBRANCH   1  13
TORSDOF 2
ENDMDL
MODEL 4
REMARK VINA RESULT:      -1.3      0.989      1.200
REMARK  Name = *****
REMARK                            x       y       z     vdW  Elec       q    Type
REMARK                         _______ _______ _______ _____ _____    ______ ____
ROOT
ATOM      1  N   LIG    1       25.169 -16.052   3.678  0.00  0.00    -0.286 N 
ATOM      2  C   LIG    1       23.910 -16.603   4.040  0.00  0.00    +0.305 C 
ATOM      3  N   LIG    1       23.689 -17.999   3.964  0.00  0.00    -0.283 N 
ATOM      4  C   LIG    1       22.739 -18.619   4.908  0.00  0.00    +0.124 C 
ATOM      5  C   LIG    1       22.495 -20.142   4.706  0.00  0.00    +0.103 C 
ATOM      6  N   LIG    1       23.692 -20.962   4.424  0.00  0.00    -0.302 NA
ATOM      7  C   LIG    1       24.618 -20.979   5.562  0.00  0.00    +0.105 C 
ATOM      8  C   LIG    1       24.294 -20.408   3.215  0.00  0.00    +0.103 C 
ATOM      9  C   LIG    1       24.616 -18.933   3.339  0.00  0.00    +0.124 C 
ATOM     10  O   LIG    1       22.983 -15.856   4.471  0.00  0.00    -0.252 OA
ENDROOT
BRANCH   1  12
ATOM     11  C   LIG    1       26.489 -14.003   4.465  0.00  0.00    +0.024 C 
ATOM     12  C   LIG    1       25.358 -14.597   3.647  0.00  0.00    +0.106 C 
ENDBRANCH   1  12
BRANCH   1  13
ATOM     13  C   LIG    1       26.342 -16.847   3.309  0.00  0.00    +0.106 C 
ATOM     14  C   LIG    1       27.471 -17.218   4.248  0.00  0.00    +0.024 C 
ENDBRANCH   1  13
TORSDOF 2
ENDMDL
MODEL 5
REMARK VINA RESULT:      -1.2      2.206      2.815
REMARK  Name = *****
REMARK                            x       y       z     vdW  Elec       q    Type
REMARK                         _______ _______ _______ _____ _____    ______ ____
ROOT
ATOM      1  N   LIG    1       26.808 -17.766   4.011  0.00  0.00    -0.286 N 
ATOM      2  C   LIG    1       25.431 -17.907   3.692  0.00  0.00    +0.305 C 
ATOM      3  N   LIG    1       24.732 -19.089   4.035  0.00  0.00    -0.283 N 
ATOM      4  C   LIG    1       23.289 -18.998   4.332  0.00  0.00    +0.124 C 
ATOM      5  C   LIG    1       22.581 -20.353   4.624  0.00  0.00    +0.103 C 
ATOM      6  N   LIG    1       23.319 -21.303   5.482  0.00  0.00    -0.302 NA
ATOM      7  C   LIG    1       23.491 -20.783   6.843  0.00  0.00    +0.105 C 
ATOM      8  C   LIG    1       24.591 -21.560   4.812  0.00  0.00    +0.103 C 
ATOM      9  C   LIG    1       25.377 -20.295   4.534  0.00  0.00    +0.124 C 
ATOM     10  O   LIG    1       24.802 -16.962   3.130  0.00  0.00    -0.252 OA
ENDROOT
BRANCH   1  12
ATOM     11  C   LIG    1       27.117 -15.224   4.041  0.00  0.00    +0.024 C 
ATOM     12  C   LIG    1       27.558 -16.590   3.553  0.00  0.00    +0.106 C 
ENDBRANCH   1  12
BRANCH   1  13
ATOM     13  C   LIG    1       27.579 -18.741   4.785  0.00  0.00    +0.106 C 
ATOM     14  C   LIG    1       28.949 -18.489   5.384  0.00  0.00    +0.024 C 
ENDBRANCH   1  13
TORSDOF 2
ENDMDL
MODEL 6
REMARK VINA RESULT:      -0.8      1.979      3.239
REMARK  Name = *****
REMARK                            x       y       z     vdW  Elec       q    Type
REMARK                         _______ _______ _______ _____ _____    ______ ____
ROOT
ATOM      1  N   LIG    1       25.448 -14.814   3.165  0.00  0.00    -0.286 N 
ATOM      2  C   LIG    1       25.586 -16.206   3.414  0.00  0.00    +0.305 C 
ATOM      3  N   LIG    1       24.498 -16.955   3.922  0.00  0.00    -0.283 N 
ATOM      4  C   LIG    1       24.387 -18.381   3.558  0.00  0.00    +0.124 C 
ATOM      5  C   LIG    1       23.207 -19.150   4.221  0.00  0.00    +0.103 C 
ATOM      6  N   LIG    1       21.914 -18.436   4.280  0.00  0.00    -0.302 NA
ATOM      7  C   LIG    1       21.368 -18.195   2.940  0.00  0.00    +0.105 C 
ATOM      8  C   LIG    1       22.160 -17.201   5.019  0.00  0.00    +0.103 C 
ATOM      9  C   LIG    1       23.263 -16.359   4.412  0.00  0.00    +0.124 C 
ATOM     10  O   LIG    1       26.671 -16.802   3.148  0.00  0.00    -0.252 OA
ENDROOT
BRANCH   1  12
ATOM     11  C   LIG    1       27.615 -13.609   3.806  0.00  0.00    +0.024 C 
ATOM     12  C   LIG    1       26.610 -14.019   2.747  0.00  0.00    +0.106 C 
ENDBRANCH   1  12
BRANCH   1  13
ATOM     13  C   LIG    1       24.194 -14.072   3.303  0.00  0.00    +0.106 C 
ATOM     14  C   LIG    1       24.064 -12.563   3.229  0.00  0.00    +0.024 C 
ENDBRANCH   1  13
TORSDOF 2
ENDMDL
MODEL 7
REMARK VINA RESULT:       0.2      1.858      2.899
REMARK  Name = *****
REMARK                            x       y       z     vdW  Elec       q    Type
REMARK                         _______ _______ _______ _____ _____    ______ ____
ROOT
ATOM      1  N   LIG    1       24.843 -16.738   3.582  0.00  0.00    -0.286 N 
ATOM      2  C   LIG    1       25.219 -18.104   3.474  0.00  0.00    +0.305 C 
ATOM      3  N   LIG    1       24.488 -19.106   4.154  0.00  0.00    -0.283 N 
ATOM      4  C   LIG    1       24.413 -20.456   3.561  0.00  0.00    +0.124 C 
ATOM      5  C   LIG    1       23.655 -21.517   4.410  0.00  0.00    +0.103 C 
ATOM      6  N   LIG    1       22.403 -21.067   5.052  0.00  0.00    -0.302 NA
ATOM      7  C   LIG    1       21.378 -20.724   4.060  0.00  0.00    +0.105 C 
ATOM      8  C   LIG    1       22.762 -19.936   5.904  0.00  0.00    +0.103 C 
ATOM      9  C   LIG    1       23.461 -18.825   5.148  0.00  0.00    +0.124 C 
ATOM     10  O   LIG    1       26.191 -18.446   2.736  0.00  0.00    -0.252 OA
ENDROOT
BRANCH   1  12
ATOM     11  C   LIG    1       26.943 -15.275   3.684  0.00  0.00    +0.024 C 
ATOM     12  C   LIG    1       25.671 -15.692   2.970  0.00  0.00    +0.106 C 
ENDBRANCH   1  12
BRANCH   1  13
ATOM     13  C   LIG    1       23.653 -16.264   4.291  0.00  0.00    +0.106 C 
ATOM     14  C   LIG    1       23.305 -14.809   4.531  0.00  0.00    +0.024 C 
ENDBRANCH   1  13
TORSDOF 2
ENDMDL
