MODEL 1
REMARK VINA RESULT:      -9.3      0.000      0.000
REMARK  Name = *****
REMARK                            x       y       z     vdW  Elec       q    Type
REMARK                         _______ _______ _______ _____ _____    ______ ____
ROOT
ATOM      1  C   LIG    1       29.501 -19.705   7.250  0.00  0.00    +0.107 A 
ATOM      2  C   LIG    1       28.271 -20.351   7.447  0.00  0.00    +0.053 A 
ATOM      3  C   LIG    1       27.195 -20.241   6.536  0.00  0.00    +0.050 A 
ATOM      4  N   LIG    1       25.950 -20.903   6.755  0.00  0.00    -0.298 N 
ATOM      5  C   LIG    1       24.778 -20.742   5.960  0.00  0.00    +0.048 A 
ATOM      6  C   LIG    1       24.797 -20.037   4.740  0.00  0.00    +0.034 A 
ATOM      7  S   LIG    1       26.237 -19.216   4.097  0.00  0.00    -0.086 S 
ATOM      8  C   LIG    1       23.639 -19.942   3.939  0.00  0.00    +0.017 A 
ATOM      9  C   LIG    1       22.437 -20.514   4.342  0.00  0.00    +0.001 A 
ATOM     10  C   LIG    1       22.378 -21.170   5.559  0.00  0.00    +0.002 A 
ATOM     11  C   LIG    1       23.526 -21.274   6.350  0.00  0.00    +0.024 A 
ATOM     12  C   LIG    1       27.425 -19.436   5.401  0.00  0.00    +0.034 A 
ATOM     13  C   LIG    1       28.664 -18.787   5.207  0.00  0.00    +0.019 A 
ATOM     14  C   LIG    1       29.706 -18.929   6.120  0.00  0.00    +0.030 A 
ENDROOT
BRANCH   1  15
ATOM     15  S   LIG    1       30.833 -20.031   8.391  0.00  0.00    +0.060 S 
ATOM     16  O   LIG    1       30.362 -21.037   9.318  0.00  0.00    -0.153 OA
ATOM     17  O   LIG    1       32.015 -20.258   7.582  0.00  0.00    -0.153 OA
BRANCH  15  19
ATOM     18  C   LIG    1       32.091 -17.651   8.882  0.00  0.00    +0.131 C 
ATOM     19  N   LIG    1       31.052 -18.607   9.272  0.00  0.00    -0.183 NA
ATOM     20  C   LIG    1       29.881 -18.008   9.918  0.00  0.00    +0.131 C 
ENDBRANCH  15  19
ENDBRANCH   1  15
BRANCH   4  21
ATOM     21  C   LIG    1       25.866 -21.868   7.885  0.00  0.00    +0.112 C 
BRANCH  21  22
ATOM     22  C   LIG    1       26.436 -23.237   7.479  0.00  0.00    +0.035 C 
BRANCH  22  23
ATOM     23  C   LIG    1       25.384 -24.130   6.804  0.00  0.00    +0.086 C 
BRANCH  23  24
ATOM     24  N   LIG    1       25.955 -25.037   5.786  0.00  0.00    -0.302 NA
ATOM     25  C   LIG    1       26.673 -26.174   6.388  0.00  0.00    +0.085 C 
ATOM     26  C   LIG    1       25.741 -27.139   7.126  0.00  0.00    +0.019 C 
ATOM     27  C   LIG    1       24.673 -27.727   6.189  0.00  0.00    -0.007 C 
ATOM     28  C   LIG    1       24.000 -26.586   5.401  0.00  0.00    +0.019 C 
ATOM     29  C   LIG    1       24.975 -25.555   4.819  0.00  0.00    +0.085 C 
BRANCH  27  30
ATOM     30  C   LIG    1       25.200 -28.830   5.251  0.00  0.00    +0.031 C 
BRANCH  30  31
ATOM     31  C   LIG    1       24.801 -30.240   5.686  0.00  0.00    +0.156 C 
BRANCH  31  32
ATOM     32  O   LIG    1       23.386 -30.342   5.776  0.00  0.00    -0.395 OA
ATOM     33  H   LIG    1       23.134 -30.161   6.696  0.00  0.00    +0.209 HD
ENDBRANCH  31  32
ENDBRANCH  30  31
ENDBRANCH  27  30
ENDBRANCH  23  24
ENDBRANCH  22  23
ENDBRANCH  21  22
ENDBRANCH   4  21
TORSDOF 9
ENDMDL
MODEL 2
REMARK VINA RESULT:      -6.9      2.802      5.507
REMARK  Name = *****
REMARK                            x       y       z     vdW  Elec       q    Type
REMARK                         _______ _______ _______ _____ _____    ______ ____
ROOT
ATOM      1  C   LIG    1       25.400 -19.783   4.419  0.00  0.00    +0.107 A 
ATOM      2  C   LIG    1       25.969 -20.499   5.484  0.00  0.00    +0.053 A 
ATOM      3  C   LIG    1       27.256 -20.215   5.996  0.00  0.00    +0.050 A 
ATOM      4  N   LIG    1       27.818 -20.955   7.078  0.00  0.00    -0.298 N 
ATOM      5  C   LIG    1       29.151 -20.822   7.566  0.00  0.00    +0.048 A 
ATOM      6  C   LIG    1       30.001 -19.785   7.133  0.00  0.00    +0.034 A 
ATOM      7  S   LIG    1       29.550 -18.589   5.897  0.00  0.00    -0.086 S 
ATOM      8  C   LIG    1       31.296 -19.636   7.675  0.00  0.00    +0.017 A 
ATOM      9  C   LIG    1       31.784 -20.524   8.628  0.00  0.00    +0.001 A 
ATOM     10  C   LIG    1       30.987 -21.580   9.035  0.00  0.00    +0.002 A 
ATOM     11  C   LIG    1       29.701 -21.725   8.507  0.00  0.00    +0.024 A 
ATOM     12  C   LIG    1       27.951 -19.159   5.371  0.00  0.00    +0.034 A 
ATOM     13  C   LIG    1       27.376 -18.442   4.298  0.00  0.00    +0.019 A 
ATOM     14  C   LIG    1       26.099 -18.741   3.830  0.00  0.00    +0.030 A 
ENDROOT
BRANCH   1  15
ATOM     15  S   LIG    1       23.714 -20.135   3.953  0.00  0.00    +0.060 S 
ATOM     16  O   LIG    1       23.042 -18.863   3.798  0.00  0.00    -0.153 OA
ATOM     17  O   LIG    1       23.785 -21.080   2.855  0.00  0.00    -0.153 OA
BRANCH  15  19
ATOM     18  C   LIG    1       23.152 -20.337   6.623  0.00  0.00    +0.131 C 
ATOM     19  N   LIG    1       23.014 -20.908   5.281  0.00  0.00    -0.183 NA
ATOM     20  C   LIG    1       21.784 -21.674   5.066  0.00  0.00    +0.131 C 
ENDBRANCH  15  19
ENDBRANCH   1  15
BRANCH   4  21
ATOM     21  C   LIG    1       26.940 -21.929   7.784  0.00  0.00    +0.112 C 
BRANCH  21  22
ATOM     22  C   LIG    1       26.055 -22.691   6.785  0.00  0.00    +0.035 C 
BRANCH  22  23
ATOM     23  C   LIG    1       25.985 -24.194   7.098  0.00  0.00    +0.086 C 
BRANCH  23  24
ATOM     24  N   LIG    1       26.241 -25.048   5.918  0.00  0.00    -0.302 NA
ATOM     25  C   LIG    1       26.745 -26.382   6.290  0.00  0.00    +0.085 C 
ATOM     26  C   LIG    1       25.698 -27.227   7.021  0.00  0.00    +0.019 C 
ATOM     27  C   LIG    1       24.442 -27.445   6.162  0.00  0.00    -0.007 C 
ATOM     28  C   LIG    1       23.965 -26.091   5.602  0.00  0.00    +0.019 C 
ATOM     29  C   LIG    1       25.083 -25.212   5.026  0.00  0.00    +0.085 C 
BRANCH  27  30
ATOM     30  C   LIG    1       24.620 -28.490   5.044  0.00  0.00    +0.031 C 
BRANCH  30  31
ATOM     31  C   LIG    1       24.657 -29.929   5.558  0.00  0.00    +0.156 C 
BRANCH  31  32
ATOM     32  O   LIG    1       23.337 -30.396   5.802  0.00  0.00    -0.395 OA
ATOM     33  H   LIG    1       22.747 -29.962   5.164  0.00  0.00    +0.209 HD
ENDBRANCH  31  32
ENDBRANCH  30  31
ENDBRANCH  27  30
ENDBRANCH  23  24
ENDBRANCH  22  23
ENDBRANCH  21  22
ENDBRANCH   4  21
TORSDOF 9
ENDMDL
MODEL 3
REMARK VINA RESULT:      -6.4      5.539     11.050
REMARK  Name = *****
REMARK                            x       y       z     vdW  Elec       q    Type
REMARK                         _______ _______ _______ _____ _____    ______ ____
ROOT
ATOM      1  C   LIG    1       23.427 -30.886  10.600  0.00  0.00    +0.107 A 
ATOM      2  C   LIG    1       24.136 -30.608   9.421  0.00  0.00    +0.053 A 
ATOM      3  C   LIG    1       24.036 -31.409   8.261  0.00  0.00    +0.050 A 
ATOM      4  N   LIG    1       24.766 -31.111   7.073  0.00  0.00    -0.298 N 
ATOM      5  C   LIG    1       24.824 -31.935   5.909  0.00  0.00    +0.048 A 
ATOM      6  C   LIG    1       23.990 -33.060   5.753  0.00  0.00    +0.034 A 
ATOM      7  S   LIG    1       22.845 -33.621   6.991  0.00  0.00    -0.086 S 
ATOM      8  C   LIG    1       24.021 -33.825   4.567  0.00  0.00    +0.017 A 
ATOM      9  C   LIG    1       24.895 -33.511   3.531  0.00  0.00    +0.001 A 
ATOM     10  C   LIG    1       25.758 -32.441   3.679  0.00  0.00    +0.002 A 
ATOM     11  C   LIG    1       25.724 -31.675   4.849  0.00  0.00    +0.024 A 
ATOM     12  C   LIG    1       23.173 -32.522   8.350  0.00  0.00    +0.034 A 
ATOM     13  C   LIG    1       22.462 -32.800   9.538  0.00  0.00    +0.019 A 
ATOM     14  C   LIG    1       22.575 -31.980  10.658  0.00  0.00    +0.030 A 
ENDROOT
BRANCH   1  15
ATOM     15  S   LIG    1       23.520 -29.726  11.952  0.00  0.00    +0.060 S 
ATOM     16  O   LIG    1       24.709 -28.927  11.744  0.00  0.00    -0.153 OA
ATOM     17  O   LIG    1       22.212 -29.108  12.048  0.00  0.00    -0.153 OA
BRANCH  15  19
ATOM     18  C   LIG    1       25.108 -31.199  13.625  0.00  0.00    +0.131 C 
ATOM     19  N   LIG    1       23.779 -30.650  13.342  0.00  0.00    -0.183 NA
ATOM     20  C   LIG    1       22.975 -30.352  14.530  0.00  0.00    +0.131 C 
ENDBRANCH  15  19
ENDBRANCH   1  15
BRANCH   4  21
ATOM     21  C   LIG    1       25.509 -29.822   7.018  0.00  0.00    +0.112 C 
BRANCH  21  22
ATOM     22  C   LIG    1       24.666 -28.734   6.333  0.00  0.00    +0.035 C 
BRANCH  22  23
ATOM     23  C   LIG    1       24.983 -27.329   6.867  0.00  0.00    +0.086 C 
BRANCH  23  24
ATOM     24  N   LIG    1       25.229 -26.340   5.795  0.00  0.00    -0.302 NA
ATOM     25  C   LIG    1       23.999 -25.638   5.388  0.00  0.00    +0.085 C 
ATOM     26  C   LIG    1       23.447 -24.725   6.485  0.00  0.00    +0.019 C 
ATOM     27  C   LIG    1       24.465 -23.648   6.895  0.00  0.00    -0.007 C 
ATOM     28  C   LIG    1       25.828 -24.311   7.172  0.00  0.00    +0.019 C 
ATOM     29  C   LIG    1       26.258 -25.341   6.119  0.00  0.00    +0.085 C 
BRANCH  27  30
ATOM     30  C   LIG    1       24.592 -22.489   5.887  0.00  0.00    +0.031 C 
BRANCH  30  31
ATOM     31  C   LIG    1       24.409 -21.110   6.520  0.00  0.00    +0.156 C 
BRANCH  31  32
ATOM     32  O   LIG    1       23.446 -21.175   7.564  0.00  0.00    -0.395 OA
ATOM     33  H   LIG    1       22.621 -21.519   7.185  0.00  0.00    +0.209 HD
ENDBRANCH  31  32
ENDBRANCH  30  31
ENDBRANCH  27  30
ENDBRANCH  23  24
ENDBRANCH  22  23
ENDBRANCH  21  22
ENDBRANCH   4  21
TORSDOF 9
ENDMDL
