MODEL 1
REMARK VINA RESULT:      -4.4      0.000      0.000
REMARK  Name = *****
REMARK                            x       y       z     vdW  Elec       q    Type
REMARK                         _______ _______ _______ _____ _____    ______ ____
ROOT
ATOM      1  C   LIG    1       26.411 -16.739   3.379  0.00  0.00    +0.197 A 
ATOM      2  O   LIG    1       27.288 -17.435   4.138  0.00  0.00    -0.439 OA
ATOM      3  C   LIG    1       26.587 -18.541   4.573  0.00  0.00    +0.163 A 
ATOM      4  C   LIG    1       25.300 -18.438   4.052  0.00  0.00    +0.117 A 
ATOM      5  N   LIG    1       25.219 -17.292   3.279  0.00  0.00    -0.213 NA
ENDROOT
BRANCH   3   6
ATOM      6  C   LIG    1       27.371 -19.418   5.436  0.00  0.00    +0.019 A 
ATOM      7  C   LIG    1       28.747 -19.245   5.616  0.00  0.00    +0.012 A 
ATOM      8  C   LIG    1       29.475 -20.120   6.427  0.00  0.00    +0.001 A 
ATOM      9  C   LIG    1       28.841 -21.193   7.052  0.00  0.00    +0.000 A 
ATOM     10  C   LIG    1       27.475 -21.386   6.879  0.00  0.00    +0.001 A 
ATOM     11  C   LIG    1       26.747 -20.504   6.080  0.00  0.00    +0.012 A 
ENDBRANCH   3   6
BRANCH   4  12
ATOM     12  C   LIG    1       24.145 -19.325   4.194  0.00  0.00    +0.004 A 
ATOM     13  C   LIG    1       24.273 -20.717   4.147  0.00  0.00    +0.010 A 
ATOM     14  C   LIG    1       23.158 -21.552   4.292  0.00  0.00    +0.001 A 
ATOM     15  C   LIG    1       21.887 -21.008   4.464  0.00  0.00    +0.000 A 
ATOM     16  C   LIG    1       21.729 -19.626   4.470  0.00  0.00    +0.001 A 
ATOM     17  C   LIG    1       22.847 -18.791   4.328  0.00  0.00    +0.010 A 
ENDBRANCH   4  12
BRANCH   1  18
ATOM     18  C   LIG    1       26.876 -15.446   2.808  0.00  0.00    +0.107 C 
BRANCH  18  19
ATOM     19  C   LIG    1       26.253 -14.245   3.510  0.00  0.00    +0.130 C 
BRANCH  19  21
ATOM     20  O   LIG    1       28.239 -12.960   3.901  0.00  0.00    -0.251 OA
ATOM     21  C   LIG    1       27.222 -13.441   4.347  0.00  0.00    +0.305 C 
BRANCH  21  22
ATOM     22  O   LIG    1       26.862 -13.242   5.632  0.00  0.00    -0.481 OA
ATOM     23  H   LIG    1       26.503 -12.345   5.803  0.00  0.00    +0.295 HD
ENDBRANCH  21  22
ENDBRANCH  19  21
ENDBRANCH  18  19
ENDBRANCH   1  18
TORSDOF 6
ENDMDL
MODEL 2
REMARK VINA RESULT:      -4.0      0.725      4.370
REMARK  Name = *****
REMARK                            x       y       z     vdW  Elec       q    Type
REMARK                         _______ _______ _______ _____ _____    ______ ____
ROOT
ATOM      1  C   LIG    1       26.443 -16.562   3.339  0.00  0.00    +0.197 A 
ATOM      2  O   LIG    1       25.229 -17.161   3.316  0.00  0.00    -0.439 OA
ATOM      3  C   LIG    1       25.379 -18.304   4.073  0.00  0.00    +0.163 A 
ATOM      4  C   LIG    1       26.702 -18.335   4.506  0.00  0.00    +0.117 A 
ATOM      5  N   LIG    1       27.353 -17.205   4.041  0.00  0.00    -0.213 NA
ENDROOT
BRANCH   3   6
ATOM      6  C   LIG    1       24.164 -19.107   4.151  0.00  0.00    +0.019 A 
ATOM      7  C   LIG    1       22.906 -18.531   4.356  0.00  0.00    +0.012 A 
ATOM      8  C   LIG    1       21.764 -19.330   4.455  0.00  0.00    +0.001 A 
ATOM      9  C   LIG    1       21.867 -20.718   4.372  0.00  0.00    +0.000 A 
ATOM     10  C   LIG    1       23.109 -21.310   4.177  0.00  0.00    +0.001 A 
ATOM     11  C   LIG    1       24.247 -20.510   4.065  0.00  0.00    +0.012 A 
ENDBRANCH   3   6
BRANCH   4  12
ATOM     12  C   LIG    1       27.408 -19.316   5.331  0.00  0.00    +0.004 A 
ATOM     13  C   LIG    1       26.745 -20.399   5.919  0.00  0.00    +0.010 A 
ATOM     14  C   LIG    1       27.436 -21.333   6.700  0.00  0.00    +0.001 A 
ATOM     15  C   LIG    1       28.803 -21.188   6.928  0.00  0.00    +0.000 A 
ATOM     16  C   LIG    1       29.475 -20.096   6.391  0.00  0.00    +0.001 A 
ATOM     17  C   LIG    1       28.782 -19.162   5.606  0.00  0.00    +0.010 A 
ENDBRANCH   4  12
BRANCH   1  18
ATOM     18  C   LIG    1       26.604 -15.311   2.549  0.00  0.00    +0.107 C 
BRANCH  18  19
ATOM     19  C   LIG    1       26.308 -14.063   3.374  0.00  0.00    +0.130 C 
BRANCH  19  21
ATOM     20  O   LIG    1       28.580 -13.419   3.789  0.00  0.00    -0.251 OA
ATOM     21  C   LIG    1       27.464 -13.592   4.227  0.00  0.00    +0.305 C 
BRANCH  21  22
ATOM     22  O   LIG    1       27.171 -13.320   5.515  0.00  0.00    -0.481 OA
ATOM     23  H   LIG    1       26.216 -13.407   5.724  0.00  0.00    +0.295 HD
ENDBRANCH  21  22
ENDBRANCH  19  21
ENDBRANCH  18  19
ENDBRANCH   1  18
TORSDOF 6
ENDMDL
MODEL 3
REMARK VINA RESULT:      -3.9      0.904      4.399
REMARK  Name = *****
REMARK                            x       y       z     vdW  Elec       q    Type
REMARK                         _______ _______ _______ _____ _____    ______ ____
ROOT
ATOM      1  C   LIG    1       26.461 -16.524   3.349  0.00  0.00    +0.197 A 
ATOM      2  O   LIG    1       25.262 -17.149   3.299  0.00  0.00    -0.439 OA
ATOM      3  C   LIG    1       25.419 -18.287   4.064  0.00  0.00    +0.163 A 
ATOM      4  C   LIG    1       26.731 -18.288   4.529  0.00  0.00    +0.117 A 
ATOM      5  N   LIG    1       27.369 -17.145   4.076  0.00  0.00    -0.213 NA
ENDROOT
BRANCH   3   6
ATOM      6  C   LIG    1       24.219 -19.116   4.116  0.00  0.00    +0.019 A 
ATOM      7  C   LIG    1       22.959 -18.580   4.399  0.00  0.00    +0.012 A 
ATOM      8  C   LIG    1       21.833 -19.405   4.469  0.00  0.00    +0.001 A 
ATOM      9  C   LIG    1       21.956 -20.781   4.279  0.00  0.00    +0.000 A 
ATOM     10  C   LIG    1       23.202 -21.334   4.005  0.00  0.00    +0.001 A 
ATOM     11  C   LIG    1       24.323 -20.507   3.922  0.00  0.00    +0.012 A 
ENDBRANCH   3   6
BRANCH   4  12
ATOM     12  C   LIG    1       27.437 -19.251   5.374  0.00  0.00    +0.004 A 
ATOM     13  C   LIG    1       28.814 -19.160   5.603  0.00  0.00    +0.010 A 
ATOM     14  C   LIG    1       29.475 -20.085   6.421  0.00  0.00    +0.001 A 
ATOM     15  C   LIG    1       28.773 -21.136   7.007  0.00  0.00    +0.000 A 
ATOM     16  C   LIG    1       27.411 -21.273   6.758  0.00  0.00    +0.001 A 
ATOM     17  C   LIG    1       26.750 -20.343   5.941  0.00  0.00    +0.010 A 
ENDBRANCH   4  12
BRANCH   1  18
ATOM     18  C   LIG    1       26.614 -15.273   2.560  0.00  0.00    +0.107 C 
BRANCH  18  19
ATOM     19  C   LIG    1       27.289 -14.163   3.358  0.00  0.00    +0.130 C 
BRANCH  19  21
ATOM     20  O   LIG    1       25.287 -13.212   4.273  0.00  0.00    -0.251 OA
ATOM     21  C   LIG    1       26.429 -13.571   4.452  0.00  0.00    +0.305 C 
BRANCH  21  22
ATOM     22  O   LIG    1       26.996 -13.509   5.674  0.00  0.00    -0.481 OA
ATOM     23  H   LIG    1       26.943 -12.619   6.085  0.00  0.00    +0.295 HD
ENDBRANCH  21  22
ENDBRANCH  19  21
ENDBRANCH  18  19
ENDBRANCH   1  18
TORSDOF 6
ENDMDL
MODEL 4
REMARK VINA RESULT:      -3.8      2.636      5.367
REMARK  Name = *****
REMARK                            x       y       z     vdW  Elec       q    Type
REMARK                         _______ _______ _______ _____ _____    ______ ____
ROOT
ATOM      1  C   LIG    1       24.208 -19.992   3.469  0.00  0.00    +0.197 A 
ATOM      2  O   LIG    1       25.257 -20.345   4.248  0.00  0.00    -0.439 OA
ATOM      3  C   LIG    1       25.967 -19.179   4.445  0.00  0.00    +0.163 A 
ATOM      4  C   LIG    1       25.300 -18.174   3.750  0.00  0.00    +0.117 A 
ATOM      5  N   LIG    1       24.172 -18.712   3.153  0.00  0.00    -0.213 NA
ENDROOT
BRANCH   3   6
ATOM      6  C   LIG    1       27.163 -19.363   5.259  0.00  0.00    +0.019 A 
ATOM      7  C   LIG    1       27.230 -20.323   6.273  0.00  0.00    +0.012 A 
ATOM      8  C   LIG    1       28.381 -20.456   7.054  0.00  0.00    +0.001 A 
ATOM      9  C   LIG    1       29.474 -19.616   6.845  0.00  0.00    +0.000 A 
ATOM     10  C   LIG    1       29.424 -18.650   5.847  0.00  0.00    +0.001 A 
ATOM     11  C   LIG    1       28.279 -18.527   5.059  0.00  0.00    +0.012 A 
ENDBRANCH   3   6
BRANCH   4  12
ATOM     12  C   LIG    1       25.610 -16.751   3.610  0.00  0.00    +0.004 A 
ATOM     13  C   LIG    1       26.895 -16.304   3.283  0.00  0.00    +0.010 A 
ATOM     14  C   LIG    1       27.174 -14.939   3.144  0.00  0.00    +0.001 A 
ATOM     15  C   LIG    1       26.176 -13.991   3.355  0.00  0.00    +0.000 A 
ATOM     16  C   LIG    1       24.902 -14.408   3.725  0.00  0.00    +0.001 A 
ATOM     17  C   LIG    1       24.623 -15.776   3.859  0.00  0.00    +0.010 A 
ENDBRANCH   4  12
BRANCH   1  18
ATOM     18  C   LIG    1       23.280 -21.071   3.039  0.00  0.00    +0.107 C 
BRANCH  18  19
ATOM     19  C   LIG    1       22.197 -21.351   4.076  0.00  0.00    +0.130 C 
BRANCH  19  21
ATOM     20  O   LIG    1       22.861 -21.513   6.374  0.00  0.00    -0.251 OA
ATOM     21  C   LIG    1       22.501 -20.812   5.455  0.00  0.00    +0.305 C 
BRANCH  21  22
ATOM     22  O   LIG    1       22.397 -19.475   5.598  0.00  0.00    -0.481 OA
ATOM     23  H   LIG    1       21.551 -19.110   5.257  0.00  0.00    +0.295 HD
ENDBRANCH  21  22
ENDBRANCH  19  21
ENDBRANCH  18  19
ENDBRANCH   1  18
TORSDOF 6
ENDMDL
MODEL 5
REMARK VINA RESULT:      -3.8      2.188      5.739
REMARK  Name = *****
REMARK                            x       y       z     vdW  Elec       q    Type
REMARK                         _______ _______ _______ _____ _____    ______ ____
ROOT
ATOM      1  C   LIG    1       28.177 -17.777   4.583  0.00  0.00    +0.197 A 
ATOM      2  O   LIG    1       27.115 -18.613   4.531  0.00  0.00    -0.439 OA
ATOM      3  C   LIG    1       26.069 -17.837   4.073  0.00  0.00    +0.163 A 
ATOM      4  C   LIG    1       26.568 -16.552   3.886  0.00  0.00    +0.117 A 
ATOM      5  N   LIG    1       27.917 -16.543   4.199  0.00  0.00    -0.213 NA
ENDROOT
BRANCH   3   6
ATOM      6  C   LIG    1       24.812 -18.570   3.967  0.00  0.00    +0.019 A 
ATOM      7  C   LIG    1       23.574 -17.951   4.162  0.00  0.00    +0.012 A 
ATOM      8  C   LIG    1       22.388 -18.687   4.081  0.00  0.00    +0.001 A 
ATOM      9  C   LIG    1       22.426 -20.057   3.824  0.00  0.00    +0.000 A 
ATOM     10  C   LIG    1       23.648 -20.692   3.635  0.00  0.00    +0.001 A 
ATOM     11  C   LIG    1       24.831 -19.953   3.703  0.00  0.00    +0.012 A 
ENDBRANCH   3   6
BRANCH   4  12
ATOM     12  C   LIG    1       25.903 -15.334   3.423  0.00  0.00    +0.004 A 
ATOM     13  C   LIG    1       26.507 -14.466   2.507  0.00  0.00    +0.010 A 
ATOM     14  C   LIG    1       25.854 -13.308   2.067  0.00  0.00    +0.001 A 
ATOM     15  C   LIG    1       24.591 -12.983   2.555  0.00  0.00    +0.000 A 
ATOM     16  C   LIG    1       23.988 -13.807   3.499  0.00  0.00    +0.001 A 
ATOM     17  C   LIG    1       24.642 -14.968   3.936  0.00  0.00    +0.010 A 
ENDBRANCH   4  12
BRANCH   1  18
ATOM     18  C   LIG    1       29.458 -18.329   5.101  0.00  0.00    +0.107 C 
BRANCH  18  19
ATOM     19  C   LIG    1       29.384 -18.671   6.585  0.00  0.00    +0.130 C 
BRANCH  19  21
ATOM     20  O   LIG    1       29.472 -21.020   7.062  0.00  0.00    -0.251 OA
ATOM     21  C   LIG    1       28.795 -20.032   6.881  0.00  0.00    +0.305 C 
BRANCH  21  22
ATOM     22  O   LIG    1       27.451 -20.079   6.984  0.00  0.00    -0.481 OA
ATOM     23  H   LIG    1       26.996 -20.186   6.120  0.00  0.00    +0.295 HD
ENDBRANCH  21  22
ENDBRANCH  19  21
ENDBRANCH  18  19
ENDBRANCH   1  18
TORSDOF 6
ENDMDL
MODEL 6
REMARK VINA RESULT:      -3.6      2.417      6.200
REMARK  Name = *****
REMARK                            x       y       z     vdW  Elec       q    Type
REMARK                         _______ _______ _______ _____ _____    ______ ____
ROOT
ATOM      1  C   LIG    1       24.273 -19.909   3.338  0.00  0.00    +0.197 A 
ATOM      2  O   LIG    1       24.368 -18.578   3.113  0.00  0.00    -0.439 OA
ATOM      3  C   LIG    1       25.499 -18.178   3.795  0.00  0.00    +0.163 A 
ATOM      4  C   LIG    1       26.023 -19.309   4.413  0.00  0.00    +0.117 A 
ATOM      5  N   LIG    1       25.235 -20.402   4.091  0.00  0.00    -0.213 NA
ENDROOT
BRANCH   3   6
ATOM      6  C   LIG    1       25.761 -16.747   3.686  0.00  0.00    +0.019 A 
ATOM      7  C   LIG    1       27.046 -16.243   3.462  0.00  0.00    +0.012 A 
ATOM      8  C   LIG    1       27.269 -14.865   3.391  0.00  0.00    +0.001 A 
ATOM      9  C   LIG    1       26.213 -13.971   3.565  0.00  0.00    +0.000 A 
ATOM     10  C   LIG    1       24.930 -14.453   3.797  0.00  0.00    +0.001 A 
ATOM     11  C   LIG    1       24.706 -15.829   3.854  0.00  0.00    +0.012 A 
ENDBRANCH   3   6
BRANCH   4  12
ATOM     12  C   LIG    1       27.204 -19.466   5.262  0.00  0.00    +0.004 A 
ATOM     13  C   LIG    1       28.338 -18.661   5.104  0.00  0.00    +0.010 A 
ATOM     14  C   LIG    1       29.458 -18.818   5.930  0.00  0.00    +0.001 A 
ATOM     15  C   LIG    1       29.475 -19.802   6.915  0.00  0.00    +0.000 A 
ATOM     16  C   LIG    1       28.378 -20.643   7.062  0.00  0.00    +0.001 A 
ATOM     17  C   LIG    1       27.254 -20.483   6.237  0.00  0.00    +0.010 A 
ENDBRANCH   4  12
BRANCH   1  18
ATOM     18  C   LIG    1       23.099 -20.619   2.763  0.00  0.00    +0.107 C 
BRANCH  18  19
ATOM     19  C   LIG    1       21.917 -20.656   3.724  0.00  0.00    +0.130 C 
BRANCH  19  21
ATOM     20  O   LIG    1       22.534 -21.564   5.856  0.00  0.00    -0.251 OA
ATOM     21  C   LIG    1       22.299 -20.584   5.186  0.00  0.00    +0.305 C 
BRANCH  21  22
ATOM     22  O   LIG    1       22.414 -19.343   5.700  0.00  0.00    -0.481 OA
ATOM     23  H   LIG    1       21.762 -18.706   5.336  0.00  0.00    +0.295 HD
ENDBRANCH  21  22
ENDBRANCH  19  21
ENDBRANCH  18  19
ENDBRANCH   1  18
TORSDOF 6
ENDMDL
MODEL 7
REMARK VINA RESULT:      -3.5      2.591      5.364
REMARK  Name = *****
REMARK                            x       y       z     vdW  Elec       q    Type
REMARK                         _______ _______ _______ _____ _____    ______ ____
ROOT
ATOM      1  C   LIG    1       24.024 -19.812   3.632  0.00  0.00    +0.197 A 
ATOM      2  O   LIG    1       25.100 -20.215   4.348  0.00  0.00    -0.439 OA
ATOM      3  C   LIG    1       25.868 -19.080   4.511  0.00  0.00    +0.163 A 
ATOM      4  C   LIG    1       25.205 -18.043   3.861  0.00  0.00    +0.117 A 
ATOM      5  N   LIG    1       24.024 -18.530   3.325  0.00  0.00    -0.213 NA
ENDROOT
BRANCH   3   6
ATOM      6  C   LIG    1       27.100 -19.321   5.254  0.00  0.00    +0.019 A 
ATOM      7  C   LIG    1       28.279 -18.620   4.982  0.00  0.00    +0.012 A 
ATOM      8  C   LIG    1       29.451 -18.894   5.693  0.00  0.00    +0.001 A 
ATOM      9  C   LIG    1       29.465 -19.888   6.670  0.00  0.00    +0.000 A 
ATOM     10  C   LIG    1       28.305 -20.601   6.950  0.00  0.00    +0.001 A 
ATOM     11  C   LIG    1       27.132 -20.317   6.249  0.00  0.00    +0.012 A 
ENDBRANCH   3   6
BRANCH   4  12
ATOM     12  C   LIG    1       25.566 -16.633   3.710  0.00  0.00    +0.004 A 
ATOM     13  C   LIG    1       24.607 -15.616   3.764  0.00  0.00    +0.010 A 
ATOM     14  C   LIG    1       24.969 -14.271   3.626  0.00  0.00    +0.001 A 
ATOM     15  C   LIG    1       26.299 -13.918   3.407  0.00  0.00    +0.000 A 
ATOM     16  C   LIG    1       27.264 -14.913   3.305  0.00  0.00    +0.001 A 
ATOM     17  C   LIG    1       26.900 -16.261   3.448  0.00  0.00    +0.010 A 
ENDBRANCH   4  12
BRANCH   1  18
ATOM     18  C   LIG    1       23.028 -20.849   3.250  0.00  0.00    +0.107 C 
BRANCH  18  19
ATOM     19  C   LIG    1       22.194 -21.315   4.438  0.00  0.00    +0.130 C 
BRANCH  19  21
ATOM     20  O   LIG    1       23.142 -21.570   6.625  0.00  0.00    -0.251 OA
ATOM     21  C   LIG    1       22.693 -20.829   5.779  0.00  0.00    +0.305 C 
BRANCH  21  22
ATOM     22  O   LIG    1       22.655 -19.495   5.970  0.00  0.00    -0.481 OA
ATOM     23  H   LIG    1       21.785 -19.093   5.758  0.00  0.00    +0.295 HD
ENDBRANCH  21  22
ENDBRANCH  19  21
ENDBRANCH  18  19
ENDBRANCH   1  18
TORSDOF 6
ENDMDL
MODEL 8
REMARK VINA RESULT:      -2.4      1.399      4.571
REMARK  Name = *****
REMARK                            x       y       z     vdW  Elec       q    Type
REMARK                         _______ _______ _______ _____ _____    ______ ____
ROOT
ATOM      1  C   LIG    1       26.485 -16.570   3.361  0.00  0.00    +0.197 A 
ATOM      2  O   LIG    1       25.270 -17.167   3.369  0.00  0.00    -0.439 OA
ATOM      3  C   LIG    1       25.428 -18.294   4.149  0.00  0.00    +0.163 A 
ATOM      4  C   LIG    1       26.757 -18.318   4.563  0.00  0.00    +0.117 A 
ATOM      5  N   LIG    1       27.404 -17.200   4.064  0.00  0.00    -0.213 NA
ENDROOT
BRANCH   3   6
ATOM      6  C   LIG    1       24.212 -19.091   4.263  0.00  0.00    +0.019 A 
ATOM      7  C   LIG    1       24.239 -20.489   4.265  0.00  0.00    +0.012 A 
ATOM      8  C   LIG    1       23.053 -21.224   4.347  0.00  0.00    +0.001 A 
ATOM      9  C   LIG    1       21.823 -20.572   4.405  0.00  0.00    +0.000 A 
ATOM     10  C   LIG    1       21.774 -19.183   4.395  0.00  0.00    +0.001 A 
ATOM     11  C   LIG    1       22.960 -18.449   4.327  0.00  0.00    +0.012 A 
ENDBRANCH   3   6
BRANCH   4  12
ATOM     12  C   LIG    1       27.472 -19.283   5.399  0.00  0.00    +0.004 A 
ATOM     13  C   LIG    1       26.882 -20.482   5.812  0.00  0.00    +0.010 A 
ATOM     14  C   LIG    1       27.583 -21.398   6.606  0.00  0.00    +0.001 A 
ATOM     15  C   LIG    1       28.882 -21.120   7.024  0.00  0.00    +0.000 A 
ATOM     16  C   LIG    1       29.474 -19.915   6.663  0.00  0.00    +0.001 A 
ATOM     17  C   LIG    1       28.772 -18.999   5.864  0.00  0.00    +0.010 A 
ENDBRANCH   4  12
BRANCH   1  18
ATOM     18  C   LIG    1       26.637 -15.338   2.541  0.00  0.00    +0.107 C 
BRANCH  18  19
ATOM     19  C   LIG    1       26.359 -14.072   3.343  0.00  0.00    +0.130 C 
BRANCH  19  21
ATOM     20  O   LIG    1       24.202 -13.824   2.327  0.00  0.00    -0.251 OA
ATOM     21  C   LIG    1       25.138 -13.304   2.892  0.00  0.00    +0.305 C 
BRANCH  21  22
ATOM     22  O   LIG    1       25.122 -11.991   3.202  0.00  0.00    -0.481 OA
ATOM     23  H   LIG    1       24.431 -11.752   3.857  0.00  0.00    +0.295 HD
ENDBRANCH  21  22
ENDBRANCH  19  21
ENDBRANCH  18  19
ENDBRANCH   1  18
TORSDOF 6
ENDMDL
MODEL 9
REMARK VINA RESULT:      -2.4      1.873      5.421
REMARK  Name = *****
REMARK                            x       y       z     vdW  Elec       q    Type
REMARK                         _______ _______ _______ _____ _____    ______ ____
ROOT
ATOM      1  C   LIG    1       27.820 -17.873   4.480  0.00  0.00    +0.197 A 
ATOM      2  O   LIG    1       27.554 -16.602   4.099  0.00  0.00    -0.439 OA
ATOM      3  C   LIG    1       26.194 -16.575   3.864  0.00  0.00    +0.163 A 
ATOM      4  C   LIG    1       25.714 -17.858   4.110  0.00  0.00    +0.117 A 
ATOM      5  N   LIG    1       26.765 -18.661   4.519  0.00  0.00    -0.213 NA
ENDROOT
BRANCH   3   6
ATOM      6  C   LIG    1       25.713 -15.273   3.417  0.00  0.00    +0.019 A 
ATOM      7  C   LIG    1       26.475 -14.444   2.587  0.00  0.00    +0.012 A 
ATOM      8  C   LIG    1       25.997 -13.190   2.200  0.00  0.00    +0.001 A 
ATOM      9  C   LIG    1       24.760 -12.736   2.655  0.00  0.00    +0.000 A 
ATOM     10  C   LIG    1       23.991 -13.542   3.487  0.00  0.00    +0.001 A 
ATOM     11  C   LIG    1       24.463 -14.800   3.863  0.00  0.00    +0.012 A 
ENDBRANCH   3   6
BRANCH   4  12
ATOM     12  C   LIG    1       24.356 -18.397   4.015  0.00  0.00    +0.004 A 
ATOM     13  C   LIG    1       23.228 -17.579   4.135  0.00  0.00    +0.010 A 
ATOM     14  C   LIG    1       21.936 -18.108   4.034  0.00  0.00    +0.001 A 
ATOM     15  C   LIG    1       21.747 -19.474   3.836  0.00  0.00    +0.000 A 
ATOM     16  C   LIG    1       22.852 -20.314   3.758  0.00  0.00    +0.001 A 
ATOM     17  C   LIG    1       24.147 -19.782   3.855  0.00  0.00    +0.010 A 
ENDBRANCH   4  12
BRANCH   1  18
ATOM     18  C   LIG    1       29.240 -18.223   4.753  0.00  0.00    +0.107 C 
BRANCH  18  19
ATOM     19  C   LIG    1       29.474 -18.596   6.213  0.00  0.00    +0.130 C 
BRANCH  19  21
ATOM     20  O   LIG    1       29.464 -20.959   6.621  0.00  0.00    -0.251 OA
ATOM     21  C   LIG    1       28.856 -19.912   6.627  0.00  0.00    +0.305 C 
BRANCH  21  22
ATOM     22  O   LIG    1       27.580 -19.850   7.059  0.00  0.00    -0.481 OA
ATOM     23  H   LIG    1       27.065 -20.666   6.877  0.00  0.00    +0.295 HD
ENDBRANCH  21  22
ENDBRANCH  19  21
ENDBRANCH  18  19
ENDBRANCH   1  18
TORSDOF 6
ENDMDL
