MODEL 1
REMARK VINA RESULT:      -2.2      0.000      0.000
REMARK  Name = *****
REMARK                            x       y       z     vdW  Elec       q    Type
REMARK                         _______ _______ _______ _____ _____    ______ ____
ROOT
ATOM      1  N   LIG    1       25.349 -19.981   4.028  0.00  0.00    -0.226 N 
ATOM      2  C   LIG    1       26.102 -20.500   5.082  0.00  0.00    +0.275 C 
ATOM      3  O   LIG    1       25.855 -21.572   5.650  0.00  0.00    -0.266 OA
ATOM      4  C   LIG    1       27.252 -19.705   5.531  0.00  0.00    +0.050 A 
ATOM      5  C   LIG    1       27.562 -18.509   4.889  0.00  0.00    +0.011 A 
ATOM      6  C   LIG    1       28.677 -17.772   5.310  0.00  0.00    +0.010 A 
ATOM      7  C   LIG    1       29.461 -18.225   6.376  0.00  0.00    +0.001 A 
ATOM      8  C   LIG    1       29.139 -19.411   7.027  0.00  0.00    +0.001 A 
ATOM      9  C   LIG    1       26.681 -18.096   3.773  0.00  0.00    +0.074 C 
ATOM     10  C   LIG    1       28.038 -20.155   6.604  0.00  0.00    +0.014 A 
ATOM     11  N   LIG    1       25.655 -18.803   3.390  0.00  0.00    -0.172 NA
ENDROOT
BRANCH   1  16
ATOM     12  C   LIG    1       21.246 -17.274   4.462  0.00  0.00    +0.105 C 
ATOM     13  N   LIG    1       21.678 -18.643   4.146  0.00  0.00    -0.305 NA
ATOM     14  C   LIG    1       22.750 -18.584   3.144  0.00  0.00    +0.086 C 
ATOM     15  C   LIG    1       23.246 -19.930   2.622  0.00  0.00    +0.042 C 
ATOM     16  C   LIG    1       24.151 -20.729   3.570  0.00  0.00    +0.112 C 
ATOM     17  C   LIG    1       23.404 -21.461   4.696  0.00  0.00    +0.028 C 
ATOM     18  C   LIG    1       22.119 -20.846   5.241  0.00  0.00    +0.017 C 
ATOM     19  C   LIG    1       22.069 -19.328   5.385  0.00  0.00    +0.084 C 
ENDBRANCH   1  16
BRANCH   9  20
ATOM     20  C   LIG    1       26.957 -16.797   3.014  0.00  0.00    +0.092 C 
BRANCH  20  21
ATOM     21  C   LIG    1       26.233 -15.593   3.582  0.00  0.00    -0.041 A 
ATOM     22  C   LIG    1       26.960 -14.472   4.013  0.00  0.00    +0.005 A 
ATOM     23  C   LIG    1       26.302 -13.350   4.525  0.00  0.00    +0.020 A 
ATOM     24  C   LIG    1       24.912 -13.339   4.610  0.00  0.00    +0.041 A 
ATOM     25 CL   LIG    1       24.099 -11.945   5.206  0.00  0.00    -0.084 Cl
ATOM     26  C   LIG    1       24.176 -14.452   4.212  0.00  0.00    +0.020 A 
ATOM     27  C   LIG    1       24.835 -15.576   3.705  0.00  0.00    +0.005 A 
ENDBRANCH  20  21
ENDBRANCH   9  20
TORSDOF 3
ENDMDL
MODEL 2
REMARK VINA RESULT:       0.1      3.206      6.606
REMARK  Name = *****
REMARK                            x       y       z     vdW  Elec       q    Type
REMARK                         _______ _______ _______ _____ _____    ______ ____
ROOT
ATOM      1  N   LIG    1       24.149 -15.071   4.020  0.00  0.00    -0.226 N 
ATOM      2  C   LIG    1       22.997 -15.752   4.412  0.00  0.00    +0.275 C 
ATOM      3  O   LIG    1       21.957 -15.198   4.793  0.00  0.00    -0.266 OA
ATOM      4  C   LIG    1       23.044 -17.219   4.366  0.00  0.00    +0.050 A 
ATOM      5  C   LIG    1       24.194 -17.863   3.917  0.00  0.00    +0.011 A 
ATOM      6  C   LIG    1       24.218 -19.262   3.854  0.00  0.00    +0.010 A 
ATOM      7  C   LIG    1       23.103 -20.006   4.254  0.00  0.00    +0.001 A 
ATOM      8  C   LIG    1       21.962 -19.362   4.718  0.00  0.00    +0.001 A 
ATOM      9  C   LIG    1       25.332 -17.005   3.517  0.00  0.00    +0.074 C 
ATOM     10  C   LIG    1       21.929 -17.969   4.771  0.00  0.00    +0.014 A 
ATOM     11  N   LIG    1       25.285 -15.703   3.572  0.00  0.00    -0.172 NA
ENDROOT
BRANCH   1  16
ATOM     12  C   LIG    1       28.706 -13.267   3.439  0.00  0.00    +0.105 C 
ATOM     13  N   LIG    1       27.346 -12.833   3.794  0.00  0.00    -0.305 NA
ATOM     14  C   LIG    1       26.404 -13.363   2.800  0.00  0.00    +0.086 C 
ATOM     15  C   LIG    1       24.952 -12.918   2.959  0.00  0.00    +0.042 C 
ATOM     16  C   LIG    1       24.162 -13.588   4.092  0.00  0.00    +0.112 C 
ATOM     17  C   LIG    1       24.467 -13.035   5.493  0.00  0.00    +0.028 C 
ATOM     18  C   LIG    1       25.867 -12.501   5.779  0.00  0.00    +0.017 C 
ATOM     19  C   LIG    1       27.046 -13.251   5.169  0.00  0.00    +0.084 C 
ENDBRANCH   1  16
BRANCH   9  20
ATOM     20  C   LIG    1       26.630 -17.635   3.008  0.00  0.00    +0.092 C 
BRANCH  20  21
ATOM     21  C   LIG    1       27.340 -18.488   4.041  0.00  0.00    -0.041 A 
ATOM     22  C   LIG    1       26.800 -19.725   4.424  0.00  0.00    +0.005 A 
ATOM     23  C   LIG    1       27.453 -20.527   5.365  0.00  0.00    +0.020 A 
ATOM     24  C   LIG    1       28.651 -20.098   5.931  0.00  0.00    +0.041 A 
ATOM     25 CL   LIG    1       29.474 -21.100   7.062  0.00  0.00    -0.084 Cl
ATOM     26  C   LIG    1       29.188 -18.862   5.581  0.00  0.00    +0.020 A 
ATOM     27  C   LIG    1       28.532 -18.057   4.644  0.00  0.00    +0.005 A 
ENDBRANCH  20  21
ENDBRANCH   9  20
TORSDOF 3
ENDMDL
MODEL 3
REMARK VINA RESULT:       0.2      3.041      5.713
REMARK  Name = *****
REMARK                            x       y       z     vdW  Elec       q    Type
REMARK                         _______ _______ _______ _____ _____    ______ ____
ROOT
ATOM      1  N   LIG    1       27.026 -15.435   3.472  0.00  0.00    -0.226 N 
ATOM      2  C   LIG    1       28.046 -15.771   4.362  0.00  0.00    +0.275 C 
ATOM      3  O   LIG    1       28.864 -14.963   4.819  0.00  0.00    -0.266 OA
ATOM      4  C   LIG    1       28.139 -17.181   4.764  0.00  0.00    +0.050 A 
ATOM      5  C   LIG    1       27.214 -18.102   4.281  0.00  0.00    +0.011 A 
ATOM      6  C   LIG    1       27.297 -19.439   4.692  0.00  0.00    +0.010 A 
ATOM      7  C   LIG    1       28.311 -19.848   5.565  0.00  0.00    +0.001 A 
ATOM      8  C   LIG    1       29.244 -18.929   6.033  0.00  0.00    +0.001 A 
ATOM      9  C   LIG    1       26.176 -17.593   3.357  0.00  0.00    +0.074 C 
ATOM     10  C   LIG    1       29.158 -17.594   5.636  0.00  0.00    +0.014 A 
ATOM     11  N   LIG    1       26.109 -16.342   2.997  0.00  0.00    -0.172 NA
ENDROOT
BRANCH   1  16
ATOM     12  C   LIG    1       23.267 -13.078   5.632  0.00  0.00    +0.105 C 
ATOM     13  N   LIG    1       24.262 -12.896   4.565  0.00  0.00    -0.305 NA
ATOM     14  C   LIG    1       25.589 -13.242   5.089  0.00  0.00    +0.086 C 
ATOM     15  C   LIG    1       26.760 -13.008   4.137  0.00  0.00    +0.042 C 
ATOM     16  C   LIG    1       26.921 -14.030   3.003  0.00  0.00    +0.112 C 
ATOM     17  C   LIG    1       25.950 -13.835   1.828  0.00  0.00    +0.028 C 
ATOM     18  C   LIG    1       24.569 -13.253   2.111  0.00  0.00    +0.017 C 
ATOM     19  C   LIG    1       23.868 -13.689   3.393  0.00  0.00    +0.084 C 
ENDBRANCH   1  16
BRANCH   9  20
ATOM     20  C   LIG    1       25.120 -18.542   2.786  0.00  0.00    +0.092 C 
BRANCH  20  21
ATOM     21  C   LIG    1       24.345 -19.299   3.844  0.00  0.00    -0.041 A 
ATOM     22  C   LIG    1       24.663 -20.636   4.129  0.00  0.00    +0.005 A 
ATOM     23  C   LIG    1       23.963 -21.341   5.113  0.00  0.00    +0.020 A 
ATOM     24  C   LIG    1       22.940 -20.715   5.820  0.00  0.00    +0.041 A 
ATOM     25 CL   LIG    1       22.102 -21.569   7.057  0.00  0.00    -0.084 Cl
ATOM     26  C   LIG    1       22.593 -19.397   5.533  0.00  0.00    +0.020 A 
ATOM     27  C   LIG    1       23.289 -18.694   4.545  0.00  0.00    +0.005 A 
ENDBRANCH  20  21
ENDBRANCH   9  20
TORSDOF 3
ENDMDL
