MODEL 1
REMARK VINA RESULT:      -6.1      0.000      0.000
REMARK  Name = *****
REMARK                            x       y       z     vdW  Elec       q    Type
REMARK                         _______ _______ _______ _____ _____    ______ ____
ROOT
ATOM      1  C   LIG    1       27.995 -20.252   6.258  0.00  0.00    +0.003 C 
ATOM      2  C   LIG    1       27.983 -20.249   7.795  0.00  0.00    +0.005 C 
ATOM      3  C   LIG    1       29.392 -20.132   8.373  0.00  0.00    +0.015 C 
ATOM      4  C   LIG    1       30.119 -18.893   7.838  0.00  0.00    +0.098 C 
ATOM      5  C   LIG    1       30.130 -18.878   6.309  0.00  0.00    +0.015 C 
ATOM      6  C   LIG    1       28.722 -19.002   5.732  0.00  0.00    +0.005 C 
ENDROOT
BRANCH   4   7
ATOM      7  C   LIG    1       31.542 -18.839   8.361  0.00  0.00    +0.308 C 
ATOM      8  O   LIG    1       32.066 -19.700   9.054  0.00  0.00    -0.251 OA
BRANCH   7   9
ATOM      9  O   LIG    1       32.214 -17.736   7.959  0.00  0.00    -0.480 OA
ATOM     10  H   LIG    1       33.092 -17.921   7.573  0.00  0.00    +0.295 HD
ENDBRANCH   7   9
ENDBRANCH   4   7
BRANCH   1  11
ATOM     11  C   LIG    1       26.556 -20.358   5.723  0.00  0.00    +0.081 C 
BRANCH  11  12
ATOM     12  N   LIG    1       26.464 -19.948   4.326  0.00  0.00    -0.330 NA
ATOM     13  H   LIG    1       27.375 -20.052   3.878  0.00  0.00    +0.118 HD
ATOM     14  H   LIG    1       25.832 -20.576   3.830  0.00  0.00    +0.118 HD
ENDBRANCH  11  12
ENDBRANCH   1  11
TORSDOF 4
ENDMDL
MODEL 2
REMARK VINA RESULT:      -6.1      0.615      1.843
REMARK  Name = *****
REMARK                            x       y       z     vdW  Elec       q    Type
REMARK                         _______ _______ _______ _____ _____    ______ ____
ROOT
ATOM      1  C   LIG    1       27.645 -20.155   6.603  0.00  0.00    +0.003 C 
ATOM      2  C   LIG    1       28.546 -19.273   5.724  0.00  0.00    +0.005 C 
ATOM      3  C   LIG    1       29.690 -18.656   6.527  0.00  0.00    +0.015 C 
ATOM      4  C   LIG    1       30.519 -19.728   7.241  0.00  0.00    +0.098 C 
ATOM      5  C   LIG    1       29.634 -20.621   8.112  0.00  0.00    +0.015 C 
ATOM      6  C   LIG    1       28.486 -21.232   7.311  0.00  0.00    +0.005 C 
ENDROOT
BRANCH   4   7
ATOM      7  C   LIG    1       31.599 -19.090   8.095  0.00  0.00    +0.308 C 
ATOM      8  O   LIG    1       32.002 -17.942   7.971  0.00  0.00    -0.251 OA
BRANCH   7   9
ATOM      9  O   LIG    1       32.074 -19.916   9.056  0.00  0.00    -0.480 OA
ATOM     10  H   LIG    1       32.113 -20.856   8.791  0.00  0.00    +0.295 HD
ENDBRANCH   7   9
ENDBRANCH   4   7
BRANCH   1  11
ATOM     11  C   LIG    1       26.517 -20.764   5.751  0.00  0.00    +0.081 C 
BRANCH  11  12
ATOM     12  N   LIG    1       26.377 -20.082   4.468  0.00  0.00    -0.330 NA
ATOM     13  H   LIG    1       26.999 -20.511   3.782  0.00  0.00    +0.118 HD
ATOM     14  H   LIG    1       25.430 -20.216   4.115  0.00  0.00    +0.118 HD
ENDBRANCH  11  12
ENDBRANCH   1  11
TORSDOF 4
ENDMDL
MODEL 3
REMARK VINA RESULT:      -6.1      5.548      7.048
REMARK  Name = *****
REMARK                            x       y       z     vdW  Elec       q    Type
REMARK                         _______ _______ _______ _____ _____    ______ ____
ROOT
ATOM      1  C   LIG    1       26.205 -21.340   8.074  0.00  0.00    +0.003 C 
ATOM      2  C   LIG    1       26.730 -22.510   7.226  0.00  0.00    +0.005 C 
ATOM      3  C   LIG    1       25.709 -23.643   7.131  0.00  0.00    +0.015 C 
ATOM      4  C   LIG    1       24.365 -23.145   6.588  0.00  0.00    +0.098 C 
ATOM      5  C   LIG    1       23.835 -21.973   7.415  0.00  0.00    +0.015 C 
ATOM      6  C   LIG    1       24.859 -20.844   7.516  0.00  0.00    +0.005 C 
ENDROOT
BRANCH   4   7
ATOM      7  C   LIG    1       23.343 -24.267   6.576  0.00  0.00    +0.308 C 
ATOM      8  O   LIG    1       23.611 -25.456   6.485  0.00  0.00    -0.251 OA
BRANCH   7   9
ATOM      9  O   LIG    1       22.070 -23.827   6.710  0.00  0.00    -0.480 OA
ATOM     10  H   LIG    1       21.966 -22.863   6.590  0.00  0.00    +0.295 HD
ENDBRANCH   7   9
ENDBRANCH   4   7
BRANCH   1  11
ATOM     11  C   LIG    1       27.260 -20.221   8.131  0.00  0.00    +0.081 C 
BRANCH  11  12
ATOM     12  N   LIG    1       28.613 -20.755   8.238  0.00  0.00    -0.330 NA
ATOM     13  H   LIG    1       29.204 -20.093   8.741  0.00  0.00    +0.118 HD
ATOM     14  H   LIG    1       28.597 -21.605   8.801  0.00  0.00    +0.118 HD
ENDBRANCH  11  12
ENDBRANCH   1  11
TORSDOF 4
ENDMDL
MODEL 4
REMARK VINA RESULT:      -5.9      5.075      6.209
REMARK  Name = *****
REMARK                            x       y       z     vdW  Elec       q    Type
REMARK                         _______ _______ _______ _____ _____    ______ ____
ROOT
ATOM      1  C   LIG    1       24.525 -24.466   6.008  0.00  0.00    +0.003 C 
ATOM      2  C   LIG    1       25.838 -24.533   6.805  0.00  0.00    +0.005 C 
ATOM      3  C   LIG    1       26.335 -23.141   7.193  0.00  0.00    +0.015 C 
ATOM      4  C   LIG    1       25.271 -22.360   7.972  0.00  0.00    +0.098 C 
ATOM      5  C   LIG    1       23.956 -22.294   7.195  0.00  0.00    +0.015 C 
ATOM      6  C   LIG    1       23.462 -23.685   6.801  0.00  0.00    +0.005 C 
ENDROOT
BRANCH   4   7
ATOM      7  C   LIG    1       25.756 -20.955   8.278  0.00  0.00    +0.308 C 
ATOM      8  O   LIG    1       25.864 -20.481   9.399  0.00  0.00    -0.251 OA
BRANCH   7   9
ATOM      9  O   LIG    1       26.095 -20.257   7.169  0.00  0.00    -0.480 OA
ATOM     10  H   LIG    1       25.654 -19.389   7.092  0.00  0.00    +0.295 HD
ENDBRANCH   7   9
ENDBRANCH   4   7
BRANCH   1  11
ATOM     11  C   LIG    1       24.057 -25.888   5.651  0.00  0.00    +0.081 C 
BRANCH  11  12
ATOM     12  N   LIG    1       24.836 -26.907   6.347  0.00  0.00    -0.330 NA
ATOM     13  H   LIG    1       25.799 -26.587   6.454  0.00  0.00    +0.118 HD
ATOM     14  H   LIG    1       24.471 -27.027   7.291  0.00  0.00    +0.118 HD
ENDBRANCH  11  12
ENDBRANCH   1  11
TORSDOF 4
ENDMDL
MODEL 5
REMARK VINA RESULT:      -5.8      6.373      7.612
REMARK  Name = *****
REMARK                            x       y       z     vdW  Elec       q    Type
REMARK                         _______ _______ _______ _____ _____    ______ ____
ROOT
ATOM      1  C   LIG    1       24.916 -22.347   7.773  0.00  0.00    +0.003 C 
ATOM      2  C   LIG    1       26.160 -22.848   7.020  0.00  0.00    +0.005 C 
ATOM      3  C   LIG    1       26.064 -24.337   6.697  0.00  0.00    +0.015 C 
ATOM      4  C   LIG    1       24.790 -24.661   5.908  0.00  0.00    +0.098 C 
ATOM      5  C   LIG    1       23.545 -24.159   6.640  0.00  0.00    +0.015 C 
ATOM      6  C   LIG    1       23.645 -22.671   6.970  0.00  0.00    +0.005 C 
ENDROOT
BRANCH   4   7
ATOM      7  C   LIG    1       24.675 -26.155   5.666  0.00  0.00    +0.308 C 
ATOM      8  O   LIG    1       23.922 -26.905   6.271  0.00  0.00    -0.251 OA
BRANCH   7   9
ATOM      9  O   LIG    1       25.481 -26.596   4.673  0.00  0.00    -0.480 OA
ATOM     10  H   LIG    1       26.156 -25.949   4.389  0.00  0.00    +0.295 HD
ENDBRANCH   7   9
ENDBRANCH   4   7
BRANCH   1  11
ATOM     11  C   LIG    1       25.053 -20.842   8.066  0.00  0.00    +0.081 C 
BRANCH  11  12
ATOM     12  N   LIG    1       25.893 -20.589   9.232  0.00  0.00    -0.330 NA
ATOM     13  H   LIG    1       25.614 -19.712   9.671  0.00  0.00    +0.118 HD
ATOM     14  H   LIG    1       25.734 -21.318   9.927  0.00  0.00    +0.118 HD
ENDBRANCH  11  12
ENDBRANCH   1  11
TORSDOF 4
ENDMDL
MODEL 6
REMARK VINA RESULT:      -5.8      3.457      4.577
REMARK  Name = *****
REMARK                            x       y       z     vdW  Elec       q    Type
REMARK                         _______ _______ _______ _____ _____    ______ ____
ROOT
ATOM      1  C   LIG    1       24.248 -22.437   7.385  0.00  0.00    +0.003 C 
ATOM      2  C   LIG    1       24.421 -20.939   7.086  0.00  0.00    +0.005 C 
ATOM      3  C   LIG    1       25.775 -20.419   7.565  0.00  0.00    +0.015 C 
ATOM      4  C   LIG    1       26.933 -21.225   6.965  0.00  0.00    +0.098 C 
ATOM      5  C   LIG    1       26.768 -22.719   7.247  0.00  0.00    +0.015 C 
ATOM      6  C   LIG    1       25.412 -23.237   6.774  0.00  0.00    +0.005 C 
ENDROOT
BRANCH   4   7
ATOM      7  C   LIG    1       28.262 -20.743   7.516  0.00  0.00    +0.308 C 
ATOM      8  O   LIG    1       28.392 -19.931   8.420  0.00  0.00    -0.251 OA
BRANCH   7   9
ATOM      9  O   LIG    1       29.327 -21.330   6.921  0.00  0.00    -0.480 OA
ATOM     10  H   LIG    1       30.153 -21.277   7.439  0.00  0.00    +0.295 HD
ENDBRANCH   7   9
ENDBRANCH   4   7
BRANCH   1  11
ATOM     11  C   LIG    1       22.878 -22.918   6.874  0.00  0.00    +0.081 C 
BRANCH  11  12
ATOM     12  N   LIG    1       22.895 -24.335   6.529  0.00  0.00    -0.330 NA
ATOM     13  H   LIG    1       23.779 -24.750   6.823  0.00  0.00    +0.118 HD
ATOM     14  H   LIG    1       22.167 -24.820   7.053  0.00  0.00    +0.118 HD
ENDBRANCH  11  12
ENDBRANCH   1  11
TORSDOF 4
ENDMDL
MODEL 7
REMARK VINA RESULT:      -5.8      6.438      7.672
REMARK  Name = *****
REMARK                            x       y       z     vdW  Elec       q    Type
REMARK                         _______ _______ _______ _____ _____    ______ ____
ROOT
ATOM      1  C   LIG    1       24.162 -23.032   6.645  0.00  0.00    +0.003 C 
ATOM      2  C   LIG    1       23.266 -24.282   6.663  0.00  0.00    +0.005 C 
ATOM      3  C   LIG    1       23.939 -25.470   5.980  0.00  0.00    +0.015 C 
ATOM      4  C   LIG    1       25.305 -25.779   6.603  0.00  0.00    +0.098 C 
ATOM      5  C   LIG    1       26.204 -24.541   6.601  0.00  0.00    +0.015 C 
ATOM      6  C   LIG    1       25.527 -23.350   7.278  0.00  0.00    +0.005 C 
ENDROOT
BRANCH   4   7
ATOM      7  C   LIG    1       25.991 -26.910   5.860  0.00  0.00    +0.308 C 
ATOM      8  O   LIG    1       25.438 -27.931   5.476  0.00  0.00    -0.251 OA
BRANCH   7   9
ATOM      9  O   LIG    1       27.302 -26.673   5.624  0.00  0.00    -0.480 OA
ATOM     10  H   LIG    1       27.643 -27.090   4.810  0.00  0.00    +0.295 HD
ENDBRANCH   7   9
ENDBRANCH   4   7
BRANCH   1  11
ATOM     11  C   LIG    1       23.448 -21.867   7.353  0.00  0.00    +0.081 C 
BRANCH  11  12
ATOM     12  N   LIG    1       24.390 -20.995   8.047  0.00  0.00    -0.330 NA
ATOM     13  H   LIG    1       24.138 -20.935   9.034  0.00  0.00    +0.118 HD
ATOM     14  H   LIG    1       25.321 -21.410   8.018  0.00  0.00    +0.118 HD
ENDBRANCH  11  12
ENDBRANCH   1  11
TORSDOF 4
ENDMDL
MODEL 8
REMARK VINA RESULT:      -5.8      3.831      5.009
REMARK  Name = *****
REMARK                            x       y       z     vdW  Elec       q    Type
REMARK                         _______ _______ _______ _____ _____    ______ ____
ROOT
ATOM      1  C   LIG    1       30.518 -19.674   7.063  0.00  0.00    +0.003 C 
ATOM      2  C   LIG    1       29.646 -18.599   6.392  0.00  0.00    +0.005 C 
ATOM      3  C   LIG    1       28.469 -19.215   5.638  0.00  0.00    +0.015 C 
ATOM      4  C   LIG    1       27.618 -20.104   6.551  0.00  0.00    +0.098 C 
ATOM      5  C   LIG    1       28.474 -21.173   7.233  0.00  0.00    +0.015 C 
ATOM      6  C   LIG    1       29.655 -20.558   7.981  0.00  0.00    +0.005 C 
ENDROOT
BRANCH   4   7
ATOM      7  C   LIG    1       26.503 -20.768   5.764  0.00  0.00    +0.308 C 
ATOM      8  O   LIG    1       25.742 -21.615   6.209  0.00  0.00    -0.251 OA
BRANCH   7   9
ATOM      9  O   LIG    1       26.400 -20.306   4.496  0.00  0.00    -0.480 OA
ATOM     10  H   LIG    1       26.455 -19.334   4.420  0.00  0.00    +0.295 HD
ENDBRANCH   7   9
ENDBRANCH   4   7
BRANCH   1  11
ATOM     11  C   LIG    1       31.681 -19.008   7.819  0.00  0.00    +0.081 C 
BRANCH  11  12
ATOM     12  N   LIG    1       31.955 -19.673   9.088  0.00  0.00    -0.330 NA
ATOM     13  H   LIG    1       32.145 -18.975   9.807  0.00  0.00    +0.118 HD
ATOM     14  H   LIG    1       31.122 -20.175   9.394  0.00  0.00    +0.118 HD
ENDBRANCH  11  12
ENDBRANCH   1  11
TORSDOF 4
ENDMDL
MODEL 9
REMARK VINA RESULT:      -5.8      6.337      7.601
REMARK  Name = *****
REMARK                            x       y       z     vdW  Elec       q    Type
REMARK                         _______ _______ _______ _____ _____    ______ ____
ROOT
ATOM      1  C   LIG    1       25.485 -25.314   6.043  0.00  0.00    +0.003 C 
ATOM      2  C   LIG    1       26.158 -24.199   6.860  0.00  0.00    +0.005 C 
ATOM      3  C   LIG    1       25.435 -22.863   6.696  0.00  0.00    +0.015 C 
ATOM      4  C   LIG    1       23.951 -22.977   7.061  0.00  0.00    +0.098 C 
ATOM      5  C   LIG    1       23.271 -24.090   6.263  0.00  0.00    +0.015 C 
ATOM      6  C   LIG    1       23.998 -25.424   6.421  0.00  0.00    +0.005 C 
ENDROOT
BRANCH   4   7
ATOM      7  C   LIG    1       23.236 -21.662   6.816  0.00  0.00    +0.308 C 
ATOM      8  O   LIG    1       23.289 -20.688   7.554  0.00  0.00    -0.251 OA
BRANCH   7   9
ATOM      9  O   LIG    1       22.534 -21.646   5.659  0.00  0.00    -0.480 OA
ATOM     10  H   LIG    1       22.799 -20.938   5.041  0.00  0.00    +0.295 HD
ENDBRANCH   7   9
ENDBRANCH   4   7
BRANCH   1  11
ATOM     11  C   LIG    1       26.239 -26.640   6.248  0.00  0.00    +0.081 C 
BRANCH  11  12
ATOM     12  N   LIG    1       27.049 -26.990   5.086  0.00  0.00    -0.330 NA
ATOM     13  H   LIG    1       27.599 -27.824   5.291  0.00  0.00    +0.118 HD
ATOM     14  H   LIG    1       26.437 -27.238   4.309  0.00  0.00    +0.118 HD
ENDBRANCH  11  12
ENDBRANCH   1  11
TORSDOF 4
ENDMDL
