MODEL 1
REMARK VINA RESULT:      -3.7      0.000      0.000
REMARK  Name = *****
REMARK                            x       y       z     vdW  Elec       q    Type
REMARK                         _______ _______ _______ _____ _____    ______ ____
ROOT
ATOM      1  C   LIG    1       22.467 -20.556   4.499  0.00  0.00    +0.216 A 
ATOM      2  N   LIG    1       22.070 -19.309   4.726  0.00  0.00    -0.193 NA
ATOM      3  C   LIG    1       22.912 -18.326   4.420  0.00  0.00    +0.187 A 
ATOM      4  C   LIG    1       24.185 -18.548   3.892  0.00  0.00    +0.148 A 
ATOM      5  N   LIG    1       25.052 -17.534   3.603  0.00  0.00    -0.237 NA
ATOM      6  C   LIG    1       24.619 -16.271   3.844  0.00  0.00    +0.111 A 
ATOM      7  C   LIG    1       23.326 -16.053   4.346  0.00  0.00    +0.145 A 
ATOM      8  C   LIG    1       24.494 -19.894   3.720  0.00  0.00    +0.149 A 
ATOM      9  N   LIG    1       22.497 -17.075   4.642  0.00  0.00    -0.209 NA
ATOM     10  N   LIG    1       23.658 -20.899   4.019  0.00  0.00    -0.198 NA
ENDROOT
BRANCH   6  11
ATOM     11  C   LIG    1       25.592 -15.209   3.519  0.00  0.00    +0.004 A 
ATOM     12  C   LIG    1       25.194 -14.083   2.773  0.00  0.00    +0.010 A 
ATOM     13  C   LIG    1       26.097 -13.065   2.453  0.00  0.00    +0.001 A 
ATOM     14  C   LIG    1       27.422 -13.156   2.865  0.00  0.00    +0.000 A 
ATOM     15  C   LIG    1       27.846 -14.265   3.591  0.00  0.00    +0.001 A 
ATOM     16  C   LIG    1       26.941 -15.283   3.910  0.00  0.00    +0.010 A 
ENDBRANCH   6  11
BRANCH   1  17
ATOM     17  N   LIG    1       21.595 -21.572   4.823  0.00  0.00    -0.327 N 
ATOM     18  H   LIG    1       20.876 -21.235   5.450  0.00  0.00    +0.145 HD
ATOM     19  H   LIG    1       22.098 -22.405   5.094  0.00  0.00    +0.145 HD
ENDBRANCH   1  17
BRANCH   7  20
ATOM     20  N   LIG    1       22.795 -14.787   4.598  0.00  0.00    -0.341 N 
ATOM     21  H   LIG    1       21.948 -14.917   5.149  0.00  0.00    +0.144 HD
ATOM     22  H   LIG    1       22.615 -14.278   3.738  0.00  0.00    +0.144 HD
ENDBRANCH   7  20
BRANCH   8  23
ATOM     23  N   LIG    1       25.713 -20.277   3.137  0.00  0.00    -0.341 N 
ATOM     24  H   LIG    1       25.885 -19.777   2.270  0.00  0.00    +0.144 HD
ATOM     25  H   LIG    1       26.455 -20.205   3.824  0.00  0.00    +0.144 HD
ENDBRANCH   8  23
TORSDOF 4
ENDMDL
MODEL 2
REMARK VINA RESULT:      -3.6      2.019      6.586
REMARK  Name = *****
REMARK                            x       y       z     vdW  Elec       q    Type
REMARK                         _______ _______ _______ _____ _____    ______ ____
ROOT
ATOM      1  C   LIG    1       26.946 -13.777   3.323  0.00  0.00    +0.216 A 
ATOM      2  N   LIG    1       27.232 -15.064   3.165  0.00  0.00    -0.193 NA
ATOM      3  C   LIG    1       26.260 -15.945   3.380  0.00  0.00    +0.187 A 
ATOM      4  C   LIG    1       24.972 -15.579   3.775  0.00  0.00    +0.148 A 
ATOM      5  N   LIG    1       23.986 -16.491   4.016  0.00  0.00    -0.237 NA
ATOM      6  C   LIG    1       24.306 -17.799   3.845  0.00  0.00    +0.111 A 
ATOM      7  C   LIG    1       25.594 -18.158   3.417  0.00  0.00    +0.145 A 
ATOM      8  C   LIG    1       24.801 -14.206   3.928  0.00  0.00    +0.149 A 
ATOM      9  N   LIG    1       26.556 -17.237   3.205  0.00  0.00    -0.209 NA
ATOM     10  N   LIG    1       25.768 -13.302   3.714  0.00  0.00    -0.198 NA
ENDROOT
BRANCH   6  11
ATOM     11  C   LIG    1       23.210 -18.748   4.121  0.00  0.00    +0.004 A 
ATOM     12  C   LIG    1       23.471 -19.965   4.779  0.00  0.00    +0.010 A 
ATOM     13  C   LIG    1       22.449 -20.880   5.050  0.00  0.00    +0.001 A 
ATOM     14  C   LIG    1       21.143 -20.600   4.661  0.00  0.00    +0.000 A 
ATOM     15  C   LIG    1       20.860 -19.410   3.996  0.00  0.00    +0.001 A 
ATOM     16  C   LIG    1       21.884 -18.497   3.725  0.00  0.00    +0.010 A 
ENDBRANCH   6  11
BRANCH   1  17
ATOM     17  N   LIG    1       27.958 -12.867   3.106  0.00  0.00    -0.327 N 
ATOM     18  H   LIG    1       27.976 -12.174   3.843  0.00  0.00    +0.145 HD
ATOM     19  H   LIG    1       27.944 -12.535   2.152  0.00  0.00    +0.145 HD
ENDBRANCH   1  17
BRANCH   7  20
ATOM     20  N   LIG    1       25.999 -19.476   3.193  0.00  0.00    -0.341 N 
ATOM     21  H   LIG    1       27.016 -19.495   3.241  0.00  0.00    +0.144 HD
ATOM     22  H   LIG    1       25.653 -19.828   2.305  0.00  0.00    +0.144 HD
ENDBRANCH   7  20
BRANCH   8  23
ATOM     23  N   LIG    1       23.543 -13.677   4.259  0.00  0.00    -0.341 N 
ATOM     24  H   LIG    1       23.409 -13.637   5.265  0.00  0.00    +0.144 HD
ATOM     25  H   LIG    1       23.409 -12.794   3.777  0.00  0.00    +0.144 HD
ENDBRANCH   8  23
TORSDOF 4
ENDMDL
MODEL 3
REMARK VINA RESULT:      -3.5      2.003      6.491
REMARK  Name = *****
REMARK                            x       y       z     vdW  Elec       q    Type
REMARK                         _______ _______ _______ _____ _____    ______ ____
ROOT
ATOM      1  C   LIG    1       26.907 -13.798   3.307  0.00  0.00    +0.216 A 
ATOM      2  N   LIG    1       27.206 -15.083   3.149  0.00  0.00    -0.193 NA
ATOM      3  C   LIG    1       26.245 -15.974   3.372  0.00  0.00    +0.187 A 
ATOM      4  C   LIG    1       24.955 -15.621   3.774  0.00  0.00    +0.148 A 
ATOM      5  N   LIG    1       23.981 -16.544   4.023  0.00  0.00    -0.237 NA
ATOM      6  C   LIG    1       24.314 -17.848   3.852  0.00  0.00    +0.111 A 
ATOM      7  C   LIG    1       25.603 -18.194   3.417  0.00  0.00    +0.145 A 
ATOM      8  C   LIG    1       24.771 -14.250   3.926  0.00  0.00    +0.149 A 
ATOM      9  N   LIG    1       26.553 -17.263   3.198  0.00  0.00    -0.209 NA
ATOM     10  N   LIG    1       25.726 -13.336   3.704  0.00  0.00    -0.198 NA
ENDROOT
BRANCH   6  11
ATOM     11  C   LIG    1       23.229 -18.808   4.137  0.00  0.00    +0.004 A 
ATOM     12  C   LIG    1       21.902 -18.512   3.770  0.00  0.00    +0.010 A 
ATOM     13  C   LIG    1       20.858 -19.405   4.029  0.00  0.00    +0.001 A 
ATOM     14  C   LIG    1       21.118 -20.612   4.670  0.00  0.00    +0.000 A 
ATOM     15  C   LIG    1       22.419 -20.923   5.056  0.00  0.00    +0.001 A 
ATOM     16  C   LIG    1       23.461 -20.028   4.796  0.00  0.00    +0.010 A 
ENDBRANCH   6  11
BRANCH   1  17
ATOM     17  N   LIG    1       27.908 -12.879   3.082  0.00  0.00    -0.327 N 
ATOM     18  H   LIG    1       28.779 -13.347   2.870  0.00  0.00    +0.145 HD
ATOM     19  H   LIG    1       27.920 -12.176   3.807  0.00  0.00    +0.145 HD
ENDBRANCH   1  17
BRANCH   7  20
ATOM     20  N   LIG    1       26.020 -19.508   3.193  0.00  0.00    -0.341 N 
ATOM     21  H   LIG    1       25.332 -20.123   3.624  0.00  0.00    +0.144 HD
ATOM     22  H   LIG    1       26.955 -19.671   3.555  0.00  0.00    +0.144 HD
ENDBRANCH   7  20
BRANCH   8  23
ATOM     23  N   LIG    1       23.509 -13.733   4.264  0.00  0.00    -0.341 N 
ATOM     24  H   LIG    1       22.774 -14.148   3.699  0.00  0.00    +0.144 HD
ATOM     25  H   LIG    1       23.369 -13.808   5.265  0.00  0.00    +0.144 HD
ENDBRANCH   8  23
TORSDOF 4
ENDMDL
MODEL 4
REMARK VINA RESULT:      -3.5      0.238      1.128
REMARK  Name = *****
REMARK                            x       y       z     vdW  Elec       q    Type
REMARK                         _______ _______ _______ _____ _____    ______ ____
ROOT
ATOM      1  C   LIG    1       22.447 -20.307   4.511  0.00  0.00    +0.216 A 
ATOM      2  N   LIG    1       22.074 -19.057   4.756  0.00  0.00    -0.193 NA
ATOM      3  C   LIG    1       22.928 -18.085   4.450  0.00  0.00    +0.187 A 
ATOM      4  C   LIG    1       24.190 -18.322   3.902  0.00  0.00    +0.148 A 
ATOM      5  N   LIG    1       25.070 -17.320   3.612  0.00  0.00    -0.237 NA
ATOM      6  C   LIG    1       24.662 -16.052   3.872  0.00  0.00    +0.111 A 
ATOM      7  C   LIG    1       23.379 -15.818   4.393  0.00  0.00    +0.145 A 
ATOM      8  C   LIG    1       24.474 -19.671   3.712  0.00  0.00    +0.149 A 
ATOM      9  N   LIG    1       22.537 -16.829   4.689  0.00  0.00    -0.209 NA
ATOM     10  N   LIG    1       23.625 -20.665   4.012  0.00  0.00    -0.198 NA
ENDROOT
BRANCH   6  11
ATOM     11  C   LIG    1       25.648 -15.003   3.545  0.00  0.00    +0.004 A 
ATOM     12  C   LIG    1       26.960 -15.078   4.052  0.00  0.00    +0.010 A 
ATOM     13  C   LIG    1       27.911 -14.096   3.758  0.00  0.00    +0.001 A 
ATOM     14  C   LIG    1       27.568 -13.013   2.955  0.00  0.00    +0.000 A 
ATOM     15  C   LIG    1       26.274 -12.908   2.452  0.00  0.00    +0.001 A 
ATOM     16  C   LIG    1       25.324 -13.891   2.749  0.00  0.00    +0.010 A 
ENDBRANCH   6  11
BRANCH   1  17
ATOM     17  N   LIG    1       21.561 -21.312   4.836  0.00  0.00    -0.327 N 
ATOM     18  H   LIG    1       20.783 -21.321   4.190  0.00  0.00    +0.145 HD
ATOM     19  H   LIG    1       21.349 -21.297   5.823  0.00  0.00    +0.145 HD
ENDBRANCH   1  17
BRANCH   7  20
ATOM     20  N   LIG    1       22.873 -14.546   4.666  0.00  0.00    -0.341 N 
ATOM     21  H   LIG    1       21.879 -14.561   4.446  0.00  0.00    +0.144 HD
ATOM     22  H   LIG    1       23.367 -13.827   4.145  0.00  0.00    +0.144 HD
ENDBRANCH   7  20
BRANCH   8  23
ATOM     23  N   LIG    1       25.679 -20.069   3.109  0.00  0.00    -0.341 N 
ATOM     24  H   LIG    1       25.568 -20.204   2.109  0.00  0.00    +0.144 HD
ATOM     25  H   LIG    1       26.418 -19.425   3.372  0.00  0.00    +0.144 HD
ENDBRANCH   8  23
TORSDOF 4
ENDMDL
MODEL 5
REMARK VINA RESULT:      -2.2      3.151      4.939
REMARK  Name = *****
REMARK                            x       y       z     vdW  Elec       q    Type
REMARK                         _______ _______ _______ _____ _____    ______ ____
ROOT
ATOM      1  C   LIG    1       21.204 -19.193   3.662  0.00  0.00    +0.216 A 
ATOM      2  N   LIG    1       22.301 -18.545   3.289  0.00  0.00    -0.193 NA
ATOM      3  C   LIG    1       23.453 -18.903   3.847  0.00  0.00    +0.187 A 
ATOM      4  C   LIG    1       23.554 -19.909   4.810  0.00  0.00    +0.148 A 
ATOM      5  N   LIG    1       24.737 -20.255   5.396  0.00  0.00    -0.237 NA
ATOM      6  C   LIG    1       25.841 -19.577   4.994  0.00  0.00    +0.111 A 
ATOM      7  C   LIG    1       25.738 -18.588   4.003  0.00  0.00    +0.145 A 
ATOM      8  C   LIG    1       22.335 -20.499   5.134  0.00  0.00    +0.149 A 
ATOM      9  N   LIG    1       24.552 -18.252   3.454  0.00  0.00    -0.209 NA
ATOM     10  N   LIG    1       21.164 -20.153   4.580  0.00  0.00    -0.198 NA
ENDROOT
BRANCH   6  11
ATOM     11  C   LIG    1       27.095 -19.983   5.658  0.00  0.00    +0.004 A 
ATOM     12  C   LIG    1       27.145 -21.164   6.423  0.00  0.00    +0.010 A 
ATOM     13  C   LIG    1       28.321 -21.569   7.062  0.00  0.00    +0.001 A 
ATOM     14  C   LIG    1       29.472 -20.796   6.955  0.00  0.00    +0.000 A 
ATOM     15  C   LIG    1       29.447 -19.616   6.217  0.00  0.00    +0.001 A 
ATOM     16  C   LIG    1       28.269 -19.213   5.580  0.00  0.00    +0.010 A 
ENDBRANCH   6  11
BRANCH   1  17
ATOM     17  N   LIG    1       20.012 -18.814   3.085  0.00  0.00    -0.327 N 
ATOM     18  H   LIG    1       19.491 -18.213   3.710  0.00  0.00    +0.145 HD
ATOM     19  H   LIG    1       19.531 -19.613   2.698  0.00  0.00    +0.145 HD
ENDBRANCH   1  17
BRANCH   7  20
ATOM     20  N   LIG    1       26.826 -17.861   3.515  0.00  0.00    -0.341 N 
ATOM     21  H   LIG    1       26.526 -16.893   3.418  0.00  0.00    +0.144 HD
ATOM     22  H   LIG    1       27.169 -18.243   2.639  0.00  0.00    +0.144 HD
ENDBRANCH   7  20
BRANCH   8  23
ATOM     23  N   LIG    1       22.281 -21.571   6.039  0.00  0.00    -0.341 N 
ATOM     24  H   LIG    1       22.459 -21.265   6.991  0.00  0.00    +0.144 HD
ATOM     25  H   LIG    1       21.412 -22.079   5.912  0.00  0.00    +0.144 HD
ENDBRANCH   8  23
TORSDOF 4
ENDMDL
MODEL 6
REMARK VINA RESULT:      -0.8      2.013      6.015
REMARK  Name = *****
REMARK                            x       y       z     vdW  Elec       q    Type
REMARK                         _______ _______ _______ _____ _____    ______ ____
ROOT
ATOM      1  C   LIG    1       25.125 -12.795   3.094  0.00  0.00    +0.216 A 
ATOM      2  N   LIG    1       23.958 -13.359   3.385  0.00  0.00    -0.193 NA
ATOM      3  C   LIG    1       23.950 -14.661   3.653  0.00  0.00    +0.187 A 
ATOM      4  C   LIG    1       25.100 -15.453   3.627  0.00  0.00    +0.148 A 
ATOM      5  N   LIG    1       25.079 -16.794   3.881  0.00  0.00    -0.237 NA
ATOM      6  C   LIG    1       23.874 -17.343   4.176  0.00  0.00    +0.111 A 
ATOM      7  C   LIG    1       22.726 -16.536   4.231  0.00  0.00    +0.145 A 
ATOM      8  C   LIG    1       26.254 -14.754   3.289  0.00  0.00    +0.149 A 
ATOM      9  N   LIG    1       22.772 -15.216   3.956  0.00  0.00    -0.209 NA
ATOM     10  N   LIG    1       26.283 -13.441   3.018  0.00  0.00    -0.198 NA
ENDROOT
BRANCH   6  11
ATOM     11  C   LIG    1       23.901 -18.796   4.439  0.00  0.00    +0.004 A 
ATOM     12  C   LIG    1       22.828 -19.418   5.106  0.00  0.00    +0.010 A 
ATOM     13  C   LIG    1       22.831 -20.791   5.367  0.00  0.00    +0.001 A 
ATOM     14  C   LIG    1       23.914 -21.572   4.974  0.00  0.00    +0.000 A 
ATOM     15  C   LIG    1       24.994 -20.979   4.326  0.00  0.00    +0.001 A 
ATOM     16  C   LIG    1       24.989 -19.605   4.067  0.00  0.00    +0.010 A 
ENDBRANCH   6  11
BRANCH   1  17
ATOM     17  N   LIG    1       25.128 -11.447   2.810  0.00  0.00    -0.327 N 
ATOM     18  H   LIG    1       24.982 -11.293   1.821  0.00  0.00    +0.145 HD
ATOM     19  H   LIG    1       25.919 -10.991   3.242  0.00  0.00    +0.145 HD
ENDBRANCH   1  17
BRANCH   7  20
ATOM     20  N   LIG    1       21.454 -17.015   4.551  0.00  0.00    -0.341 N 
ATOM     21  H   LIG    1       21.163 -17.632   3.795  0.00  0.00    +0.144 HD
ATOM     22  H   LIG    1       20.795 -16.257   4.698  0.00  0.00    +0.144 HD
ENDBRANCH   7  20
BRANCH   8  23
ATOM     23  N   LIG    1       27.503 -15.398   3.284  0.00  0.00    -0.341 N 
ATOM     24  H   LIG    1       27.706 -15.808   2.377  0.00  0.00    +0.144 HD
ATOM     25  H   LIG    1       28.213 -14.764   3.632  0.00  0.00    +0.144 HD
ENDBRANCH   8  23
TORSDOF 4
ENDMDL
