MODEL 1
REMARK VINA RESULT:      -6.2      0.000      0.000
REMARK  Name = *****
REMARK                            x       y       z     vdW  Elec       q    Type
REMARK                         _______ _______ _______ _____ _____    ______ ____
ROOT
ATOM      1  C   LIG    1       22.391 -16.177   4.872  0.00  0.00    +0.332 C 
ATOM      2  O   LIG    1       22.076 -15.748   5.972  0.00  0.00    -0.246 OA
ENDROOT
BRANCH   1   3
ATOM      3  C   LIG    1       21.645 -17.271   4.194  0.00  0.00    +0.092 C 
ATOM      4  C   LIG    1       21.945 -18.577   4.099  0.00  0.00    +0.015 C 
BRANCH   4   5
ATOM      5  C   LIG    1       23.076 -19.306   4.684  0.00  0.00    -0.025 A 
ATOM      6  C   LIG    1       24.304 -19.376   4.024  0.00  0.00    +0.011 A 
ATOM      7  C   LIG    1       25.357 -20.113   4.572  0.00  0.00    +0.046 A 
ATOM      8  C   LIG    1       25.207 -20.773   5.793  0.00  0.00    +0.120 A 
ATOM      9  C   LIG    1       23.980 -20.708   6.455  0.00  0.00    +0.046 A 
ATOM     10  C   LIG    1       22.920 -19.977   5.903  0.00  0.00    +0.011 A 
BRANCH   8  11
ATOM     11  O   LIG    1       26.190 -21.518   6.392  0.00  0.00    -0.495 OA
ATOM     12  C   LIG    1       27.367 -20.785   6.729  0.00  0.00    +0.277 C 
ENDBRANCH   8  11
ENDBRANCH   4   5
ENDBRANCH   1   3
BRANCH   1  13
ATOM     13  O   LIG    1       23.402 -15.748   4.071  0.00  0.00    -0.461 OA
BRANCH  13  14
ATOM     14  C   LIG    1       23.954 -14.464   4.373  0.00  0.00    +0.236 C 
BRANCH  14  15
ATOM     15  C   LIG    1       24.219 -13.662   3.084  0.00  0.00    +0.026 C 
BRANCH  15  16
ATOM     16  C   LIG    1       23.894 -12.182   3.375  0.00  0.00    +0.003 C 
ATOM     17  C   LIG    1       23.918 -11.771   4.838  0.00  0.00    +0.004 C 
ENDBRANCH  15  16
BRANCH  15  18
ATOM     18  C   LIG    1       25.638 -13.909   2.501  0.00  0.00    +0.007 C 
BRANCH  18  19
ATOM     19  C   LIG    1       26.520 -14.873   3.311  0.00  0.00    +0.000 C 
BRANCH  19  21
ATOM     20  C   LIG    1       27.327 -13.371   5.193  0.00  0.00    +0.004 C 
ATOM     21  C   LIG    1       27.727 -14.181   3.965  0.00  0.00    -0.003 C 
ENDBRANCH  19  21
ENDBRANCH  18  19
ENDBRANCH  15  18
ENDBRANCH  14  15
ENDBRANCH  13  14
ENDBRANCH   1  13
TORSDOF 10
ENDMDL
MODEL 2
REMARK VINA RESULT:      -4.7      1.872      6.872
REMARK  Name = *****
REMARK                            x       y       z     vdW  Elec       q    Type
REMARK                         _______ _______ _______ _____ _____    ______ ____
ROOT
ATOM      1  C   LIG    1       24.005 -18.845   3.754  0.00  0.00    +0.332 C 
ATOM      2  O   LIG    1       23.971 -19.300   2.621  0.00  0.00    -0.246 OA
ENDROOT
BRANCH   1   3
ATOM      3  C   LIG    1       22.985 -17.891   4.266  0.00  0.00    +0.092 C 
ATOM      4  C   LIG    1       23.053 -16.555   4.389  0.00  0.00    +0.015 C 
BRANCH   4   5
ATOM      5  C   LIG    1       24.142 -15.649   4.005  0.00  0.00    -0.025 A 
ATOM      6  C   LIG    1       25.363 -16.148   3.549  0.00  0.00    +0.011 A 
ATOM      7  C   LIG    1       26.406 -15.274   3.231  0.00  0.00    +0.046 A 
ATOM      8  C   LIG    1       26.240 -13.892   3.344  0.00  0.00    +0.120 A 
ATOM      9  C   LIG    1       25.021 -13.390   3.802  0.00  0.00    +0.046 A 
ATOM     10  C   LIG    1       23.977 -14.265   4.130  0.00  0.00    +0.011 A 
BRANCH   8  11
ATOM     11  O   LIG    1       27.214 -12.973   3.055  0.00  0.00    -0.495 OA
ATOM     12  C   LIG    1       28.401 -13.100   3.836  0.00  0.00    +0.277 C 
ENDBRANCH   8  11
ENDBRANCH   4   5
ENDBRANCH   1   3
BRANCH   1  13
ATOM     13  O   LIG    1       24.903 -19.124   4.736  0.00  0.00    -0.461 OA
BRANCH  13  14
ATOM     14  C   LIG    1       25.858 -20.150   4.454  0.00  0.00    +0.236 C 
BRANCH  14  15
ATOM     15  C   LIG    1       26.576 -20.602   5.740  0.00  0.00    +0.026 C 
BRANCH  15  16
ATOM     16  C   LIG    1       27.903 -19.823   5.838  0.00  0.00    +0.003 C 
ATOM     17  C   LIG    1       29.027 -20.515   6.591  0.00  0.00    +0.004 C 
ENDBRANCH  15  16
BRANCH  15  18
ATOM     18  C   LIG    1       25.673 -20.501   7.001  0.00  0.00    +0.007 C 
BRANCH  18  19
ATOM     19  C   LIG    1       24.518 -21.515   7.062  0.00  0.00    +0.000 C 
BRANCH  19  21
ATOM     20  C   LIG    1       22.416 -21.401   5.642  0.00  0.00    +0.004 C 
ATOM     21  C   LIG    1       23.138 -20.867   6.875  0.00  0.00    -0.003 C 
ENDBRANCH  19  21
ENDBRANCH  18  19
ENDBRANCH  15  18
ENDBRANCH  14  15
ENDBRANCH  13  14
ENDBRANCH   1  13
TORSDOF 10
ENDMDL
MODEL 3
REMARK VINA RESULT:      -4.7      1.934      6.420
REMARK  Name = *****
REMARK                            x       y       z     vdW  Elec       q    Type
REMARK                         _______ _______ _______ _____ _____    ______ ____
ROOT
ATOM      1  C   LIG    1       23.688 -19.147   3.762  0.00  0.00    +0.332 C 
ATOM      2  O   LIG    1       23.576 -19.730   2.693  0.00  0.00    -0.246 OA
ENDROOT
BRANCH   1   3
ATOM      3  C   LIG    1       22.630 -18.252   4.302  0.00  0.00    +0.092 C 
ATOM      4  C   LIG    1       22.661 -16.925   4.511  0.00  0.00    +0.015 C 
BRANCH   4   5
ATOM      5  C   LIG    1       23.736 -15.971   4.216  0.00  0.00    -0.025 A 
ATOM      6  C   LIG    1       23.592 -14.614   4.507  0.00  0.00    +0.011 A 
ATOM      7  C   LIG    1       24.605 -13.711   4.178  0.00  0.00    +0.046 A 
ATOM      8  C   LIG    1       25.784 -14.151   3.572  0.00  0.00    +0.120 A 
ATOM      9  C   LIG    1       25.931 -15.507   3.276  0.00  0.00    +0.046 A 
ATOM     10  C   LIG    1       24.912 -16.413   3.598  0.00  0.00    +0.011 A 
BRANCH   8  11
ATOM     11  O   LIG    1       26.821 -13.328   3.216  0.00  0.00    -0.495 OA
ATOM     12  C   LIG    1       28.043 -13.580   3.907  0.00  0.00    +0.277 C 
ENDBRANCH   8  11
ENDBRANCH   4   5
ENDBRANCH   1   3
BRANCH   1  13
ATOM     13  O   LIG    1       24.720 -19.220   4.643  0.00  0.00    -0.461 OA
BRANCH  13  14
ATOM     14  C   LIG    1       25.230 -20.526   4.923  0.00  0.00    +0.236 C 
BRANCH  14  15
ATOM     15  C   LIG    1       25.517 -20.695   6.427  0.00  0.00    +0.026 C 
BRANCH  15  16
ATOM     16  C   LIG    1       24.389 -21.557   7.028  0.00  0.00    +0.003 C 
ATOM     17  C   LIG    1       22.981 -20.998   6.895  0.00  0.00    +0.004 C 
ENDBRANCH  15  16
BRANCH  15  18
ATOM     18  C   LIG    1       26.952 -21.219   6.712  0.00  0.00    +0.007 C 
BRANCH  18  19
ATOM     19  C   LIG    1       27.987 -20.136   7.060  0.00  0.00    +0.000 C 
BRANCH  19  21
ATOM     20  C   LIG    1       29.416 -18.448   5.811  0.00  0.00    +0.004 C 
ATOM     21  C   LIG    1       29.026 -19.916   5.950  0.00  0.00    -0.003 C 
ENDBRANCH  19  21
ENDBRANCH  18  19
ENDBRANCH  15  18
ENDBRANCH  14  15
ENDBRANCH  13  14
ENDBRANCH   1  13
TORSDOF 10
ENDMDL
MODEL 4
REMARK VINA RESULT:      -4.7      1.884      6.664
REMARK  Name = *****
REMARK                            x       y       z     vdW  Elec       q    Type
REMARK                         _______ _______ _______ _____ _____    ______ ____
ROOT
ATOM      1  C   LIG    1       23.411 -17.223   4.345  0.00  0.00    +0.332 C 
ATOM      2  O   LIG    1       24.423 -17.439   3.694  0.00  0.00    -0.246 OA
ENDROOT
BRANCH   1   3
ATOM      3  C   LIG    1       22.766 -15.883   4.404  0.00  0.00    +0.092 C 
ATOM      4  C   LIG    1       23.323 -14.664   4.306  0.00  0.00    +0.015 C 
BRANCH   4   5
ATOM      5  C   LIG    1       24.726 -14.310   4.062  0.00  0.00    -0.025 A 
ATOM      6  C   LIG    1       25.232 -14.237   2.763  0.00  0.00    +0.011 A 
ATOM      7  C   LIG    1       26.581 -13.944   2.548  0.00  0.00    +0.046 A 
ATOM      8  C   LIG    1       27.438 -13.699   3.623  0.00  0.00    +0.120 A 
ATOM      9  C   LIG    1       26.936 -13.774   4.923  0.00  0.00    +0.046 A 
ATOM     10  C   LIG    1       25.586 -14.076   5.141  0.00  0.00    +0.011 A 
BRANCH   8  11
ATOM     11  O   LIG    1       28.772 -13.409   3.495  0.00  0.00    -0.495 OA
ATOM     12  C   LIG    1       29.189 -12.225   4.171  0.00  0.00    +0.277 C 
ENDBRANCH   8  11
ENDBRANCH   4   5
ENDBRANCH   1   3
BRANCH   1  13
ATOM     13  O   LIG    1       22.687 -18.111   5.075  0.00  0.00    -0.461 OA
BRANCH  13  14
ATOM     14  C   LIG    1       22.253 -19.293   4.395  0.00  0.00    +0.236 C 
BRANCH  14  15
ATOM     15  C   LIG    1       22.782 -20.557   5.098  0.00  0.00    +0.026 C 
BRANCH  15  16
ATOM     16  C   LIG    1       23.722 -21.285   4.114  0.00  0.00    +0.003 C 
ATOM     17  C   LIG    1       24.071 -20.527   2.844  0.00  0.00    +0.004 C 
ENDBRANCH  15  16
BRANCH  15  18
ATOM     18  C   LIG    1       23.410 -20.257   6.487  0.00  0.00    +0.007 C 
BRANCH  18  19
ATOM     19  C   LIG    1       24.551 -21.198   6.907  0.00  0.00    +0.000 C 
BRANCH  19  21
ATOM     20  C   LIG    1       26.596 -20.292   5.705  0.00  0.00    +0.004 C 
ATOM     21  C   LIG    1       25.902 -20.481   7.050  0.00  0.00    -0.003 C 
ENDBRANCH  19  21
ENDBRANCH  18  19
ENDBRANCH  15  18
ENDBRANCH  14  15
ENDBRANCH  13  14
ENDBRANCH   1  13
TORSDOF 10
ENDMDL
MODEL 5
REMARK VINA RESULT:      -4.5      0.700      2.331
REMARK  Name = *****
REMARK                            x       y       z     vdW  Elec       q    Type
REMARK                         _______ _______ _______ _____ _____    ______ ____
ROOT
ATOM      1  C   LIG    1       22.459 -16.367   4.620  0.00  0.00    +0.332 C 
ATOM      2  O   LIG    1       22.209 -15.896   5.720  0.00  0.00    -0.246 OA
ENDROOT
BRANCH   1   3
ATOM      3  C   LIG    1       21.719 -17.529   4.059  0.00  0.00    +0.092 C 
ATOM      4  C   LIG    1       22.038 -18.834   4.079  0.00  0.00    +0.015 C 
BRANCH   4   5
ATOM      5  C   LIG    1       23.189 -19.491   4.709  0.00  0.00    -0.025 A 
ATOM      6  C   LIG    1       23.069 -20.110   5.954  0.00  0.00    +0.011 A 
ATOM      7  C   LIG    1       24.184 -20.691   6.563  0.00  0.00    +0.046 A 
ATOM      8  C   LIG    1       25.429 -20.679   5.931  0.00  0.00    +0.120 A 
ATOM      9  C   LIG    1       25.554 -20.058   4.687  0.00  0.00    +0.046 A 
ATOM     10  C   LIG    1       24.438 -19.467   4.079  0.00  0.00    +0.011 A 
BRANCH   8  11
ATOM     11  O   LIG    1       26.570 -21.223   6.463  0.00  0.00    -0.495 OA
ATOM     12  C   LIG    1       27.720 -20.384   6.384  0.00  0.00    +0.277 C 
ENDBRANCH   8  11
ENDBRANCH   4   5
ENDBRANCH   1   3
BRANCH   1  13
ATOM     13  O   LIG    1       23.381 -15.934   3.721  0.00  0.00    -0.461 OA
BRANCH  13  14
ATOM     14  C   LIG    1       24.713 -15.750   4.209  0.00  0.00    +0.236 C 
BRANCH  14  15
ATOM     15  C   LIG    1       25.311 -14.429   3.689  0.00  0.00    +0.026 C 
BRANCH  15  16
ATOM     16  C   LIG    1       26.778 -14.699   3.296  0.00  0.00    +0.003 C 
ATOM     17  C   LIG    1       27.725 -13.516   3.406  0.00  0.00    +0.004 C 
ENDBRANCH  15  16
BRANCH  15  18
ATOM     18  C   LIG    1       24.453 -13.778   2.570  0.00  0.00    +0.007 C 
BRANCH  18  19
ATOM     19  C   LIG    1       24.626 -12.258   2.413  0.00  0.00    +0.000 C 
BRANCH  19  21
ATOM     20  C   LIG    1       23.924 -11.814   4.812  0.00  0.00    +0.004 C 
ATOM     21  C   LIG    1       23.715 -11.447   3.346  0.00  0.00    -0.003 C 
ENDBRANCH  19  21
ENDBRANCH  18  19
ENDBRANCH  15  18
ENDBRANCH  14  15
ENDBRANCH  13  14
ENDBRANCH   1  13
TORSDOF 10
ENDMDL
MODEL 6
REMARK VINA RESULT:      -4.2      2.158      4.134
REMARK  Name = *****
REMARK                            x       y       z     vdW  Elec       q    Type
REMARK                         _______ _______ _______ _____ _____    ______ ____
ROOT
ATOM      1  C   LIG    1       27.539 -17.014   4.051  0.00  0.00    +0.332 C 
ATOM      2  O   LIG    1       26.589 -17.311   3.342  0.00  0.00    -0.246 OA
ENDROOT
BRANCH   1   3
ATOM      3  C   LIG    1       28.462 -18.031   4.622  0.00  0.00    +0.092 C 
ATOM      4  C   LIG    1       28.176 -19.176   5.265  0.00  0.00    +0.015 C 
BRANCH   4   5
ATOM      5  C   LIG    1       26.865 -19.773   5.543  0.00  0.00    -0.025 A 
ATOM      6  C   LIG    1       26.539 -20.225   6.823  0.00  0.00    +0.011 A 
ATOM      7  C   LIG    1       25.304 -20.834   7.062  0.00  0.00    +0.046 A 
ATOM      8  C   LIG    1       24.371 -20.983   6.034  0.00  0.00    +0.120 A 
ATOM      9  C   LIG    1       24.695 -20.536   4.752  0.00  0.00    +0.046 A 
ATOM     10  C   LIG    1       25.936 -19.933   4.509  0.00  0.00    +0.011 A 
BRANCH   8  11
ATOM     11  O   LIG    1       23.143 -21.572   6.187  0.00  0.00    -0.495 OA
ATOM     12  C   LIG    1       22.198 -21.249   5.169  0.00  0.00    +0.277 C 
ENDBRANCH   8  11
ENDBRANCH   4   5
ENDBRANCH   1   3
BRANCH   1  13
ATOM     13  O   LIG    1       27.949 -15.770   4.414  0.00  0.00    -0.461 OA
BRANCH  13  14
ATOM     14  C   LIG    1       26.922 -14.817   4.701  0.00  0.00    +0.236 C 
BRANCH  14  15
ATOM     15  C   LIG    1       27.056 -13.574   3.801  0.00  0.00    +0.026 C 
BRANCH  15  16
ATOM     16  C   LIG    1       28.558 -13.244   3.676  0.00  0.00    +0.003 C 
ATOM     17  C   LIG    1       29.073 -12.135   4.579  0.00  0.00    +0.004 C 
ENDBRANCH  15  16
BRANCH  15  18
ATOM     18  C   LIG    1       26.314 -13.728   2.445  0.00  0.00    +0.007 C 
BRANCH  18  19
ATOM     19  C   LIG    1       24.787 -13.564   2.512  0.00  0.00    +0.000 C 
BRANCH  19  21
ATOM     20  C   LIG    1       23.458 -14.697   4.356  0.00  0.00    +0.004 C 
ATOM     21  C   LIG    1       24.254 -13.461   3.949  0.00  0.00    -0.003 C 
ENDBRANCH  19  21
ENDBRANCH  18  19
ENDBRANCH  15  18
ENDBRANCH  14  15
ENDBRANCH  13  14
ENDBRANCH   1  13
TORSDOF 10
ENDMDL
MODEL 7
REMARK VINA RESULT:      -4.1      2.046      4.543
REMARK  Name = *****
REMARK                            x       y       z     vdW  Elec       q    Type
REMARK                         _______ _______ _______ _____ _____    ______ ____
ROOT
ATOM      1  C   LIG    1       28.521 -18.331   5.267  0.00  0.00    +0.332 C 
ATOM      2  O   LIG    1       29.409 -17.565   5.610  0.00  0.00    -0.246 OA
ENDROOT
BRANCH   1   3
ATOM      3  C   LIG    1       28.513 -19.770   5.647  0.00  0.00    +0.092 C 
ATOM      4  C   LIG    1       27.472 -20.606   5.795  0.00  0.00    +0.015 C 
BRANCH   4   5
ATOM      5  C   LIG    1       26.045 -20.348   5.573  0.00  0.00    -0.025 A 
ATOM      6  C   LIG    1       25.113 -20.545   6.594  0.00  0.00    +0.011 A 
ATOM      7  C   LIG    1       23.752 -20.340   6.354  0.00  0.00    +0.046 A 
ATOM      8  C   LIG    1       23.303 -19.918   5.101  0.00  0.00    +0.120 A 
ATOM      9  C   LIG    1       24.232 -19.722   4.078  0.00  0.00    +0.046 A 
ATOM     10  C   LIG    1       25.596 -19.936   4.314  0.00  0.00    +0.011 A 
BRANCH   8  11
ATOM     11  O   LIG    1       21.987 -19.698   4.787  0.00  0.00    -0.495 OA
ATOM     12  C   LIG    1       21.732 -18.458   4.130  0.00  0.00    +0.277 C 
ENDBRANCH   8  11
ENDBRANCH   4   5
ENDBRANCH   1   3
BRANCH   1  13
ATOM     13  O   LIG    1       27.407 -18.042   4.545  0.00  0.00    -0.461 OA
BRANCH  13  14
ATOM     14  C   LIG    1       27.516 -16.972   3.603  0.00  0.00    +0.236 C 
BRANCH  14  15
ATOM     15  C   LIG    1       26.754 -15.727   4.095  0.00  0.00    +0.026 C 
BRANCH  15  16
ATOM     16  C   LIG    1       27.734 -14.536   4.074  0.00  0.00    +0.003 C 
ATOM     17  C   LIG    1       27.440 -13.415   5.057  0.00  0.00    +0.004 C 
ENDBRANCH  15  16
BRANCH  15  18
ATOM     18  C   LIG    1       25.428 -15.486   3.321  0.00  0.00    +0.007 C 
BRANCH  18  19
ATOM     19  C   LIG    1       24.347 -14.717   4.098  0.00  0.00    +0.000 C 
BRANCH  19  21
ATOM     20  C   LIG    1       24.844 -13.072   2.228  0.00  0.00    +0.004 C 
ATOM     21  C   LIG    1       24.015 -13.351   3.478  0.00  0.00    -0.003 C 
ENDBRANCH  19  21
ENDBRANCH  18  19
ENDBRANCH  15  18
ENDBRANCH  14  15
ENDBRANCH  13  14
ENDBRANCH   1  13
TORSDOF 10
ENDMDL
MODEL 8
REMARK VINA RESULT:      -3.9      1.756      6.656
REMARK  Name = *****
REMARK                            x       y       z     vdW  Elec       q    Type
REMARK                         _______ _______ _______ _____ _____    ______ ____
ROOT
ATOM      1  C   LIG    1       26.654 -20.067   5.767  0.00  0.00    +0.332 C 
ATOM      2  O   LIG    1       26.264 -20.077   6.926  0.00  0.00    -0.246 OA
ENDROOT
BRANCH   1   3
ATOM      3  C   LIG    1       28.034 -19.658   5.391  0.00  0.00    +0.092 C 
ATOM      4  C   LIG    1       28.452 -18.548   4.760  0.00  0.00    +0.015 C 
BRANCH   4   5
ATOM      5  C   LIG    1       27.665 -17.395   4.306  0.00  0.00    -0.025 A 
ATOM      6  C   LIG    1       26.513 -17.570   3.538  0.00  0.00    +0.011 A 
ATOM      7  C   LIG    1       25.799 -16.462   3.075  0.00  0.00    +0.046 A 
ATOM      8  C   LIG    1       26.214 -15.165   3.386  0.00  0.00    +0.120 A 
ATOM      9  C   LIG    1       27.367 -14.986   4.151  0.00  0.00    +0.046 A 
ATOM     10  C   LIG    1       28.088 -16.096   4.610  0.00  0.00    +0.011 A 
BRANCH   8  11
ATOM     11  O   LIG    1       25.571 -14.029   2.967  0.00  0.00    -0.495 OA
ATOM     12  C   LIG    1       25.064 -13.211   4.020  0.00  0.00    +0.277 C 
ENDBRANCH   8  11
ENDBRANCH   4   5
ENDBRANCH   1   3
BRANCH   1  13
ATOM     13  O   LIG    1       25.968 -20.439   4.655  0.00  0.00    -0.461 OA
BRANCH  13  14
ATOM     14  C   LIG    1       24.909 -21.381   4.844  0.00  0.00    +0.236 C 
BRANCH  14  15
ATOM     15  C   LIG    1       23.538 -20.729   4.579  0.00  0.00    +0.026 C 
BRANCH  15  16
ATOM     16  C   LIG    1       22.735 -20.770   5.895  0.00  0.00    +0.003 C 
ATOM     17  C   LIG    1       23.379 -21.528   7.044  0.00  0.00    +0.004 C 
ENDBRANCH  15  16
BRANCH  15  18
ATOM     18  C   LIG    1       23.655 -19.319   3.938  0.00  0.00    +0.007 C 
BRANCH  18  19
ATOM     19  C   LIG    1       22.355 -18.498   3.921  0.00  0.00    +0.000 C 
BRANCH  19  21
ATOM     20  C   LIG    1       22.595 -16.043   4.525  0.00  0.00    +0.004 C 
ATOM     21  C   LIG    1       22.292 -17.447   5.039  0.00  0.00    -0.003 C 
ENDBRANCH  19  21
ENDBRANCH  18  19
ENDBRANCH  15  18
ENDBRANCH  14  15
ENDBRANCH  13  14
ENDBRANCH   1  13
TORSDOF 10
ENDMDL
MODEL 9
REMARK VINA RESULT:      -3.6      1.932      5.862
REMARK  Name = *****
REMARK                            x       y       z     vdW  Elec       q    Type
REMARK                         _______ _______ _______ _____ _____    ______ ____
ROOT
ATOM      1  C   LIG    1       23.098 -20.369   5.740  0.00  0.00    +0.332 C 
ATOM      2  O   LIG    1       23.179 -19.966   6.891  0.00  0.00    -0.246 OA
ENDROOT
BRANCH   1   3
ATOM      3  C   LIG    1       22.023 -19.928   4.810  0.00  0.00    +0.092 C 
ATOM      4  C   LIG    1       21.876 -18.755   4.173  0.00  0.00    +0.015 C 
BRANCH   4   5
ATOM      5  C   LIG    1       22.766 -17.589   4.174  0.00  0.00    -0.025 A 
ATOM      6  C   LIG    1       22.311 -16.338   4.594  0.00  0.00    +0.011 A 
ATOM      7  C   LIG    1       23.156 -15.227   4.546  0.00  0.00    +0.046 A 
ATOM      8  C   LIG    1       24.472 -15.351   4.097  0.00  0.00    +0.120 A 
ATOM      9  C   LIG    1       24.931 -16.599   3.672  0.00  0.00    +0.046 A 
ATOM     10  C   LIG    1       24.082 -17.712   3.712  0.00  0.00    +0.011 A 
BRANCH   8  11
ATOM     11  O   LIG    1       25.361 -14.310   4.016  0.00  0.00    -0.495 OA
ATOM     12  C   LIG    1       26.673 -14.680   3.597  0.00  0.00    +0.277 C 
ENDBRANCH   8  11
ENDBRANCH   4   5
ENDBRANCH   1   3
BRANCH   1  13
ATOM     13  O   LIG    1       23.940 -21.219   5.096  0.00  0.00    -0.461 OA
BRANCH  13  14
ATOM     14  C   LIG    1       25.048 -20.626   4.414  0.00  0.00    +0.236 C 
BRANCH  14  15
ATOM     15  C   LIG    1       26.169 -20.256   5.405  0.00  0.00    +0.026 C 
BRANCH  15  16
ATOM     16  C   LIG    1       26.310 -21.417   6.411  0.00  0.00    +0.003 C 
ATOM     17  C   LIG    1       27.675 -21.572   7.061  0.00  0.00    +0.004 C 
ENDBRANCH  15  16
BRANCH  15  18
ATOM     18  C   LIG    1       27.491 -19.852   4.696  0.00  0.00    +0.007 C 
BRANCH  18  19
ATOM     19  C   LIG    1       27.922 -18.390   4.900  0.00  0.00    +0.000 C 
BRANCH  19  21
ATOM     20  C   LIG    1       29.421 -18.509   6.946  0.00  0.00    +0.004 C 
ATOM     21  C   LIG    1       29.352 -18.253   5.444  0.00  0.00    -0.003 C 
ENDBRANCH  19  21
ENDBRANCH  18  19
ENDBRANCH  15  18
ENDBRANCH  14  15
ENDBRANCH  13  14
ENDBRANCH   1  13
TORSDOF 10
ENDMDL
